ligand
 OpenBabel11021811483D
libRbt.so/2013.1/901 2013/11/27
 19 21  0  0  0  0  0  0  0  0999 V2000
   17.5670   28.6709   33.2997 C   0  0  0  0  0  0  0  0  0  0  0  0
   18.0713   27.3343   33.4670 O   0  0  0  0  0  0  0  0  0  0  0  0
   18.3375   29.6692   34.1701 C   0  0  1  0  0  0  0  0  0  0  0  0
   18.2654   29.2948   35.5456 O   0  0  0  0  0  0  0  0  0  0  0  0
   19.8083   29.7217   33.8027 C   0  0  1  0  0  0  0  0  0  0  0  0
   20.2104   31.0911   33.7481 O   0  0  0  0  0  0  0  0  0  0  0  0
   20.5580   29.0351   34.9219 C   0  0  0  0  0  0  0  0  0  0  0  0
   19.5603   28.9490   36.0625 C   0  0  2  0  0  0  0  0  0  0  0  0
   17.5825   26.2016   39.9738 N   0  0  0  0  0  0  0  0  0  0  0  0
   17.4826   27.5197   39.6769 C   0  0  2  0  0  0  0  0  0  0  0  0
   16.7603   28.3397   40.4692 N   0  0  0  0  0  0  0  0  0  0  0  0
   18.0912   28.0492   38.5948 N   0  0  0  0  0  0  0  0  0  0  0  0
   18.8282   27.2902   37.7588 C   0  0  1  0  0  0  0  0  0  0  0  0
   18.9779   25.9439   38.0002 C   0  0  1  0  0  0  0  0  0  0  0  0
   18.3027   25.3725   39.1914 C   0  0  0  0  0  0  0  0  0  0  0  0
   18.4034   24.1562   39.4656 O   0  0  0  0  0  0  0  0  0  0  0  0
   19.7494   25.4370   37.0233 N   0  0  0  0  0  0  0  0  0  0  0  0
   20.0667   26.4608   36.1976 C   0  0  0  0  0  0  0  0  0  0  0  0
   19.4972   27.5869   36.6565 N   0  0  1  0  0  0  0  0  0  0  0  0
  1  2  1  0  0  0  0
  3  1  1  6  0  0  0
  3  4  1  0  0  0  0
  3  5  1  0  0  0  0
  5  6  1  1  0  0  0
  5  7  1  0  0  0  0
  7  8  1  0  0  0  0
  8  4  1  6  0  0  0
  8 19  1  0  0  0  0
  9 15  1  0  0  0  0
  9 10  1  0  0  0  0
 10 11  1  6  0  0  0
 10 12  1  0  0  0  0
 13 12  1  6  0  0  0
 13 14  1  0  0  0  0
 13 19  1  0  0  0  0
 14 15  1  6  0  0  0
 14 17  1  0  0  0  0
 15 16  2  0  0  0  0
 17 18  1  0  0  0  0
 19 18  1  6  0  0  0
M  END
>  <CHROM.1>
-57.74748813,-68.72034389,18.73792311,27.72430164,36.67058437,-1.12237775
-1.14931833,2.54291504

>  <Name>
ligand

>  <RI>
0

>  <Rbt.Current_Directory>
/home/itssahil/PROJECTS/Mol_Feturizer/New_Systems/rnas/3SKL

>  <Rbt.Executable>
rbdock ($Id: //depot/dev/client3/rdock/2013.1/src/exe/rbdock.cxx#4 $)

>  <Rbt.Library>
libRbt.so (2013.1, Build901 2013/11/27)

>  <Rbt.Parameter_File>
/export/apps/rDock/src/rDock_2013.1_src/data/scripts/dock_solv.prm

>  <Rbt.Receptor>
prm/pocket_docking_2.prm

>  <SCORE>
-16.6348

>  <SCORE.INTER>
-16.5253

>  <SCORE.INTER.CONST>
1

>  <SCORE.INTER.POLAR>
0

>  <SCORE.INTER.ROT>
2

>  <SCORE.INTER.SOLV>
16.4776

>  <SCORE.INTER.VDW>
-21.4427

>  <SCORE.INTER.norm>
-0.869754

>  <SCORE.INTRA>
-0.109431

>  <SCORE.INTRA.DIHEDRAL>
-0.290658

>  <SCORE.INTRA.DIHEDRAL.0>
1.50031

>  <SCORE.INTRA.POLAR>
0

>  <SCORE.INTRA.POLAR.0>
0

>  <SCORE.INTRA.REPUL>
0

>  <SCORE.INTRA.REPUL.0>
0

>  <SCORE.INTRA.SOLV>
0.0128327

>  <SCORE.INTRA.SOLV.lig_0>
-37.9941

>  <SCORE.INTRA.VDW>
0.0294818

>  <SCORE.INTRA.VDW.0>
-0.964461

>  <SCORE.INTRA.norm>
-0.00575952

>  <SCORE.RESTR>
0

>  <SCORE.RESTR.CAVITY>
0

>  <SCORE.RESTR.norm>
0

>  <SCORE.SYSTEM>
0

>  <SCORE.SYSTEM.CONST>
0

>  <SCORE.SYSTEM.DIHEDRAL>
0

>  <SCORE.SYSTEM.SOLV>
0

>  <SCORE.SYSTEM.norm>
0

>  <SCORE.heavy>
19

>  <SCORE.norm>
-0.875514

>  <RMSD>
0.498

$$$$
ligand
 OpenBabel11021811483D
libRbt.so/2013.1/901 2013/11/27
 19 21  0  0  0  0  0  0  0  0999 V2000
   17.5541   28.7278   33.2726 C   0  0  0  0  0  0  0  0  0  0  0  0
   18.0477   27.3843   33.4141 O   0  0  0  0  0  0  0  0  0  0  0  0
   18.3458   29.7064   34.1463 C   0  0  1  0  0  0  0  0  0  0  0  0
   18.2742   29.3231   35.5194 O   0  0  0  0  0  0  0  0  0  0  0  0
   19.8154   29.7366   33.7718 C   0  0  1  0  0  0  0  0  0  0  0  0
   20.2405   31.0993   33.7252 O   0  0  0  0  0  0  0  0  0  0  0  0
   20.5589   29.0291   34.8821 C   0  0  0  0  0  0  0  0  0  0  0  0
   19.5655   28.9515   36.0271 C   0  0  2  0  0  0  0  0  0  0  0  0
   17.5607   26.2090   39.9281 N   0  0  0  0  0  0  0  0  0  0  0  0
   17.4817   27.5308   39.6415 C   0  0  2  0  0  0  0  0  0  0  0  0
   16.7775   28.3571   40.4434 N   0  0  0  0  0  0  0  0  0  0  0  0
   18.0939   28.0580   38.5602 N   0  0  0  0  0  0  0  0  0  0  0  0
   18.8137   27.2927   37.7149 C   0  0  1  0  0  0  0  0  0  0  0  0
   18.9417   25.9424   37.9456 C   0  0  1  0  0  0  0  0  0  0  0  0
   18.2628   25.3737   39.1361 C   0  0  0  0  0  0  0  0  0  0  0  0
   18.3441   24.1539   39.4008 O   0  0  0  0  0  0  0  0  0  0  0  0
   19.6996   25.4297   36.9612 N   0  0  0  0  0  0  0  0  0  0  0  0
   20.0302   26.4541   36.1414 C   0  0  0  0  0  0  0  0  0  0  0  0
   19.4822   27.5862   36.6114 N   0  0  1  0  0  0  0  0  0  0  0  0
  1  2  1  0  0  0  0
  3  1  1  6  0  0  0
  3  4  1  0  0  0  0
  3  5  1  0  0  0  0
  5  6  1  1  0  0  0
  5  7  1  0  0  0  0
  7  8  1  0  0  0  0
  8  4  1  6  0  0  0
  8 19  1  0  0  0  0
  9 15  1  0  0  0  0
  9 10  1  0  0  0  0
 10 11  1  6  0  0  0
 10 12  1  0  0  0  0
 13 12  1  6  0  0  0
 13 14  1  0  0  0  0
 13 19  1  0  0  0  0
 14 15  1  6  0  0  0
 14 17  1  0  0  0  0
 15 16  2  0  0  0  0
 17 18  1  0  0  0  0
 19 18  1  6  0  0  0
M  END
>  <CHROM.1>
-58.50375669,-68.71911629,18.72612703,27.73658484,36.62957337,-1.09345563
-1.16316583,2.57642515

>  <Name>
ligand

>  <RI>
0

>  <Rbt.Current_Directory>
/home/itssahil/PROJECTS/Mol_Feturizer/New_Systems/rnas/3SKL

>  <Rbt.Executable>
rbdock ($Id: //depot/dev/client3/rdock/2013.1/src/exe/rbdock.cxx#4 $)

>  <Rbt.Library>
libRbt.so (2013.1, Build901 2013/11/27)

>  <Rbt.Parameter_File>
/export/apps/rDock/src/rDock_2013.1_src/data/scripts/dock_solv.prm

>  <Rbt.Receptor>
prm/pocket_docking_2.prm

>  <SCORE>
-16.71

>  <SCORE.INTER>
-16.6195

>  <SCORE.INTER.CONST>
1

>  <SCORE.INTER.POLAR>
0

>  <SCORE.INTER.ROT>
2

>  <SCORE.INTER.SOLV>
16.4626

>  <SCORE.INTER.VDW>
-21.5005

>  <SCORE.INTER.norm>
-0.874712

>  <SCORE.INTRA>
-0.0904541

>  <SCORE.INTRA.DIHEDRAL>
-0.301119

>  <SCORE.INTRA.DIHEDRAL.0>
1.50031

>  <SCORE.INTRA.POLAR>
0

>  <SCORE.INTRA.POLAR.0>
0

>  <SCORE.INTRA.REPUL>
0

>  <SCORE.INTRA.REPUL.0>
0

>  <SCORE.INTRA.SOLV>
0.011412

>  <SCORE.INTRA.SOLV.lig_0>
-37.9941

>  <SCORE.INTRA.VDW>
0.0543996

>  <SCORE.INTRA.VDW.0>
-0.964461

>  <SCORE.INTRA.norm>
-0.00476074

>  <SCORE.RESTR>
0

>  <SCORE.RESTR.CAVITY>
0

>  <SCORE.RESTR.norm>
0

>  <SCORE.SYSTEM>
0

>  <SCORE.SYSTEM.CONST>
0

>  <SCORE.SYSTEM.DIHEDRAL>
0

>  <SCORE.SYSTEM.SOLV>
0

>  <SCORE.SYSTEM.norm>
0

>  <SCORE.heavy>
19

>  <SCORE.norm>
-0.879473

>  <RMSD>
0.506

$$$$
ligand
 OpenBabel11021811483D
libRbt.so/2013.1/901 2013/11/27
 19 21  0  0  0  0  0  0  0  0999 V2000
   17.5261   28.8371   33.3917 C   0  0  0  0  0  0  0  0  0  0  0  0
   17.9569   27.4727   33.5387 O   0  0  0  0  0  0  0  0  0  0  0  0
   18.3719   29.7831   34.2506 C   0  0  1  0  0  0  0  0  0  0  0  0
   18.3098   29.4027   35.6249 O   0  0  0  0  0  0  0  0  0  0  0  0
   19.8346   29.7547   33.8496 C   0  0  1  0  0  0  0  0  0  0  0  0
   20.3128   31.0993   33.7947 O   0  0  0  0  0  0  0  0  0  0  0  0
   20.5691   29.0179   34.9467 C   0  0  0  0  0  0  0  0  0  0  0  0
   19.5943   28.9797   36.1095 C   0  0  2  0  0  0  0  0  0  0  0  0
   17.5105   26.3109   40.0202 N   0  0  0  0  0  0  0  0  0  0  0  0
   17.4750   27.6343   39.7320 C   0  0  2  0  0  0  0  0  0  0  0  0
   16.8012   28.4847   40.5349 N   0  0  0  0  0  0  0  0  0  0  0  0
   18.1012   28.1392   38.6481 N   0  0  0  0  0  0  0  0  0  0  0  0
   18.7924   27.3492   37.8018 C   0  0  1  0  0  0  0  0  0  0  0  0
   18.8758   25.9957   38.0339 C   0  0  1  0  0  0  0  0  0  0  0  0
   18.1818   25.4515   39.2272 C   0  0  0  0  0  0  0  0  0  0  0  0
   18.2231   24.2300   39.4934 O   0  0  0  0  0  0  0  0  0  0  0  0
   19.6131   25.4566   37.0479 N   0  0  0  0  0  0  0  0  0  0  0  0
   19.9754   26.4684   36.2258 C   0  0  0  0  0  0  0  0  0  0  0  0
   19.4671   27.6188   36.6958 N   0  0  1  0  0  0  0  0  0  0  0  0
  1  2  1  0  0  0  0
  3  1  1  6  0  0  0
  3  4  1  0  0  0  0
  3  5  1  0  0  0  0
  5  6  1  1  0  0  0
  5  7  1  0  0  0  0
  7  8  1  0  0  0  0
  8  4  1  6  0  0  0
  8 19  1  0  0  0  0
  9 15  1  0  0  0  0
  9 10  1  0  0  0  0
 10 11  1  6  0  0  0
 10 12  1  0  0  0  0
 13 12  1  6  0  0  0
 13 14  1  0  0  0  0
 13 19  1  0  0  0  0
 14 15  1  6  0  0  0
 14 17  1  0  0  0  0
 15 16  2  0  0  0  0
 17 18  1  0  0  0  0
 19 18  1  6  0  0  0
M  END
>  <CHROM.1>
-57.74320346,-67.77933466,18.70546367,27.79684689,36.72065167,-1.04422254
-1.17576241,2.62121874

>  <Name>
ligand

>  <RI>
0

>  <Rbt.Current_Directory>
/home/itssahil/PROJECTS/Mol_Feturizer/New_Systems/rnas/3SKL

>  <Rbt.Executable>
rbdock ($Id: //depot/dev/client3/rdock/2013.1/src/exe/rbdock.cxx#4 $)

>  <Rbt.Library>
libRbt.so (2013.1, Build901 2013/11/27)

>  <Rbt.Parameter_File>
/export/apps/rDock/src/rDock_2013.1_src/data/scripts/dock_solv.prm

>  <Rbt.Receptor>
prm/pocket_docking_2.prm

>  <SCORE>
-16.7607

>  <SCORE.INTER>
-16.6582

>  <SCORE.INTER.CONST>
1

>  <SCORE.INTER.POLAR>
0

>  <SCORE.INTER.ROT>
2

>  <SCORE.INTER.SOLV>
16.7824

>  <SCORE.INTER.VDW>
-21.6329

>  <SCORE.INTER.norm>
-0.876745

>  <SCORE.INTRA>
-0.102553

>  <SCORE.INTRA.DIHEDRAL>
-0.289482

>  <SCORE.INTRA.DIHEDRAL.0>
1.50031

>  <SCORE.INTRA.POLAR>
0

>  <SCORE.INTRA.POLAR.0>
0

>  <SCORE.INTRA.REPUL>
0

>  <SCORE.INTRA.REPUL.0>
0

>  <SCORE.INTRA.SOLV>
0.0119368

>  <SCORE.INTRA.SOLV.lig_0>
-37.9941

>  <SCORE.INTRA.VDW>
0.0362199

>  <SCORE.INTRA.VDW.0>
-0.964461

>  <SCORE.INTRA.norm>
-0.00539752

>  <SCORE.RESTR>
0

>  <SCORE.RESTR.CAVITY>
0

>  <SCORE.RESTR.norm>
0

>  <SCORE.SYSTEM>
0

>  <SCORE.SYSTEM.CONST>
0

>  <SCORE.SYSTEM.DIHEDRAL>
0

>  <SCORE.SYSTEM.SOLV>
0

>  <SCORE.SYSTEM.norm>
0

>  <SCORE.heavy>
19

>  <SCORE.norm>
-0.882143

>  <RMSD>
0.516

$$$$
ligand
 OpenBabel11021811483D
libRbt.so/2013.1/901 2013/11/27
 19 21  0  0  0  0  0  0  0  0999 V2000
   17.5778   28.8203   33.3036 C   0  0  0  0  0  0  0  0  0  0  0  0
   18.0241   27.4588   33.4288 O   0  0  0  0  0  0  0  0  0  0  0  0
   18.4160   29.7628   34.1736 C   0  0  1  0  0  0  0  0  0  0  0  0
   18.3577   29.3651   35.5433 O   0  0  0  0  0  0  0  0  0  0  0  0
   19.8787   29.7514   33.7719 C   0  0  1  0  0  0  0  0  0  0  0  0
   20.3457   31.1006   33.7332 O   0  0  0  0  0  0  0  0  0  0  0  0
   20.6198   29.0074   34.8597 C   0  0  0  0  0  0  0  0  0  0  0  0
   19.6457   28.9470   36.0222 C   0  0  2  0  0  0  0  0  0  0  0  0
   17.5420   26.2048   39.8709 N   0  0  0  0  0  0  0  0  0  0  0  0
   17.4908   27.5305   39.5963 C   0  0  2  0  0  0  0  0  0  0  0  0
   16.7917   28.3619   40.3974 N   0  0  0  0  0  0  0  0  0  0  0  0
   18.1262   28.0566   38.5279 N   0  0  0  0  0  0  0  0  0  0  0  0
   18.8425   27.2863   37.6842 C   0  0  1  0  0  0  0  0  0  0  0  0
   18.9428   25.9317   37.9033 C   0  0  1  0  0  0  0  0  0  0  0  0
   18.2386   25.3642   39.0795 C   0  0  0  0  0  0  0  0  0  0  0  0
   18.2942   24.1407   39.3333 O   0  0  0  0  0  0  0  0  0  0  0  0
   19.7035   25.4146   36.9233 N   0  0  0  0  0  0  0  0  0  0  0  0
   20.0632   26.4405   36.1178 C   0  0  0  0  0  0  0  0  0  0  0  0
   19.5301   27.5780   36.5920 N   0  0  1  0  0  0  0  0  0  0  0  0
  1  2  1  0  0  0  0
  3  1  1  6  0  0  0
  3  4  1  0  0  0  0
  3  5  1  0  0  0  0
  5  6  1  1  0  0  0
  5  7  1  0  0  0  0
  7  8  1  0  0  0  0
  8  4  1  6  0  0  0
  8 19  1  0  0  0  0
  9 15  1  0  0  0  0
  9 10  1  0  0  0  0
 10 11  1  6  0  0  0
 10 12  1  0  0  0  0
 13 12  1  6  0  0  0
 13 14  1  0  0  0  0
 13 19  1  0  0  0  0
 14 15  1  6  0  0  0
 14 17  1  0  0  0  0
 15 16  2  0  0  0  0
 17 18  1  0  0  0  0
 19 18  1  6  0  0  0
M  END
>  <CHROM.1>
-58.02292627,-66.77612441,18.75484751,27.74697215,36.61040825,-1.07793038
-1.14692068,2.60133576

>  <Name>
ligand

>  <RI>
0

>  <Rbt.Current_Directory>
/home/itssahil/PROJECTS/Mol_Feturizer/New_Systems/rnas/3SKL

>  <Rbt.Executable>
rbdock ($Id: //depot/dev/client3/rdock/2013.1/src/exe/rbdock.cxx#4 $)

>  <Rbt.Library>
libRbt.so (2013.1, Build901 2013/11/27)

>  <Rbt.Parameter_File>
/export/apps/rDock/src/rDock_2013.1_src/data/scripts/dock_solv.prm

>  <Rbt.Receptor>
prm/pocket_docking_2.prm

>  <SCORE>
-16.6699

>  <SCORE.INTER>
-16.5747

>  <SCORE.INTER.CONST>
1

>  <SCORE.INTER.POLAR>
0

>  <SCORE.INTER.ROT>
2

>  <SCORE.INTER.SOLV>
16.4009

>  <SCORE.INTER.VDW>
-21.4501

>  <SCORE.INTER.norm>
-0.872352

>  <SCORE.INTRA>
-0.095789

>  <SCORE.INTRA.DIHEDRAL>
-0.292635

>  <SCORE.INTRA.DIHEDRAL.0>
1.50031

>  <SCORE.INTRA.POLAR>
0

>  <SCORE.INTRA.POLAR.0>
0

>  <SCORE.INTRA.REPUL>
0

>  <SCORE.INTRA.REPUL.0>
0

>  <SCORE.INTRA.SOLV>
0.0104486

>  <SCORE.INTRA.SOLV.lig_0>
-37.9941

>  <SCORE.INTRA.VDW>
0.0453043

>  <SCORE.INTRA.VDW.0>
-0.964461

>  <SCORE.INTRA.norm>
-0.00504153

>  <SCORE.RESTR>
0.000575041

>  <SCORE.RESTR.CAVITY>
0.000575041

>  <SCORE.RESTR.norm>
3.02653e-05

>  <SCORE.SYSTEM>
0

>  <SCORE.SYSTEM.CONST>
0

>  <SCORE.SYSTEM.DIHEDRAL>
0

>  <SCORE.SYSTEM.SOLV>
0

>  <SCORE.SYSTEM.norm>
0

>  <SCORE.heavy>
19

>  <SCORE.norm>
-0.877363

>  <RMSD>
0.555

$$$$
ligand
 OpenBabel11021811483D
libRbt.so/2013.1/901 2013/11/27
 19 21  0  0  0  0  0  0  0  0999 V2000
   17.6041   28.7869   33.2641 C   0  0  0  0  0  0  0  0  0  0  0  0
   18.0356   27.4244   33.4257 O   0  0  0  0  0  0  0  0  0  0  0  0
   18.4233   29.7379   34.1430 C   0  0  1  0  0  0  0  0  0  0  0  0
   18.3589   29.3365   35.5112 O   0  0  0  0  0  0  0  0  0  0  0  0
   19.8892   29.7459   33.7532 C   0  0  1  0  0  0  0  0  0  0  0  0
   20.3395   31.1009   33.7212 O   0  0  0  0  0  0  0  0  0  0  0  0
   20.6308   29.0088   34.8454 C   0  0  0  0  0  0  0  0  0  0  0  0
   19.6482   28.9335   35.9998 C   0  0  2  0  0  0  0  0  0  0  0  0
   17.7764   26.1999   39.9724 N   0  0  0  0  0  0  0  0  0  0  0  0
   17.7340   27.5289   39.7129 C   0  0  2  0  0  0  0  0  0  0  0  0
   17.1147   28.3673   40.5705 N   0  0  0  0  0  0  0  0  0  0  0  0
   18.2997   28.0516   38.6044 N   0  0  0  0  0  0  0  0  0  0  0  0
   18.9343   27.2744   37.7036 C   0  0  1  0  0  0  0  0  0  0  0  0
   19.0209   25.9160   37.9038 C   0  0  1  0  0  0  0  0  0  0  0  0
   18.3938   25.3523   39.1246 C   0  0  0  0  0  0  0  0  0  0  0  0
   18.4413   24.1255   39.3638 O   0  0  0  0  0  0  0  0  0  0  0  0
   19.6953   25.3922   36.8659 N   0  0  0  0  0  0  0  0  0  0  0  0
   20.0166   26.4179   36.0440 C   0  0  0  0  0  0  0  0  0  0  0  0
   19.5452   27.5619   36.5656 N   0  0  1  0  0  0  0  0  0  0  0  0
  1  2  1  0  0  0  0
  3  1  1  6  0  0  0
  3  4  1  0  0  0  0
  3  5  1  0  0  0  0
  5  6  1  1  0  0  0
  5  7  1  0  0  0  0
  7  8  1  0  0  0  0
  8  4  1  6  0  0  0
  8 19  1  0  0  0  0
  9 15  1  0  0  0  0
  9 10  1  0  0  0  0
 10 11  1  6  0  0  0
 10 12  1  0  0  0  0
 13 12  1  6  0  0  0
 13 14  1  0  0  0  0
 13 19  1  0  0  0  0
 14 15  1  6  0  0  0
 14 17  1  0  0  0  0
 15 16  2  0  0  0  0
 17 18  1  0  0  0  0
 19 18  1  6  0  0  0
M  END
>  <CHROM.1>
-55.98285185,-71.90964338,18.83082935,27.73306587,36.62220789,-1.01093420
-1.25676895,2.67029103

>  <Name>
ligand

>  <RI>
0

>  <Rbt.Current_Directory>
/home/itssahil/PROJECTS/Mol_Feturizer/New_Systems/rnas/3SKL

>  <Rbt.Executable>
rbdock ($Id: //depot/dev/client3/rdock/2013.1/src/exe/rbdock.cxx#4 $)

>  <Rbt.Library>
libRbt.so (2013.1, Build901 2013/11/27)

>  <Rbt.Parameter_File>
/export/apps/rDock/src/rDock_2013.1_src/data/scripts/dock_solv.prm

>  <Rbt.Receptor>
prm/pocket_docking_2.prm

>  <SCORE>
-16.6078

>  <SCORE.INTER>
-16.4816

>  <SCORE.INTER.CONST>
1

>  <SCORE.INTER.POLAR>
0

>  <SCORE.INTER.ROT>
2

>  <SCORE.INTER.SOLV>
15.7156

>  <SCORE.INTER.VDW>
-21.1596

>  <SCORE.INTER.norm>
-0.867454

>  <SCORE.INTRA>
-0.127042

>  <SCORE.INTRA.DIHEDRAL>
-0.253839

>  <SCORE.INTRA.DIHEDRAL.0>
1.50031

>  <SCORE.INTRA.POLAR>
0

>  <SCORE.INTRA.POLAR.0>
0

>  <SCORE.INTRA.REPUL>
0

>  <SCORE.INTRA.REPUL.0>
0

>  <SCORE.INTRA.SOLV>
0.0187494

>  <SCORE.INTRA.SOLV.lig_0>
-37.9941

>  <SCORE.INTRA.VDW>
-0.00949779

>  <SCORE.INTRA.VDW.0>
-0.964461

>  <SCORE.INTRA.norm>
-0.00668644

>  <SCORE.RESTR>
0.000906958

>  <SCORE.RESTR.CAVITY>
0.000906958

>  <SCORE.RESTR.norm>
4.77346e-05

>  <SCORE.SYSTEM>
0

>  <SCORE.SYSTEM.CONST>
0

>  <SCORE.SYSTEM.DIHEDRAL>
0

>  <SCORE.SYSTEM.SOLV>
0

>  <SCORE.SYSTEM.norm>
0

>  <SCORE.heavy>
19

>  <SCORE.norm>
-0.874093

>  <RMSD>
0.559

$$$$
ligand
 OpenBabel11021811483D
libRbt.so/2013.1/901 2013/11/27
 19 21  0  0  0  0  0  0  0  0999 V2000
   17.5303   28.8366   33.3537 C   0  0  0  0  0  0  0  0  0  0  0  0
   17.9791   27.4742   33.4581 O   0  0  0  0  0  0  0  0  0  0  0  0
   18.3845   29.7715   34.2164 C   0  0  1  0  0  0  0  0  0  0  0  0
   18.3406   29.3698   35.5854 O   0  0  0  0  0  0  0  0  0  0  0  0
   19.8421   29.7531   33.7968 C   0  0  1  0  0  0  0  0  0  0  0  0
   20.3163   31.0997   33.7567 O   0  0  0  0  0  0  0  0  0  0  0  0
   20.5921   29.0014   34.8731 C   0  0  0  0  0  0  0  0  0  0  0  0
   19.6320   28.9427   36.0472 C   0  0  2  0  0  0  0  0  0  0  0  0
   17.5562   26.1994   39.9103 N   0  0  0  0  0  0  0  0  0  0  0  0
   17.5090   27.5262   39.6403 C   0  0  2  0  0  0  0  0  0  0  0  0
   16.8230   28.3587   40.4517 N   0  0  0  0  0  0  0  0  0  0  0  0
   18.1353   28.0524   38.5666 N   0  0  0  0  0  0  0  0  0  0  0  0
   18.8383   27.2811   37.7128 C   0  0  1  0  0  0  0  0  0  0  0  0
   18.9340   25.9253   37.9266 C   0  0  1  0  0  0  0  0  0  0  0  0
   18.2398   25.3578   39.1088 C   0  0  0  0  0  0  0  0  0  0  0  0
   18.2919   24.1332   39.3582 O   0  0  0  0  0  0  0  0  0  0  0  0
   19.6813   25.4073   36.9368 N   0  0  0  0  0  0  0  0  0  0  0  0
   20.0374   26.4339   36.1305 C   0  0  0  0  0  0  0  0  0  0  0  0
   19.5155   27.5726   36.6140 N   0  0  1  0  0  0  0  0  0  0  0  0
  1  2  1  0  0  0  0
  3  1  1  6  0  0  0
  3  4  1  0  0  0  0
  3  5  1  0  0  0  0
  5  6  1  1  0  0  0
  5  7  1  0  0  0  0
  7  8  1  0  0  0  0
  8  4  1  6  0  0  0
  8 19  1  0  0  0  0
  9 15  1  0  0  0  0
  9 10  1  0  0  0  0
 10 11  1  6  0  0  0
 10 12  1  0  0  0  0
 13 12  1  6  0  0  0
 13 14  1  0  0  0  0
 13 19  1  0  0  0  0
 14 15  1  6  0  0  0
 14 17  1  0  0  0  0
 15 16  2  0  0  0  0
 17 18  1  0  0  0  0
 19 18  1  6  0  0  0
M  END
>  <CHROM.1>
-58.63351190,-66.69698711,18.74104510,27.74584670,36.64112378,-1.08193485
-1.15874777,2.60055325

>  <Name>
ligand

>  <RI>
0

>  <Rbt.Current_Directory>
/home/itssahil/PROJECTS/Mol_Feturizer/New_Systems/rnas/3SKL

>  <Rbt.Executable>
rbdock ($Id: //depot/dev/client3/rdock/2013.1/src/exe/rbdock.cxx#4 $)

>  <Rbt.Library>
libRbt.so (2013.1, Build901 2013/11/27)

>  <Rbt.Parameter_File>
/export/apps/rDock/src/rDock_2013.1_src/data/scripts/dock_solv.prm

>  <Rbt.Receptor>
prm/pocket_docking_2.prm

>  <SCORE>
-16.7027

>  <SCORE.INTER>
-16.6083

>  <SCORE.INTER.CONST>
1

>  <SCORE.INTER.POLAR>
0

>  <SCORE.INTER.ROT>
2

>  <SCORE.INTER.SOLV>
16.381

>  <SCORE.INTER.VDW>
-21.4659

>  <SCORE.INTER.norm>
-0.874123

>  <SCORE.INTRA>
-0.0943467

>  <SCORE.INTRA.DIHEDRAL>
-0.300096

>  <SCORE.INTRA.DIHEDRAL.0>
1.50031

>  <SCORE.INTRA.POLAR>
0

>  <SCORE.INTRA.POLAR.0>
0

>  <SCORE.INTRA.REPUL>
0

>  <SCORE.INTRA.REPUL.0>
0

>  <SCORE.INTRA.SOLV>
0.00920842

>  <SCORE.INTRA.SOLV.lig_0>
-37.9941

>  <SCORE.INTRA.VDW>
0.0510971

>  <SCORE.INTRA.VDW.0>
-0.964461

>  <SCORE.INTRA.norm>
-0.00496562

>  <SCORE.RESTR>
0

>  <SCORE.RESTR.CAVITY>
0

>  <SCORE.RESTR.norm>
0

>  <SCORE.SYSTEM>
0

>  <SCORE.SYSTEM.CONST>
0

>  <SCORE.SYSTEM.DIHEDRAL>
0

>  <SCORE.SYSTEM.SOLV>
0

>  <SCORE.SYSTEM.norm>
0

>  <SCORE.heavy>
19

>  <SCORE.norm>
-0.879088

>  <RMSD>
0.560

$$$$
ligand
 OpenBabel11021811483D
libRbt.so/2013.1/901 2013/11/27
 19 21  0  0  0  0  0  0  0  0999 V2000
   17.5251   28.8626   33.3696 C   0  0  0  0  0  0  0  0  0  0  0  0
   17.9287   27.4894   33.5112 O   0  0  0  0  0  0  0  0  0  0  0  0
   18.3917   29.7887   34.2295 C   0  0  1  0  0  0  0  0  0  0  0  0
   18.3507   29.3855   35.5981 O   0  0  0  0  0  0  0  0  0  0  0  0
   19.8470   29.7579   33.8029 C   0  0  1  0  0  0  0  0  0  0  0  0
   20.3330   31.1002   33.7622 O   0  0  0  0  0  0  0  0  0  0  0  0
   20.5954   28.9980   34.8746 C   0  0  0  0  0  0  0  0  0  0  0  0
   19.6405   28.9464   36.0532 C   0  0  2  0  0  0  0  0  0  0  0  0
   17.5531   26.2154   39.9188 N   0  0  0  0  0  0  0  0  0  0  0  0
   17.5158   27.5429   39.6504 C   0  0  2  0  0  0  0  0  0  0  0  0
   16.8388   28.3799   40.4646 N   0  0  0  0  0  0  0  0  0  0  0  0
   18.1435   28.0652   38.5757 N   0  0  0  0  0  0  0  0  0  0  0  0
   18.8380   27.2892   37.7191 C   0  0  1  0  0  0  0  0  0  0  0  0
   18.9233   25.9324   37.9310 C   0  0  1  0  0  0  0  0  0  0  0  0
   18.2277   25.3692   39.1145 C   0  0  0  0  0  0  0  0  0  0  0  0
   18.2706   24.1439   39.3623 O   0  0  0  0  0  0  0  0  0  0  0  0
   19.6637   25.4096   36.9386 N   0  0  0  0  0  0  0  0  0  0  0  0
   20.0259   26.4342   36.1326 C   0  0  0  0  0  0  0  0  0  0  0  0
   19.5145   27.5766   36.6188 N   0  0  1  0  0  0  0  0  0  0  0  0
  1  2  1  0  0  0  0
  3  1  1  6  0  0  0
  3  4  1  0  0  0  0
  3  5  1  0  0  0  0
  5  6  1  1  0  0  0
  5  7  1  0  0  0  0
  7  8  1  0  0  0  0
  8  4  1  6  0  0  0
  8 19  1  0  0  0  0
  9 15  1  0  0  0  0
  9 10  1  0  0  0  0
 10 11  1  6  0  0  0
 10 12  1  0  0  0  0
 13 12  1  6  0  0  0
 13 14  1  0  0  0  0
 13 19  1  0  0  0  0
 14 15  1  6  0  0  0
 14 17  1  0  0  0  0
 15 16  2  0  0  0  0
 17 18  1  0  0  0  0
 19 18  1  6  0  0  0
M  END
>  <CHROM.1>
-56.34833477,-66.56719124,18.73807450,27.75594333,36.65123193,-1.07303807
-1.16250044,2.61083647

>  <Name>
ligand

>  <RI>
0

>  <Rbt.Current_Directory>
/home/itssahil/PROJECTS/Mol_Feturizer/New_Systems/rnas/3SKL

>  <Rbt.Executable>
rbdock ($Id: //depot/dev/client3/rdock/2013.1/src/exe/rbdock.cxx#4 $)

>  <Rbt.Library>
libRbt.so (2013.1, Build901 2013/11/27)

>  <Rbt.Parameter_File>
/export/apps/rDock/src/rDock_2013.1_src/data/scripts/dock_solv.prm

>  <Rbt.Receptor>
prm/pocket_docking_2.prm

>  <SCORE>
-16.7005

>  <SCORE.INTER>
-16.612

>  <SCORE.INTER.CONST>
1

>  <SCORE.INTER.POLAR>
0

>  <SCORE.INTER.ROT>
2

>  <SCORE.INTER.SOLV>
16.4157

>  <SCORE.INTER.VDW>
-21.4799

>  <SCORE.INTER.norm>
-0.874314

>  <SCORE.INTRA>
-0.0887382

>  <SCORE.INTRA.DIHEDRAL>
-0.257929

>  <SCORE.INTRA.DIHEDRAL.0>
1.50031

>  <SCORE.INTRA.POLAR>
0

>  <SCORE.INTRA.POLAR.0>
0

>  <SCORE.INTRA.REPUL>
0

>  <SCORE.INTRA.REPUL.0>
0

>  <SCORE.INTRA.SOLV>
0.0130977

>  <SCORE.INTRA.SOLV.lig_0>
-37.9941

>  <SCORE.INTRA.VDW>
0.0336773

>  <SCORE.INTRA.VDW.0>
-0.964461

>  <SCORE.INTRA.norm>
-0.00467043

>  <SCORE.RESTR>
0.000233577

>  <SCORE.RESTR.CAVITY>
0.000233577

>  <SCORE.RESTR.norm>
1.22935e-05

>  <SCORE.SYSTEM>
0

>  <SCORE.SYSTEM.CONST>
0

>  <SCORE.SYSTEM.DIHEDRAL>
0

>  <SCORE.SYSTEM.SOLV>
0

>  <SCORE.SYSTEM.norm>
0

>  <SCORE.heavy>
19

>  <SCORE.norm>
-0.878972

>  <RMSD>
0.567

$$$$
ligand
 OpenBabel11021811483D
libRbt.so/2013.1/901 2013/11/27
 19 21  0  0  0  0  0  0  0  0999 V2000
   17.5524   28.8339   33.3537 C   0  0  0  0  0  0  0  0  0  0  0  0
   17.9839   27.4678   33.4815 O   0  0  0  0  0  0  0  0  0  0  0  0
   18.4120   29.7711   34.2085 C   0  0  1  0  0  0  0  0  0  0  0  0
   18.3777   29.3724   35.5786 O   0  0  0  0  0  0  0  0  0  0  0  0
   19.8666   29.7528   33.7788 C   0  0  1  0  0  0  0  0  0  0  0  0
   20.3397   31.0996   33.7325 O   0  0  0  0  0  0  0  0  0  0  0  0
   20.6245   29.0038   34.8516 C   0  0  0  0  0  0  0  0  0  0  0  0
   19.6726   28.9471   36.0324 C   0  0  2  0  0  0  0  0  0  0  0  0
   17.6643   26.2184   39.9412 N   0  0  0  0  0  0  0  0  0  0  0  0
   17.6184   27.5452   39.6709 C   0  0  2  0  0  0  0  0  0  0  0  0
   16.9541   28.3820   40.4957 N   0  0  0  0  0  0  0  0  0  0  0  0
   18.2247   28.0670   38.5837 N   0  0  0  0  0  0  0  0  0  0  0  0
   18.9055   27.2912   37.7161 C   0  0  1  0  0  0  0  0  0  0  0  0
   18.9985   25.9351   37.9292 C   0  0  1  0  0  0  0  0  0  0  0  0
   18.3264   25.3724   39.1263 C   0  0  0  0  0  0  0  0  0  0  0  0
   18.3772   24.1477   39.3758 O   0  0  0  0  0  0  0  0  0  0  0  0
   19.7220   25.4123   36.9244 N   0  0  0  0  0  0  0  0  0  0  0  0
   20.0664   26.4362   36.1097 C   0  0  0  0  0  0  0  0  0  0  0  0
   19.5608   27.5781   36.6030 N   0  0  1  0  0  0  0  0  0  0  0  0
  1  2  1  0  0  0  0
  3  1  1  6  0  0  0
  3  4  1  0  0  0  0
  3  5  1  0  0  0  0
  5  6  1  1  0  0  0
  5  7  1  0  0  0  0
  7  8  1  0  0  0  0
  8  4  1  6  0  0  0
  8 19  1  0  0  0  0
  9 15  1  0  0  0  0
  9 10  1  0  0  0  0
 10 11  1  6  0  0  0
 10 12  1  0  0  0  0
 13 12  1  6  0  0  0
 13 14  1  0  0  0  0
 13 19  1  0  0  0  0
 14 15  1  6  0  0  0
 14 17  1  0  0  0  0
 15 16  2  0  0  0  0
 17 18  1  0  0  0  0
 19 18  1  6  0  0  0
M  END
>  <CHROM.1>
-57.32490904,-67.58038491,18.79645241,27.75284745,36.64375370,-1.08066060
-1.18576739,2.60082074

>  <Name>
ligand

>  <RI>
0

>  <Rbt.Current_Directory>
/home/itssahil/PROJECTS/Mol_Feturizer/New_Systems/rnas/3SKL

>  <Rbt.Executable>
rbdock ($Id: //depot/dev/client3/rdock/2013.1/src/exe/rbdock.cxx#4 $)

>  <Rbt.Library>
libRbt.so (2013.1, Build901 2013/11/27)

>  <Rbt.Parameter_File>
/export/apps/rDock/src/rDock_2013.1_src/data/scripts/dock_solv.prm

>  <Rbt.Receptor>
prm/pocket_docking_2.prm

>  <SCORE>
-16.7099

>  <SCORE.INTER>
-16.6095

>  <SCORE.INTER.CONST>
1

>  <SCORE.INTER.POLAR>
0

>  <SCORE.INTER.ROT>
2

>  <SCORE.INTER.SOLV>
16.0907

>  <SCORE.INTER.VDW>
-21.3699

>  <SCORE.INTER.norm>
-0.874186

>  <SCORE.INTRA>
-0.100349

>  <SCORE.INTRA.DIHEDRAL>
-0.281681

>  <SCORE.INTRA.DIHEDRAL.0>
1.50031

>  <SCORE.INTRA.POLAR>
0

>  <SCORE.INTRA.POLAR.0>
0

>  <SCORE.INTRA.REPUL>
0

>  <SCORE.INTRA.REPUL.0>
0

>  <SCORE.INTRA.SOLV>
0.0124842

>  <SCORE.INTRA.SOLV.lig_0>
-37.9941

>  <SCORE.INTRA.VDW>
0.0342491

>  <SCORE.INTRA.VDW.0>
-0.964461

>  <SCORE.INTRA.norm>
-0.00528153

>  <SCORE.RESTR>
0

>  <SCORE.RESTR.CAVITY>
0

>  <SCORE.RESTR.norm>
0

>  <SCORE.SYSTEM>
0

>  <SCORE.SYSTEM.CONST>
0

>  <SCORE.SYSTEM.DIHEDRAL>
0

>  <SCORE.SYSTEM.SOLV>
0

>  <SCORE.SYSTEM.norm>
0

>  <SCORE.heavy>
19

>  <SCORE.norm>
-0.879467

>  <RMSD>
0.568

$$$$
ligand
 OpenBabel11021811483D
libRbt.so/2013.1/901 2013/11/27
 19 21  0  0  0  0  0  0  0  0999 V2000
   17.5540   28.8738   33.3799 C   0  0  0  0  0  0  0  0  0  0  0  0
   17.9688   27.5009   33.4879 O   0  0  0  0  0  0  0  0  0  0  0  0
   18.4262   29.7883   34.2465 C   0  0  1  0  0  0  0  0  0  0  0  0
   18.3825   29.3755   35.6122 O   0  0  0  0  0  0  0  0  0  0  0  0
   19.8814   29.7516   33.8199 C   0  0  1  0  0  0  0  0  0  0  0  0
   20.3757   31.0912   33.7889 O   0  0  0  0  0  0  0  0  0  0  0  0
   20.6249   28.9794   34.8861 C   0  0  0  0  0  0  0  0  0  0  0  0
   19.6695   28.9252   36.0643 C   0  0  2  0  0  0  0  0  0  0  0  0
   17.6023   26.1857   39.9347 N   0  0  0  0  0  0  0  0  0  0  0  0
   17.5770   27.5158   39.6781 C   0  0  2  0  0  0  0  0  0  0  0  0
   16.9210   28.3537   40.5083 N   0  0  0  0  0  0  0  0  0  0  0  0
   18.1963   28.0399   38.5993 N   0  0  0  0  0  0  0  0  0  0  0  0
   18.8700   27.2633   37.7269 C   0  0  1  0  0  0  0  0  0  0  0  0
   18.9421   25.9038   37.9262 C   0  0  1  0  0  0  0  0  0  0  0  0
   18.2559   25.3386   39.1142 C   0  0  0  0  0  0  0  0  0  0  0  0
   18.2876   24.1109   39.3511 O   0  0  0  0  0  0  0  0  0  0  0  0
   19.6628   25.3809   36.9195 N   0  0  0  0  0  0  0  0  0  0  0  0
   20.0262   26.4081   36.1172 C   0  0  0  0  0  0  0  0  0  0  0  0
   19.5349   27.5521   36.6199 N   0  0  1  0  0  0  0  0  0  0  0  0
  1  2  1  0  0  0  0
  3  1  1  6  0  0  0
  3  4  1  0  0  0  0
  3  5  1  0  0  0  0
  5  6  1  1  0  0  0
  5  7  1  0  0  0  0
  7  8  1  0  0  0  0
  8  4  1  6  0  0  0
  8 19  1  0  0  0  0
  9 15  1  0  0  0  0
  9 10  1  0  0  0  0
 10 11  1  6  0  0  0
 10 12  1  0  0  0  0
 13 12  1  6  0  0  0
 13 14  1  0  0  0  0
 13 19  1  0  0  0  0
 14 15  1  6  0  0  0
 14 17  1  0  0  0  0
 15 16  2  0  0  0  0
 17 18  1  0  0  0  0
 19 18  1  6  0  0  0
M  END
>  <CHROM.1>
-57.67489264,-67.41594629,18.77153608,27.73811234,36.65922915,-1.04361659
-1.18772902,2.64552952

>  <Name>
ligand

>  <RI>
0

>  <Rbt.Current_Directory>
/home/itssahil/PROJECTS/Mol_Feturizer/New_Systems/rnas/3SKL

>  <Rbt.Executable>
rbdock ($Id: //depot/dev/client3/rdock/2013.1/src/exe/rbdock.cxx#4 $)

>  <Rbt.Library>
libRbt.so (2013.1, Build901 2013/11/27)

>  <Rbt.Parameter_File>
/export/apps/rDock/src/rDock_2013.1_src/data/scripts/dock_solv.prm

>  <Rbt.Receptor>
prm/pocket_docking_2.prm

>  <SCORE>
-16.7066

>  <SCORE.INTER>
-16.6067

>  <SCORE.INTER.CONST>
1

>  <SCORE.INTER.POLAR>
0

>  <SCORE.INTER.ROT>
2

>  <SCORE.INTER.SOLV>
16.1783

>  <SCORE.INTER.VDW>
-21.3972

>  <SCORE.INTER.norm>
-0.874035

>  <SCORE.INTRA>
-0.0999276

>  <SCORE.INTRA.DIHEDRAL>
-0.287899

>  <SCORE.INTRA.DIHEDRAL.0>
1.50031

>  <SCORE.INTRA.POLAR>
0

>  <SCORE.INTRA.POLAR.0>
0

>  <SCORE.INTRA.REPUL>
0

>  <SCORE.INTRA.REPUL.0>
0

>  <SCORE.INTRA.SOLV>
0.0117073

>  <SCORE.INTRA.SOLV.lig_0>
-37.9941

>  <SCORE.INTRA.VDW>
0.0381684

>  <SCORE.INTRA.VDW.0>
-0.964461

>  <SCORE.INTRA.norm>
-0.00525935

>  <SCORE.RESTR>
0

>  <SCORE.RESTR.CAVITY>
0

>  <SCORE.RESTR.norm>
0

>  <SCORE.SYSTEM>
0

>  <SCORE.SYSTEM.CONST>
0

>  <SCORE.SYSTEM.DIHEDRAL>
0

>  <SCORE.SYSTEM.SOLV>
0

>  <SCORE.SYSTEM.norm>
0

>  <SCORE.heavy>
19

>  <SCORE.norm>
-0.879294

>  <RMSD>
0.585

$$$$
ligand
 OpenBabel11021811483D
libRbt.so/2013.1/901 2013/11/27
 19 21  0  0  0  0  0  0  0  0999 V2000
   17.5467   28.8815   33.3809 C   0  0  0  0  0  0  0  0  0  0  0  0
   17.9692   27.5103   33.4813 O   0  0  0  0  0  0  0  0  0  0  0  0
   18.4342   29.8005   34.2269 C   0  0  1  0  0  0  0  0  0  0  0  0
   18.4134   29.3961   35.5956 O   0  0  0  0  0  0  0  0  0  0  0  0
   19.8818   29.7599   33.7758 C   0  0  1  0  0  0  0  0  0  0  0  0
   20.3765   31.0989   33.7283 O   0  0  0  0  0  0  0  0  0  0  0  0
   20.6428   28.9937   34.8340 C   0  0  0  0  0  0  0  0  0  0  0  0
   19.7075   28.9475   36.0285 C   0  0  2  0  0  0  0  0  0  0  0  0
   17.6882   26.2308   39.9401 N   0  0  0  0  0  0  0  0  0  0  0  0
   17.6579   27.5591   39.6749 C   0  0  2  0  0  0  0  0  0  0  0  0
   17.0099   28.4015   40.5068 N   0  0  0  0  0  0  0  0  0  0  0  0
   18.2642   28.0769   38.5858 N   0  0  0  0  0  0  0  0  0  0  0  0
   18.9293   27.2955   37.7110 C   0  0  1  0  0  0  0  0  0  0  0  0
   19.0058   25.9375   37.9186 C   0  0  1  0  0  0  0  0  0  0  0  0
   18.3339   25.3792   39.1179 C   0  0  0  0  0  0  0  0  0  0  0  0
   18.3703   24.1531   39.3627 O   0  0  0  0  0  0  0  0  0  0  0  0
   19.7161   25.4090   36.9074 N   0  0  0  0  0  0  0  0  0  0  0  0
   20.0688   26.4314   36.0943 C   0  0  0  0  0  0  0  0  0  0  0  0
   19.5814   27.5780   36.5948 N   0  0  1  0  0  0  0  0  0  0  0  0
  1  2  1  0  0  0  0
  3  1  1  6  0  0  0
  3  4  1  0  0  0  0
  3  5  1  0  0  0  0
  5  6  1  1  0  0  0
  5  7  1  0  0  0  0
  7  8  1  0  0  0  0
  8  4  1  6  0  0  0
  8 19  1  0  0  0  0
  9 15  1  0  0  0  0
  9 10  1  0  0  0  0
 10 11  1  6  0  0  0
 10 12  1  0  0  0  0
 13 12  1  6  0  0  0
 13 14  1  0  0  0  0
 13 19  1  0  0  0  0
 14 15  1  6  0  0  0
 14 17  1  0  0  0  0
 15 16  2  0  0  0  0
 17 18  1  0  0  0  0
 19 18  1  6  0  0  0
M  END
>  <CHROM.1>
-58.16162689,-67.05668042,18.81473763,27.76415190,36.64246688,-1.06978225
-1.19424804,2.61456814

>  <Name>
ligand

>  <RI>
0

>  <Rbt.Current_Directory>
/home/itssahil/PROJECTS/Mol_Feturizer/New_Systems/rnas/3SKL

>  <Rbt.Executable>
rbdock ($Id: //depot/dev/client3/rdock/2013.1/src/exe/rbdock.cxx#4 $)

>  <Rbt.Library>
libRbt.so (2013.1, Build901 2013/11/27)

>  <Rbt.Parameter_File>
/export/apps/rDock/src/rDock_2013.1_src/data/scripts/dock_solv.prm

>  <Rbt.Receptor>
prm/pocket_docking_2.prm

>  <SCORE>
-16.708

>  <SCORE.INTER>
-16.6104

>  <SCORE.INTER.CONST>
1

>  <SCORE.INTER.POLAR>
0

>  <SCORE.INTER.ROT>
2

>  <SCORE.INTER.SOLV>
16.0426

>  <SCORE.INTER.VDW>
-21.3545

>  <SCORE.INTER.norm>
-0.874234

>  <SCORE.INTRA>
-0.0975991

>  <SCORE.INTRA.DIHEDRAL>
-0.294927

>  <SCORE.INTRA.DIHEDRAL.0>
1.50031

>  <SCORE.INTRA.POLAR>
0

>  <SCORE.INTRA.POLAR.0>
0

>  <SCORE.INTRA.REPUL>
0

>  <SCORE.INTRA.REPUL.0>
0

>  <SCORE.INTRA.SOLV>
0.0104643

>  <SCORE.INTRA.SOLV.lig_0>
-37.9941

>  <SCORE.INTRA.VDW>
0.0446323

>  <SCORE.INTRA.VDW.0>
-0.964461

>  <SCORE.INTRA.norm>
-0.00513679

>  <SCORE.RESTR>
0

>  <SCORE.RESTR.CAVITY>
0

>  <SCORE.RESTR.norm>
0

>  <SCORE.SYSTEM>
0

>  <SCORE.SYSTEM.CONST>
0

>  <SCORE.SYSTEM.DIHEDRAL>
0

>  <SCORE.SYSTEM.SOLV>
0

>  <SCORE.SYSTEM.norm>
0

>  <SCORE.heavy>
19

>  <SCORE.norm>
-0.879371

>  <RMSD>
0.588

$$$$
ligand
 OpenBabel11021811483D
libRbt.so/2013.1/901 2013/11/27
 19 21  0  0  0  0  0  0  0  0999 V2000
   17.7792   28.9528   33.2303 C   0  0  0  0  0  0  0  0  0  0  0  0
   18.3302   27.6304   33.3586 O   0  0  0  0  0  0  0  0  0  0  0  0
   18.4296   29.9249   34.2202 C   0  0  1  0  0  0  0  0  0  0  0  0
   18.2671   29.4595   35.5598 O   0  0  0  0  0  0  0  0  0  0  0  0
   19.9206   30.0643   33.9784 C   0  0  1  0  0  0  0  0  0  0  0  0
   20.2593   31.4504   34.0406 O   0  0  0  0  0  0  0  0  0  0  0  0
   20.6117   29.3397   35.1112 C   0  0  0  0  0  0  0  0  0  0  0  0
   19.5322   29.1370   36.1589 C   0  0  2  0  0  0  0  0  0  0  0  0
   17.6862   26.1294   39.9410 N   0  0  0  0  0  0  0  0  0  0  0  0
   17.5775   27.4645   39.7374 C   0  0  2  0  0  0  0  0  0  0  0  0
   16.8835   28.2282   40.6074 N   0  0  0  0  0  0  0  0  0  0  0  0
   18.1494   28.0666   38.6733 N   0  0  0  0  0  0  0  0  0  0  0  0
   18.8567   27.3666   37.7634 C   0  0  1  0  0  0  0  0  0  0  0  0
   19.0132   26.0073   37.9082 C   0  0  1  0  0  0  0  0  0  0  0  0
   18.3785   25.3560   39.0805 C   0  0  0  0  0  0  0  0  0  0  0  0
   18.4872   24.1241   39.2684 O   0  0  0  0  0  0  0  0  0  0  0  0
   19.7504   25.5684   36.8736 N   0  0  0  0  0  0  0  0  0  0  0  0
   20.0405   26.6460   36.1085 C   0  0  0  0  0  0  0  0  0  0  0  0
   19.4881   27.7379   36.6614 N   0  0  1  0  0  0  0  0  0  0  0  0
  1  2  1  0  0  0  0
  3  1  1  6  0  0  0
  3  4  1  0  0  0  0
  3  5  1  0  0  0  0
  5  6  1  1  0  0  0
  5  7  1  0  0  0  0
  7  8  1  0  0  0  0
  8  4  1  6  0  0  0
  8 19  1  0  0  0  0
  9 15  1  0  0  0  0
  9 10  1  0  0  0  0
 10 11  1  6  0  0  0
 10 12  1  0  0  0  0
 13 12  1  6  0  0  0
 13 14  1  0  0  0  0
 13 19  1  0  0  0  0
 14 15  1  6  0  0  0
 14 17  1  0  0  0  0
 15 16  2  0  0  0  0
 17 18  1  0  0  0  0
 19 18  1  6  0  0  0
M  END
>  <CHROM.1>
-57.61008954,-75.79813028,18.80950432,27.86112851,36.68481403,-1.02882112
-1.21864340,2.69320147

>  <Name>
ligand

>  <RI>
0

>  <Rbt.Current_Directory>
/home/itssahil/PROJECTS/Mol_Feturizer/New_Systems/rnas/3SKL

>  <Rbt.Executable>
rbdock ($Id: //depot/dev/client3/rdock/2013.1/src/exe/rbdock.cxx#4 $)

>  <Rbt.Library>
libRbt.so (2013.1, Build901 2013/11/27)

>  <Rbt.Parameter_File>
/export/apps/rDock/src/rDock_2013.1_src/data/scripts/dock_solv.prm

>  <Rbt.Receptor>
prm/pocket_docking_3.prm

>  <SCORE>
-17.0061

>  <SCORE.INTER>
-16.8511

>  <SCORE.INTER.CONST>
1

>  <SCORE.INTER.POLAR>
0

>  <SCORE.INTER.ROT>
2

>  <SCORE.INTER.SOLV>
16.4685

>  <SCORE.INTER.VDW>
-21.6569

>  <SCORE.INTER.norm>
-0.886902

>  <SCORE.INTRA>
-0.155006

>  <SCORE.INTRA.DIHEDRAL>
-0.295558

>  <SCORE.INTRA.DIHEDRAL.0>
1.50031

>  <SCORE.INTRA.POLAR>
0

>  <SCORE.INTRA.POLAR.0>
0

>  <SCORE.INTRA.REPUL>
0

>  <SCORE.INTRA.REPUL.0>
0

>  <SCORE.INTRA.SOLV>
0.0194528

>  <SCORE.INTRA.SOLV.lig_0>
-37.9941

>  <SCORE.INTRA.VDW>
-0.0169529

>  <SCORE.INTRA.VDW.0>
-0.964461

>  <SCORE.INTRA.norm>
-0.00815819

>  <SCORE.RESTR>
0

>  <SCORE.RESTR.CAVITY>
0

>  <SCORE.RESTR.norm>
0

>  <SCORE.SYSTEM>
0

>  <SCORE.SYSTEM.CONST>
0

>  <SCORE.SYSTEM.DIHEDRAL>
0

>  <SCORE.SYSTEM.SOLV>
0

>  <SCORE.SYSTEM.norm>
0

>  <SCORE.heavy>
19

>  <SCORE.norm>
-0.89506

>  <RMSD>
0.603

$$$$
ligand
 OpenBabel11021811483D
libRbt.so/2013.1/901 2013/11/27
 19 21  0  0  0  0  0  0  0  0999 V2000
   17.6639   28.9562   33.3264 C   0  0  0  0  0  0  0  0  0  0  0  0
   18.1764   27.6205   33.4743 O   0  0  0  0  0  0  0  0  0  0  0  0
   18.3533   29.9266   34.2912 C   0  0  1  0  0  0  0  0  0  0  0  0
   18.2277   29.4689   35.6374 O   0  0  0  0  0  0  0  0  0  0  0  0
   19.8374   30.0510   34.0032 C   0  0  1  0  0  0  0  0  0  0  0  0
   20.1906   31.4341   34.0483 O   0  0  0  0  0  0  0  0  0  0  0  0
   20.5561   29.3250   35.1178 C   0  0  0  0  0  0  0  0  0  0  0  0
   19.5075   29.1372   36.1990 C   0  0  2  0  0  0  0  0  0  0  0  0
   17.6076   26.1350   39.9586 N   0  0  0  0  0  0  0  0  0  0  0  0
   17.4905   27.4676   39.7441 C   0  0  2  0  0  0  0  0  0  0  0  0
   16.7700   28.2298   40.5937 N   0  0  0  0  0  0  0  0  0  0  0  0
   18.0799   28.0687   38.6891 N   0  0  0  0  0  0  0  0  0  0  0  0
   18.8139   27.3702   37.7995 C   0  0  1  0  0  0  0  0  0  0  0  0
   18.9804   26.0134   37.9563 C   0  0  1  0  0  0  0  0  0  0  0  0
   18.3262   25.3631   39.1185 C   0  0  0  0  0  0  0  0  0  0  0  0
   18.4427   24.1336   39.3167 O   0  0  0  0  0  0  0  0  0  0  0  0
   19.7445   25.5755   36.9411 N   0  0  0  0  0  0  0  0  0  0  0  0
   20.0409   26.6511   36.1757 C   0  0  0  0  0  0  0  0  0  0  0  0
   19.4659   27.7408   36.7093 N   0  0  1  0  0  0  0  0  0  0  0  0
  1  2  1  0  0  0  0
  3  1  1  6  0  0  0
  3  4  1  0  0  0  0
  3  5  1  0  0  0  0
  5  6  1  1  0  0  0
  5  7  1  0  0  0  0
  7  8  1  0  0  0  0
  8  4  1  6  0  0  0
  8 19  1  0  0  0  0
  9 15  1  0  0  0  0
  9 10  1  0  0  0  0
 10 11  1  6  0  0  0
 10 12  1  0  0  0  0
 13 12  1  6  0  0  0
 13 14  1  0  0  0  0
 13 19  1  0  0  0  0
 14 15  1  6  0  0  0
 14 17  1  0  0  0  0
 15 16  2  0  0  0  0
 17 18  1  0  0  0  0
 19 18  1  6  0  0  0
M  END
>  <CHROM.1>
-55.75729516,-72.58123317,18.74697964,27.86169642,36.72864411,-1.08861972
-1.17963270,2.63410507

>  <Name>
ligand

>  <RI>
0

>  <Rbt.Current_Directory>
/home/itssahil/PROJECTS/Mol_Feturizer/New_Systems/rnas/3SKL

>  <Rbt.Executable>
rbdock ($Id: //depot/dev/client3/rdock/2013.1/src/exe/rbdock.cxx#4 $)

>  <Rbt.Library>
libRbt.so (2013.1, Build901 2013/11/27)

>  <Rbt.Parameter_File>
/export/apps/rDock/src/rDock_2013.1_src/data/scripts/dock_solv.prm

>  <Rbt.Receptor>
prm/pocket_docking_3.prm

>  <SCORE>
-17.1458

>  <SCORE.INTER>
-17.0148

>  <SCORE.INTER.CONST>
1

>  <SCORE.INTER.POLAR>
0

>  <SCORE.INTER.ROT>
2

>  <SCORE.INTER.SOLV>
16.8654

>  <SCORE.INTER.VDW>
-21.8984

>  <SCORE.INTER.norm>
-0.895517

>  <SCORE.INTRA>
-0.131009

>  <SCORE.INTRA.DIHEDRAL>
-0.247779

>  <SCORE.INTRA.DIHEDRAL.0>
1.50031

>  <SCORE.INTRA.POLAR>
0

>  <SCORE.INTRA.POLAR.0>
0

>  <SCORE.INTRA.REPUL>
0

>  <SCORE.INTRA.REPUL.0>
0

>  <SCORE.INTRA.SOLV>
0.0196989

>  <SCORE.INTRA.SOLV.lig_0>
-37.9941

>  <SCORE.INTRA.VDW>
-0.0169688

>  <SCORE.INTRA.VDW.0>
-0.964461

>  <SCORE.INTRA.norm>
-0.0068952

>  <SCORE.RESTR>
0

>  <SCORE.RESTR.CAVITY>
0

>  <SCORE.RESTR.norm>
0

>  <SCORE.SYSTEM>
0

>  <SCORE.SYSTEM.CONST>
0

>  <SCORE.SYSTEM.DIHEDRAL>
0

>  <SCORE.SYSTEM.SOLV>
0

>  <SCORE.SYSTEM.norm>
0

>  <SCORE.heavy>
19

>  <SCORE.norm>
-0.902413

>  <RMSD>
0.605

$$$$
ligand
 OpenBabel11021811483D
libRbt.so/2013.1/901 2013/11/27
 19 21  0  0  0  0  0  0  0  0999 V2000
   17.7086   28.9797   33.3014 C   0  0  0  0  0  0  0  0  0  0  0  0
   18.2387   27.6486   33.4278 O   0  0  0  0  0  0  0  0  0  0  0  0
   18.3892   29.9445   34.2780 C   0  0  1  0  0  0  0  0  0  0  0  0
   18.2485   29.4808   35.6206 O   0  0  0  0  0  0  0  0  0  0  0  0
   19.8764   30.0679   34.0064 C   0  0  1  0  0  0  0  0  0  0  0  0
   20.2314   31.4502   34.0617 O   0  0  0  0  0  0  0  0  0  0  0  0
   20.5821   29.3356   35.1252 C   0  0  0  0  0  0  0  0  0  0  0  0
   19.5218   29.1445   36.1943 C   0  0  2  0  0  0  0  0  0  0  0  0
   17.5833   26.1295   39.9239 N   0  0  0  0  0  0  0  0  0  0  0  0
   17.4712   27.4633   39.7146 C   0  0  2  0  0  0  0  0  0  0  0  0
   16.7455   28.2233   40.5617 N   0  0  0  0  0  0  0  0  0  0  0  0
   18.0708   28.0679   38.6673 N   0  0  0  0  0  0  0  0  0  0  0  0
   18.8106   27.3717   37.7807 C   0  0  1  0  0  0  0  0  0  0  0  0
   18.9725   26.0139   37.9325 C   0  0  1  0  0  0  0  0  0  0  0  0
   18.3071   25.3597   39.0861 C   0  0  0  0  0  0  0  0  0  0  0  0
   18.4190   24.1290   39.2795 O   0  0  0  0  0  0  0  0  0  0  0  0
   19.7440   25.5788   36.9217 N   0  0  0  0  0  0  0  0  0  0  0  0
   20.0494   26.6573   36.1638 C   0  0  0  0  0  0  0  0  0  0  0  0
   19.4725   27.7459   36.6977 N   0  0  1  0  0  0  0  0  0  0  0  0
  1  2  1  0  0  0  0
  3  1  1  6  0  0  0
  3  4  1  0  0  0  0
  3  5  1  0  0  0  0
  5  6  1  1  0  0  0
  5  7  1  0  0  0  0
  7  8  1  0  0  0  0
  8  4  1  6  0  0  0
  8 19  1  0  0  0  0
  9 15  1  0  0  0  0
  9 10  1  0  0  0  0
 10 11  1  6  0  0  0
 10 12  1  0  0  0  0
 13 12  1  6  0  0  0
 13 14  1  0  0  0  0
 13 19  1  0  0  0  0
 14 15  1  6  0  0  0
 14 17  1  0  0  0  0
 15 16  2  0  0  0  0
 17 18  1  0  0  0  0
 19 18  1  6  0  0  0
M  END
>  <CHROM.1>
-57.05123611,-72.72413818,18.75667864,27.86857502,36.70985362,-1.06951004
-1.17420946,2.65567996

>  <Name>
ligand

>  <RI>
0

>  <Rbt.Current_Directory>
/home/itssahil/PROJECTS/Mol_Feturizer/New_Systems/rnas/3SKL

>  <Rbt.Executable>
rbdock ($Id: //depot/dev/client3/rdock/2013.1/src/exe/rbdock.cxx#4 $)

>  <Rbt.Library>
libRbt.so (2013.1, Build901 2013/11/27)

>  <Rbt.Parameter_File>
/export/apps/rDock/src/rDock_2013.1_src/data/scripts/dock_solv.prm

>  <Rbt.Receptor>
prm/pocket_docking_3.prm

>  <SCORE>
-17.1313

>  <SCORE.INTER>
-17.0084

>  <SCORE.INTER.CONST>
1

>  <SCORE.INTER.POLAR>
0

>  <SCORE.INTER.ROT>
2

>  <SCORE.INTER.SOLV>
16.9179

>  <SCORE.INTER.VDW>
-21.9116

>  <SCORE.INTER.norm>
-0.895181

>  <SCORE.INTRA>
-0.122849

>  <SCORE.INTRA.DIHEDRAL>
-0.281753

>  <SCORE.INTRA.DIHEDRAL.0>
1.50031

>  <SCORE.INTRA.POLAR>
0

>  <SCORE.INTRA.POLAR.0>
0

>  <SCORE.INTRA.REPUL>
0

>  <SCORE.INTRA.REPUL.0>
0

>  <SCORE.INTRA.SOLV>
0.0177637

>  <SCORE.INTRA.SOLV.lig_0>
-37.9941

>  <SCORE.INTRA.VDW>
0.00914544

>  <SCORE.INTRA.VDW.0>
-0.964461

>  <SCORE.INTRA.norm>
-0.00646574

>  <SCORE.RESTR>
0

>  <SCORE.RESTR.CAVITY>
0

>  <SCORE.RESTR.norm>
0

>  <SCORE.SYSTEM>
0

>  <SCORE.SYSTEM.CONST>
0

>  <SCORE.SYSTEM.DIHEDRAL>
0

>  <SCORE.SYSTEM.SOLV>
0

>  <SCORE.SYSTEM.norm>
0

>  <SCORE.heavy>
19

>  <SCORE.norm>
-0.901647

>  <RMSD>
0.613

$$$$
ligand
 OpenBabel11021811483D
libRbt.so/2013.1/901 2013/11/27
 19 21  0  0  0  0  0  0  0  0999 V2000
   17.5516   28.8632   33.3739 C   0  0  0  0  0  0  0  0  0  0  0  0
   17.9628   27.4898   33.4887 O   0  0  0  0  0  0  0  0  0  0  0  0
   18.4374   29.7820   34.2220 C   0  0  1  0  0  0  0  0  0  0  0  0
   18.4250   29.3687   35.5881 O   0  0  0  0  0  0  0  0  0  0  0  0
   19.8833   29.7529   33.7643 C   0  0  1  0  0  0  0  0  0  0  0  0
   20.3699   31.0950   33.7233 O   0  0  0  0  0  0  0  0  0  0  0  0
   20.6534   28.9843   34.8141 C   0  0  0  0  0  0  0  0  0  0  0  0
   19.7237   28.9248   36.0124 C   0  0  2  0  0  0  0  0  0  0  0  0
   17.7302   26.1698   39.9103 N   0  0  0  0  0  0  0  0  0  0  0  0
   17.6902   27.4994   39.6535 C   0  0  2  0  0  0  0  0  0  0  0  0
   17.0378   28.3321   40.4918 N   0  0  0  0  0  0  0  0  0  0  0  0
   18.2910   28.0283   38.5666 N   0  0  0  0  0  0  0  0  0  0  0  0
   18.9600   27.2570   37.6859 C   0  0  1  0  0  0  0  0  0  0  0  0
   19.0463   25.8983   37.8848 C   0  0  1  0  0  0  0  0  0  0  0  0
   18.3804   25.3279   39.0818 C   0  0  0  0  0  0  0  0  0  0  0  0
   18.4257   24.1005   39.3188 O   0  0  0  0  0  0  0  0  0  0  0  0
   19.7585   25.3811   36.8691 N   0  0  0  0  0  0  0  0  0  0  0  0
   20.1027   26.4109   36.0618 C   0  0  0  0  0  0  0  0  0  0  0  0
   19.6081   27.5510   36.5703 N   0  0  1  0  0  0  0  0  0  0  0  0
  1  2  1  0  0  0  0
  3  1  1  6  0  0  0
  3  4  1  0  0  0  0
  3  5  1  0  0  0  0
  5  6  1  1  0  0  0
  5  7  1  0  0  0  0
  7  8  1  0  0  0  0
  8  4  1  6  0  0  0
  8 19  1  0  0  0  0
  9 15  1  0  0  0  0
  9 10  1  0  0  0  0
 10 11  1  6  0  0  0
 10 12  1  0  0  0  0
 13 12  1  6  0  0  0
 13 14  1  0  0  0  0
 13 19  1  0  0  0  0
 14 15  1  6  0  0  0
 14 17  1  0  0  0  0
 15 16  2  0  0  0  0
 17 18  1  0  0  0  0
 19 18  1  6  0  0  0
M  END
>  <CHROM.1>
-56.78185405,-66.89093437,18.83725331,27.73169087,36.62276334,-1.09348419
-1.18992464,2.59950226

>  <Name>
ligand

>  <RI>
0

>  <Rbt.Current_Directory>
/home/itssahil/PROJECTS/Mol_Feturizer/New_Systems/rnas/3SKL

>  <Rbt.Executable>
rbdock ($Id: //depot/dev/client3/rdock/2013.1/src/exe/rbdock.cxx#4 $)

>  <Rbt.Library>
libRbt.so (2013.1, Build901 2013/11/27)

>  <Rbt.Parameter_File>
/export/apps/rDock/src/rDock_2013.1_src/data/scripts/dock_solv.prm

>  <Rbt.Receptor>
prm/pocket_docking_2.prm

>  <SCORE>
-16.7859

>  <SCORE.INTER>
-16.6924

>  <SCORE.INTER.CONST>
1

>  <SCORE.INTER.POLAR>
0

>  <SCORE.INTER.ROT>
2

>  <SCORE.INTER.SOLV>
15.8177

>  <SCORE.INTER.VDW>
-21.3341

>  <SCORE.INTER.norm>
-0.878546

>  <SCORE.INTRA>
-0.0934878

>  <SCORE.INTRA.DIHEDRAL>
-0.269163

>  <SCORE.INTRA.DIHEDRAL.0>
1.50031

>  <SCORE.INTRA.POLAR>
0

>  <SCORE.INTRA.POLAR.0>
0

>  <SCORE.INTRA.REPUL>
0

>  <SCORE.INTRA.REPUL.0>
0

>  <SCORE.INTRA.SOLV>
0.0127248

>  <SCORE.INTRA.SOLV.lig_0>
-37.9941

>  <SCORE.INTRA.VDW>
0.0347311

>  <SCORE.INTRA.VDW.0>
-0.964461

>  <SCORE.INTRA.norm>
-0.00492041

>  <SCORE.RESTR>
0

>  <SCORE.RESTR.CAVITY>
0

>  <SCORE.RESTR.norm>
0

>  <SCORE.SYSTEM>
0

>  <SCORE.SYSTEM.CONST>
0

>  <SCORE.SYSTEM.DIHEDRAL>
0

>  <SCORE.SYSTEM.SOLV>
0

>  <SCORE.SYSTEM.norm>
0

>  <SCORE.heavy>
19

>  <SCORE.norm>
-0.883466

>  <RMSD>
0.617

$$$$
ligand
 OpenBabel11021811483D
libRbt.so/2013.1/901 2013/11/27
 19 21  0  0  0  0  0  0  0  0999 V2000
   17.7138   28.9776   33.3307 C   0  0  0  0  0  0  0  0  0  0  0  0
   18.1949   27.6325   33.4982 O   0  0  0  0  0  0  0  0  0  0  0  0
   18.3945   29.9380   34.3115 C   0  0  1  0  0  0  0  0  0  0  0  0
   18.2480   29.4719   35.6527 O   0  0  0  0  0  0  0  0  0  0  0  0
   19.8830   30.0568   34.0449 C   0  0  1  0  0  0  0  0  0  0  0  0
   20.2425   31.4378   34.1042 O   0  0  0  0  0  0  0  0  0  0  0  0
   20.5827   29.3198   35.1644 C   0  0  0  0  0  0  0  0  0  0  0  0
   19.5183   29.1301   36.2297 C   0  0  2  0  0  0  0  0  0  0  0  0
   17.6056   26.1236   39.9794 N   0  0  0  0  0  0  0  0  0  0  0  0
   17.5036   27.4591   39.7755 C   0  0  2  0  0  0  0  0  0  0  0  0
   16.7980   28.2237   40.6353 N   0  0  0  0  0  0  0  0  0  0  0  0
   18.0936   28.0607   38.7211 N   0  0  0  0  0  0  0  0  0  0  0  0
   18.8132   27.3598   37.8216 C   0  0  1  0  0  0  0  0  0  0  0  0
   18.9639   26.0000   37.9673 C   0  0  1  0  0  0  0  0  0  0  0  0
   18.3092   25.3491   39.1289 C   0  0  0  0  0  0  0  0  0  0  0  0
   18.4118   24.1168   39.3172 O   0  0  0  0  0  0  0  0  0  0  0  0
   19.7160   25.5603   36.9440 N   0  0  0  0  0  0  0  0  0  0  0  0
   20.0208   26.6379   36.1846 C   0  0  0  0  0  0  0  0  0  0  0  0
   19.4627   27.7306   36.7300 N   0  0  1  0  0  0  0  0  0  0  0  0
  1  2  1  0  0  0  0
  3  1  1  6  0  0  0
  3  4  1  0  0  0  0
  3  5  1  0  0  0  0
  5  6  1  1  0  0  0
  5  7  1  0  0  0  0
  7  8  1  0  0  0  0
  8  4  1  6  0  0  0
  8 19  1  0  0  0  0
  9 15  1  0  0  0  0
  9 10  1  0  0  0  0
 10 11  1  6  0  0  0
 10 12  1  0  0  0  0
 13 12  1  6  0  0  0
 13 14  1  0  0  0  0
 13 19  1  0  0  0  0
 14 15  1  6  0  0  0
 14 17  1  0  0  0  0
 15 16  2  0  0  0  0
 17 18  1  0  0  0  0
 19 18  1  6  0  0  0
M  END
>  <CHROM.1>
-54.39493842,-73.82009530,18.75814531,27.85773063,36.75201828,-1.04325510
-1.19787311,2.68370825

>  <Name>
ligand

>  <RI>
0

>  <Rbt.Current_Directory>
/home/itssahil/PROJECTS/Mol_Feturizer/New_Systems/rnas/3SKL

>  <Rbt.Executable>
rbdock ($Id: //depot/dev/client3/rdock/2013.1/src/exe/rbdock.cxx#4 $)

>  <Rbt.Library>
libRbt.so (2013.1, Build901 2013/11/27)

>  <Rbt.Parameter_File>
/export/apps/rDock/src/rDock_2013.1_src/data/scripts/dock_solv.prm

>  <Rbt.Receptor>
prm/pocket_docking_3.prm

>  <SCORE>
-17.0764

>  <SCORE.INTER>
-16.9508

>  <SCORE.INTER.CONST>
1

>  <SCORE.INTER.POLAR>
0

>  <SCORE.INTER.ROT>
2

>  <SCORE.INTER.SOLV>
16.8093

>  <SCORE.INTER.VDW>
-21.837

>  <SCORE.INTER.norm>
-0.892147

>  <SCORE.INTRA>
-0.125568

>  <SCORE.INTRA.DIHEDRAL>
-0.200637

>  <SCORE.INTRA.DIHEDRAL.0>
1.50031

>  <SCORE.INTRA.POLAR>
0

>  <SCORE.INTRA.POLAR.0>
0

>  <SCORE.INTRA.REPUL>
0

>  <SCORE.INTRA.REPUL.0>
0

>  <SCORE.INTRA.SOLV>
0.0226729

>  <SCORE.INTRA.SOLV.lig_0>
-37.9941

>  <SCORE.INTRA.VDW>
-0.0365863

>  <SCORE.INTRA.VDW.0>
-0.964461

>  <SCORE.INTRA.norm>
-0.00660885

>  <SCORE.RESTR>
0

>  <SCORE.RESTR.CAVITY>
0

>  <SCORE.RESTR.norm>
0

>  <SCORE.SYSTEM>
0

>  <SCORE.SYSTEM.CONST>
0

>  <SCORE.SYSTEM.DIHEDRAL>
0

>  <SCORE.SYSTEM.SOLV>
0

>  <SCORE.SYSTEM.norm>
0

>  <SCORE.heavy>
19

>  <SCORE.norm>
-0.898756

>  <RMSD>
0.618

$$$$
ligand
 OpenBabel11021811483D
libRbt.so/2013.1/901 2013/11/27
 19 21  0  0  0  0  0  0  0  0999 V2000
   17.7581   28.9855   33.3160 C   0  0  0  0  0  0  0  0  0  0  0  0
   18.2530   27.6437   33.4691 O   0  0  0  0  0  0  0  0  0  0  0  0
   18.4375   29.9446   34.2992 C   0  0  1  0  0  0  0  0  0  0  0  0
   18.2808   29.4816   35.6403 O   0  0  0  0  0  0  0  0  0  0  0  0
   19.9281   30.0560   34.0412 C   0  0  1  0  0  0  0  0  0  0  0  0
   20.2936   31.4354   34.1003 O   0  0  0  0  0  0  0  0  0  0  0  0
   20.6176   29.3178   35.1662 C   0  0  0  0  0  0  0  0  0  0  0  0
   19.5460   29.1349   36.2255 C   0  0  2  0  0  0  0  0  0  0  0  0
   17.5577   26.1362   39.9420 N   0  0  0  0  0  0  0  0  0  0  0  0
   17.4591   27.4711   39.7328 C   0  0  2  0  0  0  0  0  0  0  0  0
   16.7354   28.2374   40.5759 N   0  0  0  0  0  0  0  0  0  0  0  0
   18.0705   28.0706   38.6894 N   0  0  0  0  0  0  0  0  0  0  0  0
   18.8091   27.3680   37.8067 C   0  0  1  0  0  0  0  0  0  0  0  0
   18.9576   26.0087   37.9589 C   0  0  1  0  0  0  0  0  0  0  0  0
   18.2793   25.3602   39.1082 C   0  0  0  0  0  0  0  0  0  0  0  0
   18.3787   24.1284   39.3016 O   0  0  0  0  0  0  0  0  0  0  0  0
   19.7310   25.5669   36.9524 N   0  0  0  0  0  0  0  0  0  0  0  0
   20.0508   26.6429   36.1969 C   0  0  0  0  0  0  0  0  0  0  0  0
   19.4808   27.7365   36.7279 N   0  0  1  0  0  0  0  0  0  0  0  0
  1  2  1  0  0  0  0
  3  1  1  6  0  0  0
  3  4  1  0  0  0  0
  3  5  1  0  0  0  0
  5  6  1  1  0  0  0
  5  7  1  0  0  0  0
  7  8  1  0  0  0  0
  8  4  1  6  0  0  0
  8 19  1  0  0  0  0
  9 15  1  0  0  0  0
  9 10  1  0  0  0  0
 10 11  1  6  0  0  0
 10 12  1  0  0  0  0
 13 12  1  6  0  0  0
 13 14  1  0  0  0  0
 13 19  1  0  0  0  0
 14 15  1  6  0  0  0
 14 17  1  0  0  0  0
 15 16  2  0  0  0  0
 17 18  1  0  0  0  0
 19 18  1  6  0  0  0
M  END
>  <CHROM.1>
-55.64998423,-72.91980521,18.76693623,27.86509381,36.73662596,-1.03797039
-1.17420960,2.68589481

>  <Name>
ligand

>  <RI>
0

>  <Rbt.Current_Directory>
/home/itssahil/PROJECTS/Mol_Feturizer/New_Systems/rnas/3SKL

>  <Rbt.Executable>
rbdock ($Id: //depot/dev/client3/rdock/2013.1/src/exe/rbdock.cxx#4 $)

>  <Rbt.Library>
libRbt.so (2013.1, Build901 2013/11/27)

>  <Rbt.Parameter_File>
/export/apps/rDock/src/rDock_2013.1_src/data/scripts/dock_solv.prm

>  <Rbt.Receptor>
prm/pocket_docking_3.prm

>  <SCORE>
-17.0854

>  <SCORE.INTER>
-16.9523

>  <SCORE.INTER.CONST>
1

>  <SCORE.INTER.POLAR>
0

>  <SCORE.INTER.ROT>
2

>  <SCORE.INTER.SOLV>
16.9483

>  <SCORE.INTER.VDW>
-21.8843

>  <SCORE.INTER.norm>
-0.892227

>  <SCORE.INTRA>
-0.133054

>  <SCORE.INTRA.DIHEDRAL>
-0.244782

>  <SCORE.INTRA.DIHEDRAL.0>
1.50031

>  <SCORE.INTRA.POLAR>
0

>  <SCORE.INTRA.POLAR.0>
0

>  <SCORE.INTRA.REPUL>
0

>  <SCORE.INTRA.REPUL.0>
0

>  <SCORE.INTRA.SOLV>
0.0201628

>  <SCORE.INTRA.SOLV.lig_0>
-37.9941

>  <SCORE.INTRA.VDW>
-0.020744

>  <SCORE.INTRA.VDW.0>
-0.964461

>  <SCORE.INTRA.norm>
-0.00700283

>  <SCORE.RESTR>
0

>  <SCORE.RESTR.CAVITY>
0

>  <SCORE.RESTR.norm>
0

>  <SCORE.SYSTEM>
0

>  <SCORE.SYSTEM.CONST>
0

>  <SCORE.SYSTEM.DIHEDRAL>
0

>  <SCORE.SYSTEM.SOLV>
0

>  <SCORE.SYSTEM.norm>
0

>  <SCORE.heavy>
19

>  <SCORE.norm>
-0.89923

>  <RMSD>
0.618

$$$$
ligand
 OpenBabel11021811483D
libRbt.so/2013.1/901 2013/11/27
 19 21  0  0  0  0  0  0  0  0999 V2000
   17.6460   28.9464   33.3405 C   0  0  0  0  0  0  0  0  0  0  0  0
   18.1946   27.6234   33.4728 O   0  0  0  0  0  0  0  0  0  0  0  0
   18.3033   29.9220   34.3223 C   0  0  1  0  0  0  0  0  0  0  0  0
   18.1722   29.4488   35.6625 O   0  0  0  0  0  0  0  0  0  0  0  0
   19.7876   30.0808   34.0527 C   0  0  1  0  0  0  0  0  0  0  0  0
   20.1105   31.4707   34.1148 O   0  0  0  0  0  0  0  0  0  0  0  0
   20.5090   29.3598   35.1687 C   0  0  0  0  0  0  0  0  0  0  0  0
   19.4524   29.1392   36.2359 C   0  0  2  0  0  0  0  0  0  0  0  0
   17.6259   26.0730   39.9802 N   0  0  0  0  0  0  0  0  0  0  0  0
   17.4879   27.4058   39.7798 C   0  0  2  0  0  0  0  0  0  0  0  0
   16.7632   28.1492   40.6425 N   0  0  0  0  0  0  0  0  0  0  0  0
   18.0602   28.0258   38.7262 N   0  0  0  0  0  0  0  0  0  0  0  0
   18.7971   27.3467   37.8241 C   0  0  1  0  0  0  0  0  0  0  0  0
   18.9844   25.9910   37.9662 C   0  0  1  0  0  0  0  0  0  0  0  0
   18.3489   25.3199   39.1269 C   0  0  0  0  0  0  0  0  0  0  0  0
   18.4847   24.0903   39.3119 O   0  0  0  0  0  0  0  0  0  0  0  0
   19.7467   25.5742   36.9407 N   0  0  0  0  0  0  0  0  0  0  0  0
   20.0215   26.6615   36.1837 C   0  0  0  0  0  0  0  0  0  0  0  0
   19.4350   27.7374   36.7326 N   0  0  1  0  0  0  0  0  0  0  0  0
  1  2  1  0  0  0  0
  3  1  1  6  0  0  0
  3  4  1  0  0  0  0
  3  5  1  0  0  0  0
  5  6  1  1  0  0  0
  5  7  1  0  0  0  0
  7  8  1  0  0  0  0
  8  4  1  6  0  0  0
  8 19  1  0  0  0  0
  9 15  1  0  0  0  0
  9 10  1  0  0  0  0
 10 11  1  6  0  0  0
 10 12  1  0  0  0  0
 13 12  1  6  0  0  0
 13 14  1  0  0  0  0
 13 19  1  0  0  0  0
 14 15  1  6  0  0  0
 14 17  1  0  0  0  0
 15 16  2  0  0  0  0
 17 18  1  0  0  0  0
 19 18  1  6  0  0  0
M  END
>  <CHROM.1>
-56.31848625,-73.76173086,18.72860942,27.84627342,36.75418486,-1.10949743
-1.18586121,2.62370788

>  <Name>
ligand

>  <RI>
0

>  <Rbt.Current_Directory>
/home/itssahil/PROJECTS/Mol_Feturizer/New_Systems/rnas/3SKL

>  <Rbt.Executable>
rbdock ($Id: //depot/dev/client3/rdock/2013.1/src/exe/rbdock.cxx#4 $)

>  <Rbt.Library>
libRbt.so (2013.1, Build901 2013/11/27)

>  <Rbt.Parameter_File>
/export/apps/rDock/src/rDock_2013.1_src/data/scripts/dock_solv.prm

>  <Rbt.Receptor>
prm/pocket_docking_7.prm

>  <SCORE>
-17.1331

>  <SCORE.INTER>
-17.0047

>  <SCORE.INTER.CONST>
1

>  <SCORE.INTER.POLAR>
0

>  <SCORE.INTER.ROT>
2

>  <SCORE.INTER.SOLV>
17.0251

>  <SCORE.INTER.VDW>
-21.9448

>  <SCORE.INTER.norm>
-0.894985

>  <SCORE.INTRA>
-0.128351

>  <SCORE.INTRA.DIHEDRAL>
-0.265078

>  <SCORE.INTRA.DIHEDRAL.0>
1.50031

>  <SCORE.INTRA.POLAR>
0

>  <SCORE.INTRA.POLAR.0>
0

>  <SCORE.INTRA.REPUL>
0

>  <SCORE.INTRA.REPUL.0>
0

>  <SCORE.INTRA.SOLV>
0.0198948

>  <SCORE.INTRA.SOLV.lig_0>
-37.9941

>  <SCORE.INTRA.VDW>
-0.00575875

>  <SCORE.INTRA.VDW.0>
-0.964461

>  <SCORE.INTRA.norm>
-0.00675529

>  <SCORE.RESTR>
0

>  <SCORE.RESTR.CAVITY>
0

>  <SCORE.RESTR.norm>
0

>  <SCORE.SYSTEM>
0

>  <SCORE.SYSTEM.CONST>
0

>  <SCORE.SYSTEM.DIHEDRAL>
0

>  <SCORE.SYSTEM.SOLV>
0

>  <SCORE.SYSTEM.norm>
0

>  <SCORE.heavy>
19

>  <SCORE.norm>
-0.90174

>  <RMSD>
0.625

$$$$
ligand
 OpenBabel11021811483D
libRbt.so/2013.1/901 2013/11/27
 19 21  0  0  0  0  0  0  0  0999 V2000
   17.7370   28.9937   33.3253 C   0  0  0  0  0  0  0  0  0  0  0  0
   18.2392   27.6539   33.4715 O   0  0  0  0  0  0  0  0  0  0  0  0
   18.4156   29.9527   34.3090 C   0  0  1  0  0  0  0  0  0  0  0  0
   18.2678   29.4836   35.6490 O   0  0  0  0  0  0  0  0  0  0  0  0
   19.9044   30.0733   34.0445 C   0  0  1  0  0  0  0  0  0  0  0  0
   20.2626   31.4545   34.1072 O   0  0  0  0  0  0  0  0  0  0  0  0
   20.6033   29.3346   35.1633 C   0  0  0  0  0  0  0  0  0  0  0  0
   19.5377   29.1417   36.2269 C   0  0  2  0  0  0  0  0  0  0  0  0
   17.5841   26.1177   39.9413 N   0  0  0  0  0  0  0  0  0  0  0  0
   17.4772   27.4529   39.7378 C   0  0  2  0  0  0  0  0  0  0  0  0
   16.7535   28.2119   40.5875 N   0  0  0  0  0  0  0  0  0  0  0  0
   18.0802   28.0598   38.6938 N   0  0  0  0  0  0  0  0  0  0  0  0
   18.8182   27.3646   37.8048 C   0  0  1  0  0  0  0  0  0  0  0  0
   18.9748   26.0055   37.9509 C   0  0  1  0  0  0  0  0  0  0  0  0
   18.3058   25.3489   39.1010 C   0  0  0  0  0  0  0  0  0  0  0  0
   18.4128   24.1169   39.2890 O   0  0  0  0  0  0  0  0  0  0  0  0
   19.7457   25.5720   36.9389 N   0  0  0  0  0  0  0  0  0  0  0  0
   20.0559   26.6526   36.1861 C   0  0  0  0  0  0  0  0  0  0  0  0
   19.4826   27.7410   36.7241 N   0  0  1  0  0  0  0  0  0  0  0  0
  1  2  1  0  0  0  0
  3  1  1  6  0  0  0
  3  4  1  0  0  0  0
  3  5  1  0  0  0  0
  5  6  1  1  0  0  0
  5  7  1  0  0  0  0
  7  8  1  0  0  0  0
  8  4  1  6  0  0  0
  8 19  1  0  0  0  0
  9 15  1  0  0  0  0
  9 10  1  0  0  0  0
 10 11  1  6  0  0  0
 10 12  1  0  0  0  0
 13 12  1  6  0  0  0
 13 14  1  0  0  0  0
 13 19  1  0  0  0  0
 14 15  1  6  0  0  0
 14 17  1  0  0  0  0
 15 16  2  0  0  0  0
 17 18  1  0  0  0  0
 19 18  1  6  0  0  0
M  END
>  <CHROM.1>
-55.60406730,-72.93315930,18.76817797,27.86561837,36.73685105,-1.05606204
-1.17626791,2.67313915

>  <Name>
ligand

>  <RI>
0

>  <Rbt.Current_Directory>
/home/itssahil/PROJECTS/Mol_Feturizer/New_Systems/rnas/3SKL

>  <Rbt.Executable>
rbdock ($Id: //depot/dev/client3/rdock/2013.1/src/exe/rbdock.cxx#4 $)

>  <Rbt.Library>
libRbt.so (2013.1, Build901 2013/11/27)

>  <Rbt.Parameter_File>
/export/apps/rDock/src/rDock_2013.1_src/data/scripts/dock_solv.prm

>  <Rbt.Receptor>
prm/pocket_docking_3.prm

>  <SCORE>
-17.0844

>  <SCORE.INTER>
-16.9517

>  <SCORE.INTER.CONST>
1

>  <SCORE.INTER.POLAR>
0

>  <SCORE.INTER.ROT>
2

>  <SCORE.INTER.SOLV>
16.9288

>  <SCORE.INTER.VDW>
-21.8774

>  <SCORE.INTER.norm>
-0.892195

>  <SCORE.INTRA>
-0.132712

>  <SCORE.INTRA.DIHEDRAL>
-0.243343

>  <SCORE.INTRA.DIHEDRAL.0>
1.50031

>  <SCORE.INTRA.POLAR>
0

>  <SCORE.INTRA.POLAR.0>
0

>  <SCORE.INTRA.REPUL>
0

>  <SCORE.INTRA.REPUL.0>
0

>  <SCORE.INTRA.SOLV>
0.0202419

>  <SCORE.INTRA.SOLV.lig_0>
-37.9941

>  <SCORE.INTRA.VDW>
-0.0211611

>  <SCORE.INTRA.VDW.0>
-0.964461

>  <SCORE.INTRA.norm>
-0.00698482

>  <SCORE.RESTR>
0

>  <SCORE.RESTR.CAVITY>
0

>  <SCORE.RESTR.norm>
0

>  <SCORE.SYSTEM>
0

>  <SCORE.SYSTEM.CONST>
0

>  <SCORE.SYSTEM.DIHEDRAL>
0

>  <SCORE.SYSTEM.SOLV>
0

>  <SCORE.SYSTEM.norm>
0

>  <SCORE.heavy>
19

>  <SCORE.norm>
-0.89918

>  <RMSD>
0.629

$$$$
ligand
 OpenBabel11021811483D
libRbt.so/2013.1/901 2013/11/27
 19 21  0  0  0  0  0  0  0  0999 V2000
   17.6498   28.9581   33.3430 C   0  0  0  0  0  0  0  0  0  0  0  0
   18.1668   27.6253   33.5007 O   0  0  0  0  0  0  0  0  0  0  0  0
   18.3103   29.9310   34.3255 C   0  0  1  0  0  0  0  0  0  0  0  0
   18.1795   29.4561   35.6652 O   0  0  0  0  0  0  0  0  0  0  0  0
   19.7946   30.0870   34.0546 C   0  0  1  0  0  0  0  0  0  0  0  0
   20.1206   31.4760   34.1184 O   0  0  0  0  0  0  0  0  0  0  0  0
   20.5156   29.3627   35.1689 C   0  0  0  0  0  0  0  0  0  0  0  0
   19.4596   29.1430   36.2368 C   0  0  2  0  0  0  0  0  0  0  0  0
   17.6052   26.0698   39.9617 N   0  0  0  0  0  0  0  0  0  0  0  0
   17.4673   27.4027   39.7619 C   0  0  2  0  0  0  0  0  0  0  0  0
   16.7345   28.1441   40.6194 N   0  0  0  0  0  0  0  0  0  0  0  0
   18.0477   28.0247   38.7140 N   0  0  0  0  0  0  0  0  0  0  0  0
   18.7930   27.3476   37.8172 C   0  0  1  0  0  0  0  0  0  0  0  0
   18.9807   25.9920   37.9591 C   0  0  1  0  0  0  0  0  0  0  0  0
   18.3362   25.3186   39.1135 C   0  0  0  0  0  0  0  0  0  0  0  0
   18.4719   24.0890   39.2981 O   0  0  0  0  0  0  0  0  0  0  0  0
   19.7521   25.5774   36.9395 N   0  0  0  0  0  0  0  0  0  0  0  0
   20.0319   26.6660   36.1863 C   0  0  0  0  0  0  0  0  0  0  0  0
   19.4396   27.7405   36.7316 N   0  0  1  0  0  0  0  0  0  0  0  0
  1  2  1  0  0  0  0
  3  1  1  6  0  0  0
  3  4  1  0  0  0  0
  3  5  1  0  0  0  0
  5  6  1  1  0  0  0
  5  7  1  0  0  0  0
  7  8  1  0  0  0  0
  8  4  1  6  0  0  0
  8 19  1  0  0  0  0
  9 15  1  0  0  0  0
  9 10  1  0  0  0  0
 10 11  1  6  0  0  0
 10 12  1  0  0  0  0
 13 12  1  6  0  0  0
 13 14  1  0  0  0  0
 13 19  1  0  0  0  0
 14 15  1  6  0  0  0
 14 17  1  0  0  0  0
 15 16  2  0  0  0  0
 17 18  1  0  0  0  0
 19 18  1  6  0  0  0
M  END
>  <CHROM.1>
-54.56726279,-73.18862051,18.72460308,27.84873491,36.75091405,-1.11245581
-1.17499553,2.62350094

>  <Name>
ligand

>  <RI>
0

>  <Rbt.Current_Directory>
/home/itssahil/PROJECTS/Mol_Feturizer/New_Systems/rnas/3SKL

>  <Rbt.Executable>
rbdock ($Id: //depot/dev/client3/rdock/2013.1/src/exe/rbdock.cxx#4 $)

>  <Rbt.Library>
libRbt.so (2013.1, Build901 2013/11/27)

>  <Rbt.Parameter_File>
/export/apps/rDock/src/rDock_2013.1_src/data/scripts/dock_solv.prm

>  <Rbt.Receptor>
prm/pocket_docking_5.prm

>  <SCORE>
-17.125

>  <SCORE.INTER>
-17.0028

>  <SCORE.INTER.CONST>
1

>  <SCORE.INTER.POLAR>
0

>  <SCORE.INTER.ROT>
2

>  <SCORE.INTER.SOLV>
17.1276

>  <SCORE.INTER.VDW>
-21.9777

>  <SCORE.INTER.norm>
-0.894884

>  <SCORE.INTRA>
-0.122211

>  <SCORE.INTRA.DIHEDRAL>
-0.206854

>  <SCORE.INTRA.DIHEDRAL.0>
1.50031

>  <SCORE.INTRA.POLAR>
0

>  <SCORE.INTRA.POLAR.0>
0

>  <SCORE.INTRA.REPUL>
0

>  <SCORE.INTRA.REPUL.0>
0

>  <SCORE.INTRA.SOLV>
0.0218883

>  <SCORE.INTRA.SOLV.lig_0>
-37.9941

>  <SCORE.INTRA.VDW>
-0.0297279

>  <SCORE.INTRA.VDW.0>
-0.964461

>  <SCORE.INTRA.norm>
-0.00643214

>  <SCORE.RESTR>
0

>  <SCORE.RESTR.CAVITY>
0

>  <SCORE.RESTR.norm>
0

>  <SCORE.SYSTEM>
0

>  <SCORE.SYSTEM.CONST>
0

>  <SCORE.SYSTEM.DIHEDRAL>
0

>  <SCORE.SYSTEM.SOLV>
0

>  <SCORE.SYSTEM.norm>
0

>  <SCORE.heavy>
19

>  <SCORE.norm>
-0.901316

>  <RMSD>
0.633

$$$$
ligand
 OpenBabel11021811483D
libRbt.so/2013.1/901 2013/11/27
 19 21  0  0  0  0  0  0  0  0999 V2000
   17.7069   29.0162   33.3663 C   0  0  0  0  0  0  0  0  0  0  0  0
   18.1827   27.6670   33.5141 O   0  0  0  0  0  0  0  0  0  0  0  0
   18.4136   29.9651   34.3399 C   0  0  1  0  0  0  0  0  0  0  0  0
   18.2773   29.4988   35.6821 O   0  0  0  0  0  0  0  0  0  0  0  0
   19.9002   30.0632   34.0547 C   0  0  1  0  0  0  0  0  0  0  0  0
   20.2800   31.4388   34.1117 O   0  0  0  0  0  0  0  0  0  0  0  0
   20.6033   29.3143   35.1641 C   0  0  0  0  0  0  0  0  0  0  0  0
   19.5498   29.1379   36.2425 C   0  0  2  0  0  0  0  0  0  0  0  0
   17.5478   26.1343   39.9477 N   0  0  0  0  0  0  0  0  0  0  0  0
   17.4526   27.4700   39.7416 C   0  0  2  0  0  0  0  0  0  0  0  0
   16.7292   28.2358   40.5854 N   0  0  0  0  0  0  0  0  0  0  0  0
   18.0674   28.0708   38.7009 N   0  0  0  0  0  0  0  0  0  0  0  0
   18.8060   27.3687   37.8179 C   0  0  1  0  0  0  0  0  0  0  0  0
   18.9510   26.0086   37.9668 C   0  0  1  0  0  0  0  0  0  0  0  0
   18.2691   25.3588   39.1132 C   0  0  0  0  0  0  0  0  0  0  0  0
   18.3654   24.1263   39.3037 O   0  0  0  0  0  0  0  0  0  0  0  0
   19.7253   25.5677   36.9606 N   0  0  0  0  0  0  0  0  0  0  0  0
   20.0490   26.6449   36.2085 C   0  0  0  0  0  0  0  0  0  0  0  0
   19.4805   27.7384   36.7412 N   0  0  1  0  0  0  0  0  0  0  0  0
  1  2  1  0  0  0  0
  3  1  1  6  0  0  0
  3  4  1  0  0  0  0
  3  5  1  0  0  0  0
  5  6  1  1  0  0  0
  5  7  1  0  0  0  0
  7  8  1  0  0  0  0
  8  4  1  6  0  0  0
  8 19  1  0  0  0  0
  9 15  1  0  0  0  0
  9 10  1  0  0  0  0
 10 11  1  6  0  0  0
 10 12  1  0  0  0  0
 13 12  1  6  0  0  0
 13 14  1  0  0  0  0
 13 19  1  0  0  0  0
 14 15  1  6  0  0  0
 14 17  1  0  0  0  0
 15 16  2  0  0  0  0
 17 18  1  0  0  0  0
 19 18  1  6  0  0  0
M  END
>  <CHROM.1>
-55.11003752,-71.67576540,18.75220251,27.87062257,36.75352619,-1.05530507
-1.16653086,2.67318313

>  <Name>
ligand

>  <RI>
0

>  <Rbt.Current_Directory>
/home/itssahil/PROJECTS/Mol_Feturizer/New_Systems/rnas/3SKL

>  <Rbt.Executable>
rbdock ($Id: //depot/dev/client3/rdock/2013.1/src/exe/rbdock.cxx#4 $)

>  <Rbt.Library>
libRbt.so (2013.1, Build901 2013/11/27)

>  <Rbt.Parameter_File>
/export/apps/rDock/src/rDock_2013.1_src/data/scripts/dock_solv.prm

>  <Rbt.Receptor>
prm/pocket_docking_5.prm

>  <SCORE>
-17.0818

>  <SCORE.INTER>
-16.966

>  <SCORE.INTER.CONST>
1

>  <SCORE.INTER.POLAR>
0

>  <SCORE.INTER.ROT>
2

>  <SCORE.INTER.SOLV>
17.0372

>  <SCORE.INTER.VDW>
-21.923

>  <SCORE.INTER.norm>
-0.892945

>  <SCORE.INTRA>
-0.115873

>  <SCORE.INTRA.DIHEDRAL>
-0.225481

>  <SCORE.INTRA.DIHEDRAL.0>
1.50031

>  <SCORE.INTRA.POLAR>
0

>  <SCORE.INTRA.POLAR.0>
0

>  <SCORE.INTRA.REPUL>
0

>  <SCORE.INTRA.REPUL.0>
0

>  <SCORE.INTRA.SOLV>
0.0197916

>  <SCORE.INTRA.SOLV.lig_0>
-37.9941

>  <SCORE.INTRA.VDW>
-0.0130288

>  <SCORE.INTRA.VDW.0>
-0.964461

>  <SCORE.INTRA.norm>
-0.00609859

>  <SCORE.RESTR>
0

>  <SCORE.RESTR.CAVITY>
0

>  <SCORE.RESTR.norm>
0

>  <SCORE.SYSTEM>
0

>  <SCORE.SYSTEM.CONST>
0

>  <SCORE.SYSTEM.DIHEDRAL>
0

>  <SCORE.SYSTEM.SOLV>
0

>  <SCORE.SYSTEM.norm>
0

>  <SCORE.heavy>
19

>  <SCORE.norm>
-0.899044

>  <RMSD>
0.635

$$$$
ligand
 OpenBabel11021811483D
libRbt.so/2013.1/901 2013/11/27
 19 21  0  0  0  0  0  0  0  0999 V2000
   17.6993   28.9966   33.3525 C   0  0  0  0  0  0  0  0  0  0  0  0
   18.1868   27.6514   33.4982 O   0  0  0  0  0  0  0  0  0  0  0  0
   18.3924   29.9488   34.3327 C   0  0  1  0  0  0  0  0  0  0  0  0
   18.2553   29.4759   35.6725 O   0  0  0  0  0  0  0  0  0  0  0  0
   19.8790   30.0629   34.0541 C   0  0  1  0  0  0  0  0  0  0  0  0
   20.2448   31.4420   34.1180 O   0  0  0  0  0  0  0  0  0  0  0  0
   20.5851   29.3168   35.1635 C   0  0  0  0  0  0  0  0  0  0  0  0
   19.5289   29.1256   36.2368 C   0  0  2  0  0  0  0  0  0  0  0  0
   17.5866   26.0968   39.9531 N   0  0  0  0  0  0  0  0  0  0  0  0
   17.4834   27.4331   39.7546 C   0  0  2  0  0  0  0  0  0  0  0  0
   16.7677   28.1920   40.6111 N   0  0  0  0  0  0  0  0  0  0  0  0
   18.0824   28.0411   38.7089 N   0  0  0  0  0  0  0  0  0  0  0  0
   18.8124   27.3462   37.8133 C   0  0  1  0  0  0  0  0  0  0  0  0
   18.9648   25.9860   37.9540 C   0  0  1  0  0  0  0  0  0  0  0  0
   18.3003   25.3281   39.1060 C   0  0  0  0  0  0  0  0  0  0  0  0
   18.4039   24.0951   39.2894 O   0  0  0  0  0  0  0  0  0  0  0  0
   19.7280   25.5529   36.9360 N   0  0  0  0  0  0  0  0  0  0  0  0
   20.0377   26.6348   36.1848 C   0  0  0  0  0  0  0  0  0  0  0  0
   19.4717   27.7236   36.7298 N   0  0  1  0  0  0  0  0  0  0  0  0
  1  2  1  0  0  0  0
  3  1  1  6  0  0  0
  3  4  1  0  0  0  0
  3  5  1  0  0  0  0
  5  6  1  1  0  0  0
  5  7  1  0  0  0  0
  7  8  1  0  0  0  0
  8  4  1  6  0  0  0
  8 19  1  0  0  0  0
  9 15  1  0  0  0  0
  9 10  1  0  0  0  0
 10 11  1  6  0  0  0
 10 12  1  0  0  0  0
 13 12  1  6  0  0  0
 13 14  1  0  0  0  0
 13 19  1  0  0  0  0
 14 15  1  6  0  0  0
 14 17  1  0  0  0  0
 15 16  2  0  0  0  0
 17 18  1  0  0  0  0
 19 18  1  6  0  0  0
M  END
>  <CHROM.1>
-55.03878509,-72.70583543,18.75465149,27.85101190,36.74856960,-1.05921611
-1.18208612,2.67385762

>  <Name>
ligand

>  <RI>
0

>  <Rbt.Current_Directory>
/home/itssahil/PROJECTS/Mol_Feturizer/New_Systems/rnas/3SKL

>  <Rbt.Executable>
rbdock ($Id: //depot/dev/client3/rdock/2013.1/src/exe/rbdock.cxx#4 $)

>  <Rbt.Library>
libRbt.so (2013.1, Build901 2013/11/27)

>  <Rbt.Parameter_File>
/export/apps/rDock/src/rDock_2013.1_src/data/scripts/dock_solv.prm

>  <Rbt.Receptor>
prm/pocket_docking_3.prm

>  <SCORE>
-17.0811

>  <SCORE.INTER>
-16.957

>  <SCORE.INTER.CONST>
1

>  <SCORE.INTER.POLAR>
0

>  <SCORE.INTER.ROT>
2

>  <SCORE.INTER.SOLV>
16.938

>  <SCORE.INTER.VDW>
-21.884

>  <SCORE.INTER.norm>
-0.892472

>  <SCORE.INTRA>
-0.124176

>  <SCORE.INTRA.DIHEDRAL>
-0.224013

>  <SCORE.INTRA.DIHEDRAL.0>
1.50031

>  <SCORE.INTRA.POLAR>
0

>  <SCORE.INTRA.POLAR.0>
0

>  <SCORE.INTRA.REPUL>
0

>  <SCORE.INTRA.REPUL.0>
0

>  <SCORE.INTRA.SOLV>
0.0208311

>  <SCORE.INTRA.SOLV.lig_0>
-37.9941

>  <SCORE.INTRA.VDW>
-0.0225849

>  <SCORE.INTRA.VDW.0>
-0.964461

>  <SCORE.INTRA.norm>
-0.00653556

>  <SCORE.RESTR>
0

>  <SCORE.RESTR.CAVITY>
0

>  <SCORE.RESTR.norm>
0

>  <SCORE.SYSTEM>
0

>  <SCORE.SYSTEM.CONST>
0

>  <SCORE.SYSTEM.DIHEDRAL>
0

>  <SCORE.SYSTEM.SOLV>
0

>  <SCORE.SYSTEM.norm>
0

>  <SCORE.heavy>
19

>  <SCORE.norm>
-0.899007

>  <RMSD>
0.637

$$$$
ligand
 OpenBabel11021811483D
libRbt.so/2013.1/901 2013/11/27
 19 21  0  0  0  0  0  0  0  0999 V2000
   17.7588   28.9534   33.2527 C   0  0  0  0  0  0  0  0  0  0  0  0
   18.4116   27.6767   33.3654 O   0  0  0  0  0  0  0  0  0  0  0  0
   18.2969   29.9467   34.2879 C   0  0  1  0  0  0  0  0  0  0  0  0
   18.1148   29.4405   35.6101 O   0  0  0  0  0  0  0  0  0  0  0  0
   19.7824   30.1977   34.1114 C   0  0  1  0  0  0  0  0  0  0  0  0
   20.0173   31.6026   34.2151 O   0  0  0  0  0  0  0  0  0  0  0  0
   20.4780   29.4986   35.2575 C   0  0  0  0  0  0  0  0  0  0  0  0
   19.3748   29.1956   36.2550 C   0  0  2  0  0  0  0  0  0  0  0  0
   17.7166   26.0087   39.9768 N   0  0  0  0  0  0  0  0  0  0  0  0
   17.5320   27.3394   39.8022 C   0  0  2  0  0  0  0  0  0  0  0  0
   16.7995   28.0440   40.6903 N   0  0  0  0  0  0  0  0  0  0  0  0
   18.0647   27.9954   38.7497 N   0  0  0  0  0  0  0  0  0  0  0  0
   18.8067   27.3561   37.8230 C   0  0  1  0  0  0  0  0  0  0  0  0
   19.0402   26.0051   37.9380 C   0  0  1  0  0  0  0  0  0  0  0  0
   18.4480   25.2940   39.0978 C   0  0  0  0  0  0  0  0  0  0  0  0
   18.6268   24.0666   39.2589 O   0  0  0  0  0  0  0  0  0  0  0  0
   19.7969   25.6307   36.8922 N   0  0  0  0  0  0  0  0  0  0  0  0
   20.0226   26.7390   36.1496 C   0  0  0  0  0  0  0  0  0  0  0  0
   19.4117   27.7858   36.7274 N   0  0  1  0  0  0  0  0  0  0  0  0
  1  2  1  0  0  0  0
  3  1  1  6  0  0  0
  3  4  1  0  0  0  0
  3  5  1  0  0  0  0
  5  6  1  1  0  0  0
  5  7  1  0  0  0  0
  7  8  1  0  0  0  0
  8  4  1  6  0  0  0
  8 19  1  0  0  0  0
  9 15  1  0  0  0  0
  9 10  1  0  0  0  0
 10 11  1  6  0  0  0
 10 12  1  0  0  0  0
 13 12  1  6  0  0  0
 13 14  1  0  0  0  0
 13 19  1  0  0  0  0
 14 15  1  6  0  0  0
 14 17  1  0  0  0  0
 15 16  2  0  0  0  0
 17 18  1  0  0  0  0
 19 18  1  6  0  0  0
M  END
>  <CHROM.1>
-58.41851509,-78.49338476,18.75946837,27.86866220,36.74703698,-1.12587924
-1.20426022,2.62148121

>  <Name>
ligand

>  <RI>
0

>  <Rbt.Current_Directory>
/home/itssahil/PROJECTS/Mol_Feturizer/New_Systems/rnas/3SKL

>  <Rbt.Executable>
rbdock ($Id: //depot/dev/client3/rdock/2013.1/src/exe/rbdock.cxx#4 $)

>  <Rbt.Library>
libRbt.so (2013.1, Build901 2013/11/27)

>  <Rbt.Parameter_File>
/export/apps/rDock/src/rDock_2013.1_src/data/scripts/dock_solv.prm

>  <Rbt.Receptor>
prm/pocket_docking_7.prm

>  <SCORE>
-17.0503

>  <SCORE.INTER>
-16.866

>  <SCORE.INTER.CONST>
1

>  <SCORE.INTER.POLAR>
0

>  <SCORE.INTER.ROT>
2

>  <SCORE.INTER.SOLV>
17.003

>  <SCORE.INTER.VDW>
-21.845

>  <SCORE.INTER.norm>
-0.887687

>  <SCORE.INTRA>
-0.184294

>  <SCORE.INTRA.DIHEDRAL>
-0.309524

>  <SCORE.INTRA.DIHEDRAL.0>
1.50031

>  <SCORE.INTRA.POLAR>
0

>  <SCORE.INTRA.POLAR.0>
0

>  <SCORE.INTRA.REPUL>
0

>  <SCORE.INTRA.REPUL.0>
0

>  <SCORE.INTRA.SOLV>
0.0201766

>  <SCORE.INTRA.SOLV.lig_0>
-37.9941

>  <SCORE.INTRA.VDW>
-0.03962

>  <SCORE.INTRA.VDW.0>
-0.964461

>  <SCORE.INTRA.norm>
-0.00969967

>  <SCORE.RESTR>
0

>  <SCORE.RESTR.CAVITY>
0

>  <SCORE.RESTR.norm>
0

>  <SCORE.SYSTEM>
0

>  <SCORE.SYSTEM.CONST>
0

>  <SCORE.SYSTEM.DIHEDRAL>
0

>  <SCORE.SYSTEM.SOLV>
0

>  <SCORE.SYSTEM.norm>
0

>  <SCORE.heavy>
19

>  <SCORE.norm>
-0.897386

>  <RMSD>
0.661

$$$$
ligand
 OpenBabel11021811483D
libRbt.so/2013.1/901 2013/11/27
 19 21  0  0  0  0  0  0  0  0999 V2000
   17.6300   29.0505   33.4173 C   0  0  0  0  0  0  0  0  0  0  0  0
   18.1364   27.7084   33.5221 O   0  0  0  0  0  0  0  0  0  0  0  0
   18.3414   29.9915   34.3951 C   0  0  1  0  0  0  0  0  0  0  0  0
   18.2239   29.5067   35.7325 O   0  0  0  0  0  0  0  0  0  0  0  0
   19.8238   30.1037   34.0941 C   0  0  1  0  0  0  0  0  0  0  0  0
   20.1948   31.4811   34.1648 O   0  0  0  0  0  0  0  0  0  0  0  0
   20.5449   29.3454   35.1854 C   0  0  0  0  0  0  0  0  0  0  0  0
   19.5053   29.1475   36.2734 C   0  0  2  0  0  0  0  0  0  0  0  0
   17.5671   26.0816   39.9615 N   0  0  0  0  0  0  0  0  0  0  0  0
   17.4604   27.4192   39.7742 C   0  0  2  0  0  0  0  0  0  0  0  0
   16.7415   28.1688   40.6362 N   0  0  0  0  0  0  0  0  0  0  0  0
   18.0588   28.0378   38.7344 N   0  0  0  0  0  0  0  0  0  0  0  0
   18.7919   27.3526   37.8338 C   0  0  1  0  0  0  0  0  0  0  0  0
   18.9481   25.9918   37.9631 C   0  0  1  0  0  0  0  0  0  0  0  0
   18.2840   25.3222   39.1086 C   0  0  0  0  0  0  0  0  0  0  0  0
   18.3910   24.0880   39.2817 O   0  0  0  0  0  0  0  0  0  0  0  0
   19.7137   25.5695   36.9424 N   0  0  0  0  0  0  0  0  0  0  0  0
   20.0212   26.6586   36.2008 C   0  0  0  0  0  0  0  0  0  0  0  0
   19.4514   27.7411   36.7544 N   0  0  1  0  0  0  0  0  0  0  0  0
  1  2  1  0  0  0  0
  3  1  1  6  0  0  0
  3  4  1  0  0  0  0
  3  5  1  0  0  0  0
  5  6  1  1  0  0  0
  5  7  1  0  0  0  0
  7  8  1  0  0  0  0
  8  4  1  6  0  0  0
  8 19  1  0  0  0  0
  9 15  1  0  0  0  0
  9 10  1  0  0  0  0
 10 11  1  6  0  0  0
 10 12  1  0  0  0  0
 13 12  1  6  0  0  0
 13 14  1  0  0  0  0
 13 19  1  0  0  0  0
 14 15  1  6  0  0  0
 14 17  1  0  0  0  0
 15 16  2  0  0  0  0
 17 18  1  0  0  0  0
 19 18  1  6  0  0  0
M  END
>  <CHROM.1>
-56.32325750,-71.67461417,18.72359398,27.86835933,36.77564242,-1.08413459
-1.17373525,2.65916114

>  <Name>
ligand

>  <RI>
0

>  <Rbt.Current_Directory>
/home/itssahil/PROJECTS/Mol_Feturizer/New_Systems/rnas/3SKL

>  <Rbt.Executable>
rbdock ($Id: //depot/dev/client3/rdock/2013.1/src/exe/rbdock.cxx#4 $)

>  <Rbt.Library>
libRbt.so (2013.1, Build901 2013/11/27)

>  <Rbt.Parameter_File>
/export/apps/rDock/src/rDock_2013.1_src/data/scripts/dock_solv.prm

>  <Rbt.Receptor>
prm/pocket_docking_5.prm

>  <SCORE>
-17.0856

>  <SCORE.INTER>
-16.9579

>  <SCORE.INTER.CONST>
1

>  <SCORE.INTER.POLAR>
0

>  <SCORE.INTER.ROT>
2

>  <SCORE.INTER.SOLV>
17.1691

>  <SCORE.INTER.VDW>
-21.9616

>  <SCORE.INTER.norm>
-0.892522

>  <SCORE.INTRA>
-0.127661

>  <SCORE.INTRA.DIHEDRAL>
-0.2631

>  <SCORE.INTRA.DIHEDRAL.0>
1.50031

>  <SCORE.INTRA.POLAR>
0

>  <SCORE.INTRA.POLAR.0>
0

>  <SCORE.INTRA.REPUL>
0

>  <SCORE.INTRA.REPUL.0>
0

>  <SCORE.INTRA.SOLV>
0.0180077

>  <SCORE.INTRA.SOLV.lig_0>
-37.9941

>  <SCORE.INTRA.VDW>
-0.00511439

>  <SCORE.INTRA.VDW.0>
-0.964461

>  <SCORE.INTRA.norm>
-0.00671898

>  <SCORE.RESTR>
0

>  <SCORE.RESTR.CAVITY>
0

>  <SCORE.RESTR.norm>
0

>  <SCORE.SYSTEM>
0

>  <SCORE.SYSTEM.CONST>
0

>  <SCORE.SYSTEM.DIHEDRAL>
0

>  <SCORE.SYSTEM.SOLV>
0

>  <SCORE.SYSTEM.norm>
0

>  <SCORE.heavy>
19

>  <SCORE.norm>
-0.899241

>  <RMSD>
0.667

$$$$
ligand
 OpenBabel11021811483D
libRbt.so/2013.1/901 2013/11/27
 19 21  0  0  0  0  0  0  0  0999 V2000
   17.8518   29.1267   33.2406 C   0  0  0  0  0  0  0  0  0  0  0  0
   18.4024   27.8023   33.3472 O   0  0  0  0  0  0  0  0  0  0  0  0
   18.5003   30.0815   34.2484 C   0  0  1  0  0  0  0  0  0  0  0  0
   18.3290   29.5967   35.5800 O   0  0  0  0  0  0  0  0  0  0  0  0
   19.9930   30.2193   34.0167 C   0  0  1  0  0  0  0  0  0  0  0  0
   20.3362   31.6031   34.1015 O   0  0  0  0  0  0  0  0  0  0  0  0
   20.6754   29.4753   35.1421 C   0  0  0  0  0  0  0  0  0  0  0  0
   19.5897   29.2607   36.1809 C   0  0  2  0  0  0  0  0  0  0  0  0
   17.6360   26.1882   39.8552 N   0  0  0  0  0  0  0  0  0  0  0  0
   17.5251   27.5253   39.6665 C   0  0  2  0  0  0  0  0  0  0  0  0
   16.7965   28.2722   40.5227 N   0  0  0  0  0  0  0  0  0  0  0  0
   18.1290   28.1460   38.6312 N   0  0  0  0  0  0  0  0  0  0  0  0
   18.8719   27.4635   37.7365 C   0  0  1  0  0  0  0  0  0  0  0  0
   19.0326   26.1034   37.8676 C   0  0  1  0  0  0  0  0  0  0  0  0
   18.3626   25.4314   39.0082 C   0  0  0  0  0  0  0  0  0  0  0  0
   18.4733   24.1978   39.1826 O   0  0  0  0  0  0  0  0  0  0  0  0
   19.8078   25.6839   36.8529 N   0  0  0  0  0  0  0  0  0  0  0  0
   20.1165   26.7740   36.1133 C   0  0  0  0  0  0  0  0  0  0  0  0
   19.5380   27.8544   36.6621 N   0  0  1  0  0  0  0  0  0  0  0  0
  1  2  1  0  0  0  0
  3  1  1  6  0  0  0
  3  4  1  0  0  0  0
  3  5  1  0  0  0  0
  5  6  1  1  0  0  0
  5  7  1  0  0  0  0
  7  8  1  0  0  0  0
  8  4  1  6  0  0  0
  8 19  1  0  0  0  0
  9 15  1  0  0  0  0
  9 10  1  0  0  0  0
 10 11  1  6  0  0  0
 10 12  1  0  0  0  0
 13 12  1  6  0  0  0
 13 14  1  0  0  0  0
 13 19  1  0  0  0  0
 14 15  1  6  0  0  0
 14 17  1  0  0  0  0
 15 16  2  0  0  0  0
 17 18  1  0  0  0  0
 19 18  1  6  0  0  0
M  END
>  <CHROM.1>
-57.90930137,-74.03968353,18.83814412,27.97548734,36.66850919,-1.03888250
-1.17746546,2.69865111

>  <Name>
ligand

>  <RI>
0

>  <Rbt.Current_Directory>
/home/itssahil/PROJECTS/Mol_Feturizer/New_Systems/rnas/3SKL

>  <Rbt.Executable>
rbdock ($Id: //depot/dev/client3/rdock/2013.1/src/exe/rbdock.cxx#4 $)

>  <Rbt.Library>
libRbt.so (2013.1, Build901 2013/11/27)

>  <Rbt.Parameter_File>
/export/apps/rDock/src/rDock_2013.1_src/data/scripts/dock_solv.prm

>  <Rbt.Receptor>
prm/pocket_docking_8.prm

>  <SCORE>
-17.0696

>  <SCORE.INTER>
-16.9319

>  <SCORE.INTER.CONST>
1

>  <SCORE.INTER.POLAR>
0

>  <SCORE.INTER.ROT>
2

>  <SCORE.INTER.SOLV>
16.7179

>  <SCORE.INTER.VDW>
-21.7939

>  <SCORE.INTER.norm>
-0.891154

>  <SCORE.INTRA>
-0.137652

>  <SCORE.INTRA.DIHEDRAL>
-0.29889

>  <SCORE.INTRA.DIHEDRAL.0>
1.50031

>  <SCORE.INTRA.POLAR>
0

>  <SCORE.INTRA.POLAR.0>
0

>  <SCORE.INTRA.REPUL>
0

>  <SCORE.INTRA.REPUL.0>
0

>  <SCORE.INTRA.SOLV>
0.0173933

>  <SCORE.INTRA.SOLV.lig_0>
-37.9941

>  <SCORE.INTRA.VDW>
0.00309611

>  <SCORE.INTRA.VDW.0>
-0.964461

>  <SCORE.INTRA.norm>
-0.00724484

>  <SCORE.RESTR>
0

>  <SCORE.RESTR.CAVITY>
0

>  <SCORE.RESTR.norm>
0

>  <SCORE.SYSTEM>
0

>  <SCORE.SYSTEM.CONST>
0

>  <SCORE.SYSTEM.DIHEDRAL>
0

>  <SCORE.SYSTEM.SOLV>
0

>  <SCORE.SYSTEM.norm>
0

>  <SCORE.heavy>
19

>  <SCORE.norm>
-0.898399

>  <RMSD>
0.678

$$$$
ligand
 OpenBabel11021811483D
libRbt.so/2013.1/901 2013/11/27
 19 21  0  0  0  0  0  0  0  0999 V2000
   17.8365   29.1134   33.1879 C   0  0  0  0  0  0  0  0  0  0  0  0
   18.4766   27.8318   33.3165 O   0  0  0  0  0  0  0  0  0  0  0  0
   18.3539   30.1016   34.2384 C   0  0  1  0  0  0  0  0  0  0  0  0
   18.1412   29.5913   35.5543 O   0  0  0  0  0  0  0  0  0  0  0  0
   19.8436   30.3495   34.0958 C   0  0  1  0  0  0  0  0  0  0  0  0
   20.0796   31.7535   34.2097 O   0  0  0  0  0  0  0  0  0  0  0  0
   20.5118   29.6447   35.2546 C   0  0  0  0  0  0  0  0  0  0  0  0
   19.3859   29.3409   36.2262 C   0  0  2  0  0  0  0  0  0  0  0  0
   17.6909   26.1578   39.9346 N   0  0  0  0  0  0  0  0  0  0  0  0
   17.5189   27.4908   39.7639 C   0  0  2  0  0  0  0  0  0  0  0  0
   16.7912   28.1993   40.6527 N   0  0  0  0  0  0  0  0  0  0  0  0
   18.0598   28.1451   38.7145 N   0  0  0  0  0  0  0  0  0  0  0  0
   18.7978   27.5018   37.7872 C   0  0  1  0  0  0  0  0  0  0  0  0
   19.0186   26.1483   37.8985 C   0  0  1  0  0  0  0  0  0  0  0  0
   18.4174   25.4392   39.0549 C   0  0  0  0  0  0  0  0  0  0  0  0
   18.5846   24.2096   39.2125 O   0  0  0  0  0  0  0  0  0  0  0  0
   19.7738   25.7703   36.8530 N   0  0  0  0  0  0  0  0  0  0  0  0
   20.0112   26.8788   36.1144 C   0  0  0  0  0  0  0  0  0  0  0  0
   19.4089   27.9294   36.6943 N   0  0  1  0  0  0  0  0  0  0  0  0
  1  2  1  0  0  0  0
  3  1  1  6  0  0  0
  3  4  1  0  0  0  0
  3  5  1  0  0  0  0
  5  6  1  1  0  0  0
  5  7  1  0  0  0  0
  7  8  1  0  0  0  0
  8  4  1  6  0  0  0
  8 19  1  0  0  0  0
  9 15  1  0  0  0  0
  9 10  1  0  0  0  0
 10 11  1  6  0  0  0
 10 12  1  0  0  0  0
 13 12  1  6  0  0  0
 13 14  1  0  0  0  0
 13 19  1  0  0  0  0
 14 15  1  6  0  0  0
 14 17  1  0  0  0  0
 15 16  2  0  0  0  0
 17 18  1  0  0  0  0
 19 18  1  6  0  0  0
M  END
>  <CHROM.1>
-58.00969560,-79.71352548,18.77132500,28.01725882,36.71028710,-1.07928739
-1.21058630,2.66765094

>  <Name>
ligand

>  <RI>
0

>  <Rbt.Current_Directory>
/home/itssahil/PROJECTS/Mol_Feturizer/New_Systems/rnas/3SKL

>  <Rbt.Executable>
rbdock ($Id: //depot/dev/client3/rdock/2013.1/src/exe/rbdock.cxx#4 $)

>  <Rbt.Library>
libRbt.so (2013.1, Build901 2013/11/27)

>  <Rbt.Parameter_File>
/export/apps/rDock/src/rDock_2013.1_src/data/scripts/dock_solv.prm

>  <Rbt.Receptor>
prm/pocket_docking_5.prm

>  <SCORE>
-17.1375

>  <SCORE.INTER>
-16.9393

>  <SCORE.INTER.CONST>
1

>  <SCORE.INTER.POLAR>
0

>  <SCORE.INTER.ROT>
2

>  <SCORE.INTER.SOLV>
16.998

>  <SCORE.INTER.VDW>
-21.8922

>  <SCORE.INTER.norm>
-0.891543

>  <SCORE.INTRA>
-0.198135

>  <SCORE.INTRA.DIHEDRAL>
-0.30496

>  <SCORE.INTRA.DIHEDRAL.0>
1.50031

>  <SCORE.INTRA.POLAR>
0

>  <SCORE.INTRA.POLAR.0>
0

>  <SCORE.INTRA.REPUL>
0

>  <SCORE.INTRA.REPUL.0>
0

>  <SCORE.INTRA.SOLV>
0.0220343

>  <SCORE.INTRA.SOLV.lig_0>
-37.9941

>  <SCORE.INTRA.VDW>
-0.0566717

>  <SCORE.INTRA.VDW.0>
-0.964461

>  <SCORE.INTRA.norm>
-0.0104281

>  <SCORE.RESTR>
0

>  <SCORE.RESTR.CAVITY>
0

>  <SCORE.RESTR.norm>
0

>  <SCORE.SYSTEM>
0

>  <SCORE.SYSTEM.CONST>
0

>  <SCORE.SYSTEM.DIHEDRAL>
0

>  <SCORE.SYSTEM.SOLV>
0

>  <SCORE.SYSTEM.norm>
0

>  <SCORE.heavy>
19

>  <SCORE.norm>
-0.901971

>  <RMSD>
0.682

$$$$
ligand
 OpenBabel11021811483D
libRbt.so/2013.1/901 2013/11/27
 19 21  0  0  0  0  0  0  0  0999 V2000
   17.4854   28.4808   33.3005 C   0  0  0  0  0  0  0  0  0  0  0  0
   17.5633   28.8121   31.9030 O   0  0  0  0  0  0  0  0  0  0  0  0
   18.1533   29.5553   34.1650 C   0  0  1  0  0  0  0  0  0  0  0  0
   18.0668   29.2113   35.5476 O   0  0  0  0  0  0  0  0  0  0  0  0
   19.6268   29.7079   33.8387 C   0  0  1  0  0  0  0  0  0  0  0  0
   19.9283   31.1016   33.7582 O   0  0  0  0  0  0  0  0  0  0  0  0
   20.3903   29.1074   34.9973 C   0  0  0  0  0  0  0  0  0  0  0  0
   19.3672   28.9759   36.1107 C   0  0  2  0  0  0  0  0  0  0  0  0
   17.7568   26.2770   40.2193 N   0  0  0  0  0  0  0  0  0  0  0  0
   17.5976   27.5839   39.8995 C   0  0  2  0  0  0  0  0  0  0  0  0
   16.9110   28.4041   40.7227 N   0  0  0  0  0  0  0  0  0  0  0  0
   18.1111   28.1018   38.7637 N   0  0  0  0  0  0  0  0  0  0  0  0
   18.8075   27.3419   37.8945 C   0  0  1  0  0  0  0  0  0  0  0  0
   19.0131   26.0068   38.1560 C   0  0  1  0  0  0  0  0  0  0  0  0
   18.4423   25.4480   39.4064 C   0  0  0  0  0  0  0  0  0  0  0  0
   18.5976   24.2423   39.7011 O   0  0  0  0  0  0  0  0  0  0  0  0
   19.7264   25.4961   37.1378 N   0  0  0  0  0  0  0  0  0  0  0  0
   19.9537   26.5067   36.2672 C   0  0  0  0  0  0  0  0  0  0  0  0
   19.3865   27.6283   36.7396 N   0  0  1  0  0  0  0  0  0  0  0  0
  1  2  1  0  0  0  0
  3  1  1  6  0  0  0
  3  4  1  0  0  0  0
  3  5  1  0  0  0  0
  5  6  1  1  0  0  0
  5  7  1  0  0  0  0
  7  8  1  0  0  0  0
  8  4  1  6  0  0  0
  8 19  1  0  0  0  0
  9 15  1  0  0  0  0
  9 10  1  0  0  0  0
 10 11  1  6  0  0  0
 10 12  1  0  0  0  0
 13 12  1  6  0  0  0
 13 14  1  0  0  0  0
 13 19  1  0  0  0  0
 14 15  1  6  0  0  0
 14 17  1  0  0  0  0
 15 16  2  0  0  0  0
 17 18  1  0  0  0  0
 19 18  1  6  0  0  0
M  END
>  <CHROM.1>
179.98867149,-75.14726397,18.66650994,27.83379374,36.68113910,-1.34903105
-1.17818199,2.28129674

>  <Name>
ligand

>  <RI>
0

>  <Rbt.Current_Directory>
/home/itssahil/PROJECTS/Mol_Feturizer/New_Systems/rnas/3SKL

>  <Rbt.Executable>
rbdock ($Id: //depot/dev/client3/rdock/2013.1/src/exe/rbdock.cxx#4 $)

>  <Rbt.Library>
libRbt.so (2013.1, Build901 2013/11/27)

>  <Rbt.Parameter_File>
/export/apps/rDock/src/rDock_2013.1_src/data/scripts/dock_solv.prm

>  <Rbt.Receptor>
prm/pocket_docking_2.prm

>  <SCORE>
-16.4477

>  <SCORE.INTER>
-16.4367

>  <SCORE.INTER.CONST>
1

>  <SCORE.INTER.POLAR>
0

>  <SCORE.INTER.ROT>
2

>  <SCORE.INTER.SOLV>
17.0457

>  <SCORE.INTER.VDW>
-21.573

>  <SCORE.INTER.norm>
-0.865088

>  <SCORE.INTRA>
-0.0110403

>  <SCORE.INTRA.DIHEDRAL>
-0.316339

>  <SCORE.INTRA.DIHEDRAL.0>
1.50031

>  <SCORE.INTRA.POLAR>
0

>  <SCORE.INTRA.POLAR.0>
0

>  <SCORE.INTRA.REPUL>
0

>  <SCORE.INTRA.REPUL.0>
0

>  <SCORE.INTRA.SOLV>
-0.436222

>  <SCORE.INTRA.SOLV.lig_0>
-37.9941

>  <SCORE.INTRA.VDW>
0.36524

>  <SCORE.INTRA.VDW.0>
-0.964461

>  <SCORE.INTRA.norm>
-0.000581068

>  <SCORE.RESTR>
0

>  <SCORE.RESTR.CAVITY>
0

>  <SCORE.RESTR.norm>
0

>  <SCORE.SYSTEM>
0

>  <SCORE.SYSTEM.CONST>
0

>  <SCORE.SYSTEM.DIHEDRAL>
0

>  <SCORE.SYSTEM.SOLV>
0

>  <SCORE.SYSTEM.norm>
0

>  <SCORE.heavy>
19

>  <SCORE.norm>
-0.865669

>  <RMSD>
0.685

$$$$
ligand
 OpenBabel11021811483D
libRbt.so/2013.1/901 2013/11/27
 19 21  0  0  0  0  0  0  0  0999 V2000
   17.8797   28.4551   33.0305 C   0  0  0  0  0  0  0  0  0  0  0  0
   16.4804   28.2290   33.2746 O   0  0  0  0  0  0  0  0  0  0  0  0
   18.4430   29.5246   33.9722 C   0  0  1  0  0  0  0  0  0  0  0  0
   18.2088   29.1669   35.3340 O   0  0  0  0  0  0  0  0  0  0  0  0
   19.9423   29.6877   33.8094 C   0  0  1  0  0  0  0  0  0  0  0  0
   20.2424   31.0836   33.7748 O   0  0  0  0  0  0  0  0  0  0  0  0
   20.5790   29.0801   35.0388 C   0  0  0  0  0  0  0  0  0  0  0  0
   19.4417   28.9327   36.0331 C   0  0  2  0  0  0  0  0  0  0  0  0
   17.7082   26.2660   40.1125 N   0  0  0  0  0  0  0  0  0  0  0  0
   17.6073   27.5818   39.8059 C   0  0  2  0  0  0  0  0  0  0  0  0
   16.9564   28.4231   40.6368 N   0  0  0  0  0  0  0  0  0  0  0  0
   18.1447   28.0881   38.6759 N   0  0  0  0  0  0  0  0  0  0  0  0
   18.8081   27.3070   37.7996 C   0  0  1  0  0  0  0  0  0  0  0  0
   18.9541   25.9615   38.0477 C   0  0  1  0  0  0  0  0  0  0  0  0
   18.3576   25.4158   39.2918 C   0  0  0  0  0  0  0  0  0  0  0  0
   18.4591   24.2015   39.5744 O   0  0  0  0  0  0  0  0  0  0  0  0
   19.6456   25.4302   37.0250 N   0  0  0  0  0  0  0  0  0  0  0  0
   19.9184   26.4386   36.1650 C   0  0  0  0  0  0  0  0  0  0  0  0
   19.4006   27.5792   36.6483 N   0  0  1  0  0  0  0  0  0  0  0  0
  1  2  1  0  0  0  0
  3  1  1  6  0  0  0
  3  4  1  0  0  0  0
  3  5  1  0  0  0  0
  5  6  1  1  0  0  0
  5  7  1  0  0  0  0
  7  8  1  0  0  0  0
  8  4  1  6  0  0  0
  8 19  1  0  0  0  0
  9 15  1  0  0  0  0
  9 10  1  0  0  0  0
 10 11  1  6  0  0  0
 10 12  1  0  0  0  0
 13 12  1  6  0  0  0
 13 14  1  0  0  0  0
 13 19  1  0  0  0  0
 14 15  1  6  0  0  0
 14 17  1  0  0  0  0
 15 16  2  0  0  0  0
 17 18  1  0  0  0  0
 19 18  1  6  0  0  0
M  END
>  <CHROM.1>
55.95554273,-81.95152790,18.67512604,27.76934682,36.66850029,-1.21305283
-1.20084707,2.43830042

>  <Name>
ligand

>  <RI>
0

>  <Rbt.Current_Directory>
/home/itssahil/PROJECTS/Mol_Feturizer/New_Systems/rnas/3SKL

>  <Rbt.Executable>
rbdock ($Id: //depot/dev/client3/rdock/2013.1/src/exe/rbdock.cxx#4 $)

>  <Rbt.Library>
libRbt.so (2013.1, Build901 2013/11/27)

>  <Rbt.Parameter_File>
/export/apps/rDock/src/rDock_2013.1_src/data/scripts/dock_solv.prm

>  <Rbt.Receptor>
prm/pocket_docking_2.prm

>  <SCORE>
-16.1816

>  <SCORE.INTER>
-16.0189

>  <SCORE.INTER.CONST>
1

>  <SCORE.INTER.POLAR>
0

>  <SCORE.INTER.ROT>
2

>  <SCORE.INTER.SOLV>
16.3512

>  <SCORE.INTER.VDW>
-21.063

>  <SCORE.INTER.norm>
-0.843098

>  <SCORE.INTRA>
-0.162781

>  <SCORE.INTRA.DIHEDRAL>
-0.26346

>  <SCORE.INTRA.DIHEDRAL.0>
1.50031

>  <SCORE.INTRA.POLAR>
0

>  <SCORE.INTRA.POLAR.0>
0

>  <SCORE.INTRA.REPUL>
0

>  <SCORE.INTRA.REPUL.0>
0

>  <SCORE.INTRA.SOLV>
-0.515156

>  <SCORE.INTRA.SOLV.lig_0>
-37.9941

>  <SCORE.INTRA.VDW>
0.226527

>  <SCORE.INTRA.VDW.0>
-0.964461

>  <SCORE.INTRA.norm>
-0.0085674

>  <SCORE.RESTR>
0

>  <SCORE.RESTR.CAVITY>
0

>  <SCORE.RESTR.norm>
0

>  <SCORE.SYSTEM>
0

>  <SCORE.SYSTEM.CONST>
0

>  <SCORE.SYSTEM.DIHEDRAL>
0

>  <SCORE.SYSTEM.SOLV>
0

>  <SCORE.SYSTEM.norm>
0

>  <SCORE.heavy>
19

>  <SCORE.norm>
-0.851665

>  <RMSD>
0.689

$$$$
ligand
 OpenBabel11021811483D
libRbt.so/2013.1/901 2013/11/27
 19 21  0  0  0  0  0  0  0  0999 V2000
   17.8216   28.4239   33.1339 C   0  0  0  0  0  0  0  0  0  0  0  0
   16.4321   28.1740   33.4088 O   0  0  0  0  0  0  0  0  0  0  0  0
   18.3828   29.5153   34.0515 C   0  0  1  0  0  0  0  0  0  0  0  0
   18.1760   29.1732   35.4218 O   0  0  0  0  0  0  0  0  0  0  0  0
   19.8765   29.6997   33.8623 C   0  0  1  0  0  0  0  0  0  0  0  0
   20.1536   31.0995   33.8035 O   0  0  0  0  0  0  0  0  0  0  0  0
   20.5423   29.1195   35.0895 C   0  0  0  0  0  0  0  0  0  0  0  0
   19.4234   28.9683   36.1040 C   0  0  2  0  0  0  0  0  0  0  0  0
   17.7540   26.3208   40.2225 N   0  0  0  0  0  0  0  0  0  0  0  0
   17.6228   27.6295   39.8973 C   0  0  2  0  0  0  0  0  0  0  0  0
   16.9533   28.4674   40.7168 N   0  0  0  0  0  0  0  0  0  0  0  0
   18.1477   28.1318   38.7598 N   0  0  0  0  0  0  0  0  0  0  0  0
   18.8283   27.3537   37.8940 C   0  0  1  0  0  0  0  0  0  0  0  0
   19.0054   26.0156   38.1610 C   0  0  1  0  0  0  0  0  0  0  0  0
   18.4222   25.4741   39.4133 C   0  0  0  0  0  0  0  0  0  0  0  0
   18.5517   24.2667   39.7131 O   0  0  0  0  0  0  0  0  0  0  0  0
   19.7082   25.4858   37.1454 N   0  0  0  0  0  0  0  0  0  0  0  0
   19.9574   26.4878   36.2709 C   0  0  0  0  0  0  0  0  0  0  0  0
   19.4138   27.6231   36.7384 N   0  0  1  0  0  0  0  0  0  0  0  0
  1  2  1  0  0  0  0
  3  1  1  6  0  0  0
  3  4  1  0  0  0  0
  3  5  1  0  0  0  0
  5  6  1  1  0  0  0
  5  7  1  0  0  0  0
  7  8  1  0  0  0  0
  8  4  1  6  0  0  0
  8 19  1  0  0  0  0
  9 15  1  0  0  0  0
  9 10  1  0  0  0  0
 10 11  1  6  0  0  0
 10 12  1  0  0  0  0
 13 12  1  6  0  0  0
 13 14  1  0  0  0  0
 13 19  1  0  0  0  0
 14 15  1  6  0  0  0
 14 17  1  0  0  0  0
 15 16  2  0  0  0  0
 17 18  1  0  0  0  0
 19 18  1  6  0  0  0
M  END
>  <CHROM.1>
55.62999920,-80.98516948,18.67338003,27.79844524,36.76094572,-1.29622459
-1.14884009,2.34486645

>  <Name>
ligand

>  <RI>
0

>  <Rbt.Current_Directory>
/home/itssahil/PROJECTS/Mol_Feturizer/New_Systems/rnas/3SKL

>  <Rbt.Executable>
rbdock ($Id: //depot/dev/client3/rdock/2013.1/src/exe/rbdock.cxx#4 $)

>  <Rbt.Library>
libRbt.so (2013.1, Build901 2013/11/27)

>  <Rbt.Parameter_File>
/export/apps/rDock/src/rDock_2013.1_src/data/scripts/dock_solv.prm

>  <Rbt.Receptor>
prm/pocket_docking_2.prm

>  <SCORE>
-16.1965

>  <SCORE.INTER>
-16.0514

>  <SCORE.INTER.CONST>
1

>  <SCORE.INTER.POLAR>
0

>  <SCORE.INTER.ROT>
2

>  <SCORE.INTER.SOLV>
16.5284

>  <SCORE.INTER.VDW>
-21.1437

>  <SCORE.INTER.norm>
-0.844808

>  <SCORE.INTRA>
-0.14517

>  <SCORE.INTRA.DIHEDRAL>
-0.25321

>  <SCORE.INTRA.DIHEDRAL.0>
1.50031

>  <SCORE.INTRA.POLAR>
0

>  <SCORE.INTRA.POLAR.0>
0

>  <SCORE.INTRA.REPUL>
0

>  <SCORE.INTRA.REPUL.0>
0

>  <SCORE.INTRA.SOLV>
-0.512859

>  <SCORE.INTRA.SOLV.lig_0>
-37.9941

>  <SCORE.INTRA.VDW>
0.237865

>  <SCORE.INTRA.VDW.0>
-0.964461

>  <SCORE.INTRA.norm>
-0.00764051

>  <SCORE.RESTR>
0

>  <SCORE.RESTR.CAVITY>
0

>  <SCORE.RESTR.norm>
0

>  <SCORE.SYSTEM>
0

>  <SCORE.SYSTEM.CONST>
0

>  <SCORE.SYSTEM.DIHEDRAL>
0

>  <SCORE.SYSTEM.SOLV>
0

>  <SCORE.SYSTEM.norm>
0

>  <SCORE.heavy>
19

>  <SCORE.norm>
-0.852449

>  <RMSD>
0.690

$$$$
ligand
 OpenBabel11021811483D
libRbt.so/2013.1/901 2013/11/27
 19 21  0  0  0  0  0  0  0  0999 V2000
   17.9825   29.1345   33.2070 C   0  0  0  0  0  0  0  0  0  0  0  0
   18.5947   27.8404   33.3451 O   0  0  0  0  0  0  0  0  0  0  0  0
   18.4910   30.1074   34.2760 C   0  0  1  0  0  0  0  0  0  0  0  0
   18.2327   29.5955   35.5832 O   0  0  0  0  0  0  0  0  0  0  0  0
   19.9886   30.3261   34.1747 C   0  0  1  0  0  0  0  0  0  0  0  0
   20.2493   31.7245   34.3021 O   0  0  0  0  0  0  0  0  0  0  0  0
   20.6111   29.6027   35.3474 C   0  0  0  0  0  0  0  0  0  0  0  0
   19.4537   29.3172   36.2869 C   0  0  2  0  0  0  0  0  0  0  0  0
   17.6559   26.1642   39.9727 N   0  0  0  0  0  0  0  0  0  0  0  0
   17.5212   27.5022   39.8076 C   0  0  2  0  0  0  0  0  0  0  0  0
   16.8092   28.2263   40.6968 N   0  0  0  0  0  0  0  0  0  0  0  0
   18.0844   28.1464   38.7637 N   0  0  0  0  0  0  0  0  0  0  0  0
   18.8086   27.4875   37.8365 C   0  0  1  0  0  0  0  0  0  0  0  0
   18.9917   26.1280   37.9422 C   0  0  1  0  0  0  0  0  0  0  0  0
   18.3663   25.4302   39.0926 C   0  0  0  0  0  0  0  0  0  0  0  0
   18.4991   24.1958   39.2449 O   0  0  0  0  0  0  0  0  0  0  0  0
   19.7409   25.7343   36.8981 N   0  0  0  0  0  0  0  0  0  0  0  0
   20.0119   26.8394   36.1659 C   0  0  0  0  0  0  0  0  0  0  0  0
   19.4359   27.9034   36.7482 N   0  0  1  0  0  0  0  0  0  0  0  0
  1  2  1  0  0  0  0
  3  1  1  6  0  0  0
  3  4  1  0  0  0  0
  3  5  1  0  0  0  0
  5  6  1  1  0  0  0
  5  7  1  0  0  0  0
  7  8  1  0  0  0  0
  8  4  1  6  0  0  0
  8 19  1  0  0  0  0
  9 15  1  0  0  0  0
  9 10  1  0  0  0  0
 10 11  1  6  0  0  0
 10 12  1  0  0  0  0
 13 12  1  6  0  0  0
 13 14  1  0  0  0  0
 13 19  1  0  0  0  0
 14 15  1  6  0  0  0
 14 17  1  0  0  0  0
 15 16  2  0  0  0  0
 17 18  1  0  0  0  0
 19 18  1  6  0  0  0
M  END
>  <CHROM.1>
-58.09232682,-81.07473724,18.81707216,28.00748213,36.75904205,-0.97873507
-1.22050476,2.76586438

>  <Name>
ligand

>  <RI>
0

>  <Rbt.Current_Directory>
/home/itssahil/PROJECTS/Mol_Feturizer/New_Systems/rnas/3SKL

>  <Rbt.Executable>
rbdock ($Id: //depot/dev/client3/rdock/2013.1/src/exe/rbdock.cxx#4 $)

>  <Rbt.Library>
libRbt.so (2013.1, Build901 2013/11/27)

>  <Rbt.Parameter_File>
/export/apps/rDock/src/rDock_2013.1_src/data/scripts/dock_solv.prm

>  <Rbt.Receptor>
prm/pocket_docking_5.prm

>  <SCORE>
-17.0736

>  <SCORE.INTER>
-16.8599

>  <SCORE.INTER.CONST>
1

>  <SCORE.INTER.POLAR>
0

>  <SCORE.INTER.ROT>
2

>  <SCORE.INTER.SOLV>
16.8911

>  <SCORE.INTER.VDW>
-21.8036

>  <SCORE.INTER.norm>
-0.887363

>  <SCORE.INTRA>
-0.213734

>  <SCORE.INTRA.DIHEDRAL>
-0.306972

>  <SCORE.INTRA.DIHEDRAL.0>
1.50031

>  <SCORE.INTRA.POLAR>
0

>  <SCORE.INTRA.POLAR.0>
0

>  <SCORE.INTRA.REPUL>
0

>  <SCORE.INTRA.REPUL.0>
0

>  <SCORE.INTRA.SOLV>
0.0230263

>  <SCORE.INTRA.SOLV.lig_0>
-37.9941

>  <SCORE.INTRA.VDW>
-0.0717613

>  <SCORE.INTRA.VDW.0>
-0.964461

>  <SCORE.INTRA.norm>
-0.0112492

>  <SCORE.RESTR>
0

>  <SCORE.RESTR.CAVITY>
0

>  <SCORE.RESTR.norm>
0

>  <SCORE.SYSTEM>
0

>  <SCORE.SYSTEM.CONST>
0

>  <SCORE.SYSTEM.DIHEDRAL>
0

>  <SCORE.SYSTEM.SOLV>
0

>  <SCORE.SYSTEM.norm>
0

>  <SCORE.heavy>
19

>  <SCORE.norm>
-0.898612

>  <RMSD>
0.694

$$$$
ligand
 OpenBabel11021811483D
libRbt.so/2013.1/901 2013/11/27
 19 21  0  0  0  0  0  0  0  0999 V2000
   17.8364   29.1251   33.2532 C   0  0  0  0  0  0  0  0  0  0  0  0
   18.4698   27.8426   33.4038 O   0  0  0  0  0  0  0  0  0  0  0  0
   18.3404   30.1211   34.3029 C   0  0  1  0  0  0  0  0  0  0  0  0
   18.1232   29.6145   35.6196 O   0  0  0  0  0  0  0  0  0  0  0  0
   19.8292   30.3789   34.1684 C   0  0  1  0  0  0  0  0  0  0  0  0
   20.0546   31.7850   34.2782 O   0  0  0  0  0  0  0  0  0  0  0  0
   20.4952   29.6834   35.3341 C   0  0  0  0  0  0  0  0  0  0  0  0
   19.3655   29.3756   36.3000 C   0  0  2  0  0  0  0  0  0  0  0  0
   17.6731   26.1959   40.0126 N   0  0  0  0  0  0  0  0  0  0  0  0
   17.4931   27.5270   39.8356 C   0  0  2  0  0  0  0  0  0  0  0  0
   16.7561   28.2342   40.7180 N   0  0  0  0  0  0  0  0  0  0  0  0
   18.0349   28.1808   38.7863 N   0  0  0  0  0  0  0  0  0  0  0  0
   18.7818   27.5388   37.8654 C   0  0  1  0  0  0  0  0  0  0  0  0
   19.0110   26.1872   37.9832 C   0  0  1  0  0  0  0  0  0  0  0  0
   18.4088   25.4787   39.1394 C   0  0  0  0  0  0  0  0  0  0  0  0
   18.5834   24.2509   39.3027 O   0  0  0  0  0  0  0  0  0  0  0  0
   19.7740   25.8101   36.9430 N   0  0  0  0  0  0  0  0  0  0  0  0
   20.0078   26.9172   36.2011 C   0  0  0  0  0  0  0  0  0  0  0  0
   19.3955   27.9661   36.7738 N   0  0  1  0  0  0  0  0  0  0  0  0
  1  2  1  0  0  0  0
  3  1  1  6  0  0  0
  3  4  1  0  0  0  0
  3  5  1  0  0  0  0
  5  6  1  1  0  0  0
  5  7  1  0  0  0  0
  7  8  1  0  0  0  0
  8  4  1  6  0  0  0
  8 19  1  0  0  0  0
  9 15  1  0  0  0  0
  9 10  1  0  0  0  0
 10 11  1  6  0  0  0
 10 12  1  0  0  0  0
 13 12  1  6  0  0  0
 13 14  1  0  0  0  0
 13 19  1  0  0  0  0
 14 15  1  6  0  0  0
 14 17  1  0  0  0  0
 15 16  2  0  0  0  0
 17 18  1  0  0  0  0
 19 18  1  6  0  0  0
M  END
>  <CHROM.1>
-57.12651870,-79.77985848,18.75718883,28.04933766,36.78692148,-1.08800280
-1.20383005,2.65601906

>  <Name>
ligand

>  <RI>
0

>  <Rbt.Current_Directory>
/home/itssahil/PROJECTS/Mol_Feturizer/New_Systems/rnas/3SKL

>  <Rbt.Executable>
rbdock ($Id: //depot/dev/client3/rdock/2013.1/src/exe/rbdock.cxx#4 $)

>  <Rbt.Library>
libRbt.so (2013.1, Build901 2013/11/27)

>  <Rbt.Parameter_File>
/export/apps/rDock/src/rDock_2013.1_src/data/scripts/dock_solv.prm

>  <Rbt.Receptor>
prm/pocket_docking_6.prm

>  <SCORE>
-17.0561

>  <SCORE.INTER>
-16.8593

>  <SCORE.INTER.CONST>
1

>  <SCORE.INTER.POLAR>
0

>  <SCORE.INTER.ROT>
2

>  <SCORE.INTER.SOLV>
17.2157

>  <SCORE.INTER.VDW>
-21.9114

>  <SCORE.INTER.norm>
-0.887333

>  <SCORE.INTRA>
-0.196792

>  <SCORE.INTRA.DIHEDRAL>
-0.289248

>  <SCORE.INTRA.DIHEDRAL.0>
1.50031

>  <SCORE.INTRA.POLAR>
0

>  <SCORE.INTRA.POLAR.0>
0

>  <SCORE.INTRA.REPUL>
0

>  <SCORE.INTRA.REPUL.0>
0

>  <SCORE.INTRA.SOLV>
0.0237169

>  <SCORE.INTRA.SOLV.lig_0>
-37.9941

>  <SCORE.INTRA.VDW>
-0.0640263

>  <SCORE.INTRA.VDW.0>
-0.964461

>  <SCORE.INTRA.norm>
-0.0103575

>  <SCORE.RESTR>
0

>  <SCORE.RESTR.CAVITY>
0

>  <SCORE.RESTR.norm>
0

>  <SCORE.SYSTEM>
0

>  <SCORE.SYSTEM.CONST>
0

>  <SCORE.SYSTEM.DIHEDRAL>
0

>  <SCORE.SYSTEM.SOLV>
0

>  <SCORE.SYSTEM.norm>
0

>  <SCORE.heavy>
19

>  <SCORE.norm>
-0.897691

>  <RMSD>
0.694

$$$$
ligand
 OpenBabel11021811483D
libRbt.so/2013.1/901 2013/11/27
 19 21  0  0  0  0  0  0  0  0999 V2000
   17.8401   28.3923   33.0092 C   0  0  0  0  0  0  0  0  0  0  0  0
   16.4435   28.1260   33.2265 O   0  0  0  0  0  0  0  0  0  0  0  0
   18.3550   29.4753   33.9632 C   0  0  1  0  0  0  0  0  0  0  0  0
   18.1186   29.1014   35.3203 O   0  0  0  0  0  0  0  0  0  0  0  0
   19.8492   29.6921   33.8182 C   0  0  1  0  0  0  0  0  0  0  0  0
   20.1002   31.0979   33.7947 O   0  0  0  0  0  0  0  0  0  0  0  0
   20.4934   29.0998   35.0511 C   0  0  0  0  0  0  0  0  0  0  0  0
   19.3512   28.9066   36.0318 C   0  0  2  0  0  0  0  0  0  0  0  0
   17.7874   26.1861   40.1442 N   0  0  0  0  0  0  0  0  0  0  0  0
   17.6556   27.5019   39.8497 C   0  0  2  0  0  0  0  0  0  0  0  0
   17.0168   28.3271   40.7057 N   0  0  0  0  0  0  0  0  0  0  0  0
   18.1498   28.0241   38.7073 N   0  0  0  0  0  0  0  0  0  0  0  0
   18.7987   27.2595   37.8058 C   0  0  1  0  0  0  0  0  0  0  0  0
   18.9743   25.9152   38.0403 C   0  0  1  0  0  0  0  0  0  0  0  0
   18.4252   25.3519   39.2983 C   0  0  0  0  0  0  0  0  0  0  0  0
   18.5552   24.1377   39.5695 O   0  0  0  0  0  0  0  0  0  0  0  0
   19.6427   25.4018   36.9933 N   0  0  0  0  0  0  0  0  0  0  0  0
   19.8725   26.4198   36.1322 C   0  0  0  0  0  0  0  0  0  0  0  0
   19.3512   27.5488   36.6388 N   0  0  1  0  0  0  0  0  0  0  0  0
  1  2  1  0  0  0  0
  3  1  1  6  0  0  0
  3  4  1  0  0  0  0
  3  5  1  0  0  0  0
  5  6  1  1  0  0  0
  5  7  1  0  0  0  0
  7  8  1  0  0  0  0
  8  4  1  6  0  0  0
  8 19  1  0  0  0  0
  9 15  1  0  0  0  0
  9 10  1  0  0  0  0
 10 11  1  6  0  0  0
 10 12  1  0  0  0  0
 13 12  1  6  0  0  0
 13 14  1  0  0  0  0
 13 19  1  0  0  0  0
 14 15  1  6  0  0  0
 14 17  1  0  0  0  0
 15 16  2  0  0  0  0
 17 18  1  0  0  0  0
 19 18  1  6  0  0  0
M  END
>  <CHROM.1>
56.58712535,-84.57072797,18.65291447,27.72233163,36.67070074,-1.18079926
-1.29976620,2.48028816

>  <Name>
ligand

>  <RI>
0

>  <Rbt.Current_Directory>
/home/itssahil/PROJECTS/Mol_Feturizer/New_Systems/rnas/3SKL

>  <Rbt.Executable>
rbdock ($Id: //depot/dev/client3/rdock/2013.1/src/exe/rbdock.cxx#4 $)

>  <Rbt.Library>
libRbt.so (2013.1, Build901 2013/11/27)

>  <Rbt.Parameter_File>
/export/apps/rDock/src/rDock_2013.1_src/data/scripts/dock_solv.prm

>  <Rbt.Receptor>
prm/pocket_docking_2.prm

>  <SCORE>
-16.1725

>  <SCORE.INTER>
-15.9479

>  <SCORE.INTER.CONST>
1

>  <SCORE.INTER.POLAR>
0

>  <SCORE.INTER.ROT>
2

>  <SCORE.INTER.SOLV>
16.2282

>  <SCORE.INTER.VDW>
-20.9746

>  <SCORE.INTER.norm>
-0.839361

>  <SCORE.INTRA>
-0.224666

>  <SCORE.INTRA.DIHEDRAL>
-0.281308

>  <SCORE.INTRA.DIHEDRAL.0>
1.50031

>  <SCORE.INTRA.POLAR>
0

>  <SCORE.INTRA.POLAR.0>
0

>  <SCORE.INTRA.REPUL>
0

>  <SCORE.INTRA.REPUL.0>
0

>  <SCORE.INTRA.SOLV>
-0.520089

>  <SCORE.INTRA.SOLV.lig_0>
-37.9941

>  <SCORE.INTRA.VDW>
0.176033

>  <SCORE.INTRA.VDW.0>
-0.964461

>  <SCORE.INTRA.norm>
-0.0118245

>  <SCORE.RESTR>
0

>  <SCORE.RESTR.CAVITY>
0

>  <SCORE.RESTR.norm>
0

>  <SCORE.SYSTEM>
0

>  <SCORE.SYSTEM.CONST>
0

>  <SCORE.SYSTEM.DIHEDRAL>
0

>  <SCORE.SYSTEM.SOLV>
0

>  <SCORE.SYSTEM.norm>
0

>  <SCORE.heavy>
19

>  <SCORE.norm>
-0.851185

>  <RMSD>
0.696

$$$$
ligand
 OpenBabel11021811483D
libRbt.so/2013.1/901 2013/11/27
 19 21  0  0  0  0  0  0  0  0999 V2000
   17.8395   29.1273   33.1854 C   0  0  0  0  0  0  0  0  0  0  0  0
   18.4731   27.8428   33.3165 O   0  0  0  0  0  0  0  0  0  0  0  0
   18.3537   30.1116   34.2413 C   0  0  1  0  0  0  0  0  0  0  0  0
   18.1436   29.5930   35.5544 O   0  0  0  0  0  0  0  0  0  0  0  0
   19.8424   30.3659   34.0993 C   0  0  1  0  0  0  0  0  0  0  0  0
   20.0732   31.7700   34.2211 O   0  0  0  0  0  0  0  0  0  0  0  0
   20.5138   29.6570   35.2538 C   0  0  0  0  0  0  0  0  0  0  0  0
   19.3896   29.3435   36.2242 C   0  0  2  0  0  0  0  0  0  0  0  0
   17.7318   26.1385   39.9306 N   0  0  0  0  0  0  0  0  0  0  0  0
   17.5570   27.4723   39.7687 C   0  0  2  0  0  0  0  0  0  0  0  0
   16.8369   28.1753   40.6682 N   0  0  0  0  0  0  0  0  0  0  0  0
   18.0876   28.1328   38.7180 N   0  0  0  0  0  0  0  0  0  0  0  0
   18.8175   27.4953   37.7805 C   0  0  1  0  0  0  0  0  0  0  0  0
   19.0405   26.1415   37.8823 C   0  0  1  0  0  0  0  0  0  0  0  0
   18.4507   25.4254   39.0402 C   0  0  0  0  0  0  0  0  0  0  0  0
   18.6204   24.1952   39.1895 O   0  0  0  0  0  0  0  0  0  0  0  0
   19.7864   25.7698   36.8278 N   0  0  0  0  0  0  0  0  0  0  0  0
   20.0160   26.8826   36.0931 C   0  0  0  0  0  0  0  0  0  0  0  0
   19.4181   27.9295   36.6843 N   0  0  1  0  0  0  0  0  0  0  0  0
  1  2  1  0  0  0  0
  3  1  1  6  0  0  0
  3  4  1  0  0  0  0
  3  5  1  0  0  0  0
  5  6  1  1  0  0  0
  5  7  1  0  0  0  0
  7  8  1  0  0  0  0
  8  4  1  6  0  0  0
  8 19  1  0  0  0  0
  9 15  1  0  0  0  0
  9 10  1  0  0  0  0
 10 11  1  6  0  0  0
 10 12  1  0  0  0  0
 13 12  1  6  0  0  0
 13 14  1  0  0  0  0
 13 19  1  0  0  0  0
 14 15  1  6  0  0  0
 14 17  1  0  0  0  0
 15 16  2  0  0  0  0
 17 18  1  0  0  0  0
 19 18  1  6  0  0  0
M  END
>  <CHROM.1>
-57.33055385,-80.24102705,18.78617174,28.01609870,36.70604621,-1.08433771
-1.22015251,2.66848994

>  <Name>
ligand

>  <RI>
0

>  <Rbt.Current_Directory>
/home/itssahil/PROJECTS/Mol_Feturizer/New_Systems/rnas/3SKL

>  <Rbt.Executable>
rbdock ($Id: //depot/dev/client3/rdock/2013.1/src/exe/rbdock.cxx#4 $)

>  <Rbt.Library>
libRbt.so (2013.1, Build901 2013/11/27)

>  <Rbt.Parameter_File>
/export/apps/rDock/src/rDock_2013.1_src/data/scripts/dock_solv.prm

>  <Rbt.Receptor>
prm/pocket_docking_6.prm

>  <SCORE>
-17.1368

>  <SCORE.INTER>
-16.934

>  <SCORE.INTER.CONST>
1

>  <SCORE.INTER.POLAR>
0

>  <SCORE.INTER.ROT>
2

>  <SCORE.INTER.SOLV>
16.8855

>  <SCORE.INTER.VDW>
-21.8511

>  <SCORE.INTER.norm>
-0.891261

>  <SCORE.INTRA>
-0.202805

>  <SCORE.INTRA.DIHEDRAL>
-0.293674

>  <SCORE.INTRA.DIHEDRAL.0>
1.50031

>  <SCORE.INTRA.POLAR>
0

>  <SCORE.INTRA.POLAR.0>
0

>  <SCORE.INTRA.REPUL>
0

>  <SCORE.INTRA.REPUL.0>
0

>  <SCORE.INTRA.SOLV>
0.0237492

>  <SCORE.INTRA.SOLV.lig_0>
-37.9941

>  <SCORE.INTRA.VDW>
-0.0678424

>  <SCORE.INTRA.VDW.0>
-0.964461

>  <SCORE.INTRA.norm>
-0.0106739

>  <SCORE.RESTR>
0

>  <SCORE.RESTR.CAVITY>
0

>  <SCORE.RESTR.norm>
0

>  <SCORE.SYSTEM>
0

>  <SCORE.SYSTEM.CONST>
0

>  <SCORE.SYSTEM.DIHEDRAL>
0

>  <SCORE.SYSTEM.SOLV>
0

>  <SCORE.SYSTEM.norm>
0

>  <SCORE.heavy>
19

>  <SCORE.norm>
-0.901935

>  <RMSD>
0.698

$$$$
ligand
 OpenBabel11021811483D
libRbt.so/2013.1/901 2013/11/27
 19 21  0  0  0  0  0  0  0  0999 V2000
   17.8610   29.1873   33.3071 C   0  0  0  0  0  0  0  0  0  0  0  0
   18.4212   27.8667   33.4112 O   0  0  0  0  0  0  0  0  0  0  0  0
   18.4762   30.1356   34.3416 C   0  0  1  0  0  0  0  0  0  0  0  0
   18.2767   29.6336   35.6628 O   0  0  0  0  0  0  0  0  0  0  0  0
   19.9728   30.2889   34.1481 C   0  0  1  0  0  0  0  0  0  0  0  0
   20.3016   31.6744   34.2574 O   0  0  0  0  0  0  0  0  0  0  0  0
   20.6341   29.5375   35.2813 C   0  0  0  0  0  0  0  0  0  0  0  0
   19.5253   29.3014   36.2906 C   0  0  2  0  0  0  0  0  0  0  0  0
   17.6014   26.1873   39.9455 N   0  0  0  0  0  0  0  0  0  0  0  0
   17.4928   27.5270   39.7754 C   0  0  2  0  0  0  0  0  0  0  0  0
   16.7758   28.2649   40.6490 N   0  0  0  0  0  0  0  0  0  0  0  0
   18.0875   28.1593   38.7418 N   0  0  0  0  0  0  0  0  0  0  0  0
   18.8185   27.4862   37.8303 C   0  0  1  0  0  0  0  0  0  0  0  0
   18.9764   26.1240   37.9420 C   0  0  1  0  0  0  0  0  0  0  0  0
   18.3165   25.4393   39.0810 C   0  0  0  0  0  0  0  0  0  0  0  0
   18.4251   24.2032   39.2381 O   0  0  0  0  0  0  0  0  0  0  0  0
   19.7393   25.7154   36.9137 N   0  0  0  0  0  0  0  0  0  0  0  0
   20.0434   26.8142   36.1850 C   0  0  0  0  0  0  0  0  0  0  0  0
   19.4743   27.8890   36.7540 N   0  0  1  0  0  0  0  0  0  0  0  0
  1  2  1  0  0  0  0
  3  1  1  6  0  0  0
  3  4  1  0  0  0  0
  3  5  1  0  0  0  0
  5  6  1  1  0  0  0
  5  7  1  0  0  0  0
  7  8  1  0  0  0  0
  8  4  1  6  0  0  0
  8 19  1  0  0  0  0
  9 15  1  0  0  0  0
  9 10  1  0  0  0  0
 10 11  1  6  0  0  0
 10 12  1  0  0  0  0
 13 12  1  6  0  0  0
 13 14  1  0  0  0  0
 13 19  1  0  0  0  0
 14 15  1  6  0  0  0
 14 17  1  0  0  0  0
 15 16  2  0  0  0  0
 17 18  1  0  0  0  0
 19 18  1  6  0  0  0
M  END
>  <CHROM.1>
-57.94858758,-76.16975483,18.79958633,28.00928260,36.76329018,-1.00262314
-1.19699538,2.74430192

>  <Name>
ligand

>  <RI>
0

>  <Rbt.Current_Directory>
/home/itssahil/PROJECTS/Mol_Feturizer/New_Systems/rnas/3SKL

>  <Rbt.Executable>
rbdock ($Id: //depot/dev/client3/rdock/2013.1/src/exe/rbdock.cxx#4 $)

>  <Rbt.Library>
libRbt.so (2013.1, Build901 2013/11/27)

>  <Rbt.Parameter_File>
/export/apps/rDock/src/rDock_2013.1_src/data/scripts/dock_solv.prm

>  <Rbt.Receptor>
prm/pocket_docking_4.prm

>  <SCORE>
-17.0365

>  <SCORE.INTER>
-16.8772

>  <SCORE.INTER.CONST>
1

>  <SCORE.INTER.POLAR>
0

>  <SCORE.INTER.ROT>
2

>  <SCORE.INTER.SOLV>
17.0111

>  <SCORE.INTER.VDW>
-21.8552

>  <SCORE.INTER.norm>
-0.888273

>  <SCORE.INTRA>
-0.159341

>  <SCORE.INTRA.DIHEDRAL>
-0.301402

>  <SCORE.INTRA.DIHEDRAL.0>
1.50031

>  <SCORE.INTRA.POLAR>
0

>  <SCORE.INTRA.POLAR.0>
0

>  <SCORE.INTRA.REPUL>
0

>  <SCORE.INTRA.REPUL.0>
0

>  <SCORE.INTRA.SOLV>
0.0191373

>  <SCORE.INTRA.SOLV.lig_0>
-37.9941

>  <SCORE.INTRA.VDW>
-0.0182091

>  <SCORE.INTRA.VDW.0>
-0.964461

>  <SCORE.INTRA.norm>
-0.00838638

>  <SCORE.RESTR>
0

>  <SCORE.RESTR.CAVITY>
0

>  <SCORE.RESTR.norm>
0

>  <SCORE.SYSTEM>
0

>  <SCORE.SYSTEM.CONST>
0

>  <SCORE.SYSTEM.DIHEDRAL>
0

>  <SCORE.SYSTEM.SOLV>
0

>  <SCORE.SYSTEM.norm>
0

>  <SCORE.heavy>
19

>  <SCORE.norm>
-0.89666

>  <RMSD>
0.704

$$$$
ligand
 OpenBabel11021811483D
libRbt.so/2013.1/901 2013/11/27
 19 21  0  0  0  0  0  0  0  0999 V2000
   17.8252   28.4073   33.0353 C   0  0  0  0  0  0  0  0  0  0  0  0
   16.4273   28.1633   33.2693 O   0  0  0  0  0  0  0  0  0  0  0  0
   18.3659   29.4903   33.9748 C   0  0  1  0  0  0  0  0  0  0  0  0
   18.1525   29.1237   35.3376 O   0  0  0  0  0  0  0  0  0  0  0  0
   19.8587   29.6957   33.8006 C   0  0  1  0  0  0  0  0  0  0  0  0
   20.1193   31.0995   33.7666 O   0  0  0  0  0  0  0  0  0  0  0  0
   20.5218   29.1037   35.0237 C   0  0  0  0  0  0  0  0  0  0  0  0
   19.3969   28.9228   36.0265 C   0  0  2  0  0  0  0  0  0  0  0  0
   17.8051   26.2094   40.1329 N   0  0  0  0  0  0  0  0  0  0  0  0
   17.6685   27.5233   39.8315 C   0  0  2  0  0  0  0  0  0  0  0  0
   17.0153   28.3479   40.6771 N   0  0  0  0  0  0  0  0  0  0  0  0
   18.1718   28.0438   38.6924 N   0  0  0  0  0  0  0  0  0  0  0  0
   18.8352   27.2796   37.8013 C   0  0  1  0  0  0  0  0  0  0  0  0
   19.0165   25.9373   38.0431 C   0  0  1  0  0  0  0  0  0  0  0  0
   18.4571   25.3758   39.2975 C   0  0  0  0  0  0  0  0  0  0  0  0
   18.5916   24.1636   39.5751 O   0  0  0  0  0  0  0  0  0  0  0  0
   19.6995   25.4238   37.0057 N   0  0  0  0  0  0  0  0  0  0  0  0
   19.9324   26.4397   36.1429 C   0  0  0  0  0  0  0  0  0  0  0  0
   19.3986   27.5675   36.6391 N   0  0  1  0  0  0  0  0  0  0  0  0
  1  2  1  0  0  0  0
  3  1  1  6  0  0  0
  3  4  1  0  0  0  0
  3  5  1  0  0  0  0
  5  6  1  1  0  0  0
  5  7  1  0  0  0  0
  7  8  1  0  0  0  0
  8  4  1  6  0  0  0
  8 19  1  0  0  0  0
  9 15  1  0  0  0  0
  9 10  1  0  0  0  0
 10 11  1  6  0  0  0
 10 12  1  0  0  0  0
 13 12  1  6  0  0  0
 13 14  1  0  0  0  0
 13 19  1  0  0  0  0
 14 15  1  6  0  0  0
 14 17  1  0  0  0  0
 15 16  2  0  0  0  0
 17 18  1  0  0  0  0
 19 18  1  6  0  0  0
M  END
>  <CHROM.1>
57.26950371,-82.69793830,18.67748196,27.74094681,36.66964397,-1.27148789
-1.22381906,2.38677807

>  <Name>
ligand

>  <RI>
0

>  <Rbt.Current_Directory>
/home/itssahil/PROJECTS/Mol_Feturizer/New_Systems/rnas/3SKL

>  <Rbt.Executable>
rbdock ($Id: //depot/dev/client3/rdock/2013.1/src/exe/rbdock.cxx#4 $)

>  <Rbt.Library>
libRbt.so (2013.1, Build901 2013/11/27)

>  <Rbt.Parameter_File>
/export/apps/rDock/src/rDock_2013.1_src/data/scripts/dock_solv.prm

>  <Rbt.Receptor>
prm/pocket_docking_2.prm

>  <SCORE>
-16.2035

>  <SCORE.INTER>
-16.0107

>  <SCORE.INTER.CONST>
1

>  <SCORE.INTER.POLAR>
0

>  <SCORE.INTER.ROT>
2

>  <SCORE.INTER.SOLV>
16.2061

>  <SCORE.INTER.VDW>
-21.0092

>  <SCORE.INTER.norm>
-0.842669

>  <SCORE.INTRA>
-0.192773

>  <SCORE.INTRA.DIHEDRAL>
-0.295444

>  <SCORE.INTRA.DIHEDRAL.0>
1.50031

>  <SCORE.INTRA.POLAR>
0

>  <SCORE.INTRA.POLAR.0>
0

>  <SCORE.INTRA.REPUL>
0

>  <SCORE.INTRA.REPUL.0>
0

>  <SCORE.INTRA.SOLV>
-0.522351

>  <SCORE.INTRA.SOLV.lig_0>
-37.9941

>  <SCORE.INTRA.VDW>
0.216125

>  <SCORE.INTRA.VDW.0>
-0.964461

>  <SCORE.INTRA.norm>
-0.0101459

>  <SCORE.RESTR>
0

>  <SCORE.RESTR.CAVITY>
0

>  <SCORE.RESTR.norm>
0

>  <SCORE.SYSTEM>
0

>  <SCORE.SYSTEM.CONST>
0

>  <SCORE.SYSTEM.DIHEDRAL>
0

>  <SCORE.SYSTEM.SOLV>
0

>  <SCORE.SYSTEM.norm>
0

>  <SCORE.heavy>
19

>  <SCORE.norm>
-0.852815

>  <RMSD>
0.705

$$$$
ligand
 OpenBabel11021811483D
libRbt.so/2013.1/901 2013/11/27
 19 21  0  0  0  0  0  0  0  0999 V2000
   17.8288   29.1645   33.3174 C   0  0  0  0  0  0  0  0  0  0  0  0
   18.4270   27.8611   33.4265 O   0  0  0  0  0  0  0  0  0  0  0  0
   18.4104   30.1322   34.3534 C   0  0  1  0  0  0  0  0  0  0  0  0
   18.2166   29.6279   35.6745 O   0  0  0  0  0  0  0  0  0  0  0  0
   19.9034   30.3268   34.1691 C   0  0  1  0  0  0  0  0  0  0  0  0
   20.1926   31.7213   34.2769 O   0  0  0  0  0  0  0  0  0  0  0  0
   20.5782   29.5969   35.3083 C   0  0  0  0  0  0  0  0  0  0  0  0
   19.4699   29.3323   36.3111 C   0  0  2  0  0  0  0  0  0  0  0  0
   17.6505   26.1829   39.9893 N   0  0  0  0  0  0  0  0  0  0  0  0
   17.5096   27.5194   39.8175 C   0  0  2  0  0  0  0  0  0  0  0  0
   16.7836   28.2426   40.6959 N   0  0  0  0  0  0  0  0  0  0  0  0
   18.0805   28.1629   38.7773 N   0  0  0  0  0  0  0  0  0  0  0  0
   18.8186   27.5048   37.8607 C   0  0  1  0  0  0  0  0  0  0  0  0
   19.0087   26.1468   37.9737 C   0  0  1  0  0  0  0  0  0  0  0  0
   18.3749   25.4497   39.1199 C   0  0  0  0  0  0  0  0  0  0  0  0
   18.5133   24.2167   39.2786 O   0  0  0  0  0  0  0  0  0  0  0  0
   19.7717   25.7536   36.9395 N   0  0  0  0  0  0  0  0  0  0  0  0
   20.0441   26.8574   36.2059 C   0  0  0  0  0  0  0  0  0  0  0  0
   19.4555   27.9202   36.7778 N   0  0  1  0  0  0  0  0  0  0  0  0
  1  2  1  0  0  0  0
  3  1  1  6  0  0  0
  3  4  1  0  0  0  0
  3  5  1  0  0  0  0
  5  6  1  1  0  0  0
  5  7  1  0  0  0  0
  7  8  1  0  0  0  0
  8  4  1  6  0  0  0
  8 19  1  0  0  0  0
  9 15  1  0  0  0  0
  9 10  1  0  0  0  0
 10 11  1  6  0  0  0
 10 12  1  0  0  0  0
 13 12  1  6  0  0  0
 13 14  1  0  0  0  0
 13 19  1  0  0  0  0
 14 15  1  6  0  0  0
 14 17  1  0  0  0  0
 15 16  2  0  0  0  0
 17 18  1  0  0  0  0
 19 18  1  6  0  0  0
M  END
>  <CHROM.1>
-58.07248821,-77.09328793,18.78914057,28.02402884,36.79023916,-1.05297209
-1.19874737,2.69474312

>  <Name>
ligand

>  <RI>
0

>  <Rbt.Current_Directory>
/home/itssahil/PROJECTS/Mol_Feturizer/New_Systems/rnas/3SKL

>  <Rbt.Executable>
rbdock ($Id: //depot/dev/client3/rdock/2013.1/src/exe/rbdock.cxx#4 $)

>  <Rbt.Library>
libRbt.so (2013.1, Build901 2013/11/27)

>  <Rbt.Parameter_File>
/export/apps/rDock/src/rDock_2013.1_src/data/scripts/dock_solv.prm

>  <Rbt.Receptor>
prm/pocket_docking_6.prm

>  <SCORE>
-17.1467

>  <SCORE.INTER>
-16.9775

>  <SCORE.INTER.CONST>
1

>  <SCORE.INTER.POLAR>
0

>  <SCORE.INTER.ROT>
2

>  <SCORE.INTER.SOLV>
17.0893

>  <SCORE.INTER.VDW>
-21.9481

>  <SCORE.INTER.norm>
-0.893553

>  <SCORE.INTRA>
-0.169207

>  <SCORE.INTRA.DIHEDRAL>
-0.303976

>  <SCORE.INTRA.DIHEDRAL.0>
1.50031

>  <SCORE.INTRA.POLAR>
0

>  <SCORE.INTRA.POLAR.0>
0

>  <SCORE.INTRA.REPUL>
0

>  <SCORE.INTRA.REPUL.0>
0

>  <SCORE.INTRA.SOLV>
0.0196659

>  <SCORE.INTRA.SOLV.lig_0>
-37.9941

>  <SCORE.INTRA.VDW>
-0.0270523

>  <SCORE.INTRA.VDW.0>
-0.964461

>  <SCORE.INTRA.norm>
-0.00890565

>  <SCORE.RESTR>
0

>  <SCORE.RESTR.CAVITY>
0

>  <SCORE.RESTR.norm>
0

>  <SCORE.SYSTEM>
0

>  <SCORE.SYSTEM.CONST>
0

>  <SCORE.SYSTEM.DIHEDRAL>
0

>  <SCORE.SYSTEM.SOLV>
0

>  <SCORE.SYSTEM.norm>
0

>  <SCORE.heavy>
19

>  <SCORE.norm>
-0.902459

>  <RMSD>
0.706

$$$$
ligand
 OpenBabel11021811483D
libRbt.so/2013.1/901 2013/11/27
 19 21  0  0  0  0  0  0  0  0999 V2000
   17.8739   29.2138   33.3086 C   0  0  0  0  0  0  0  0  0  0  0  0
   18.4485   27.9006   33.4266 O   0  0  0  0  0  0  0  0  0  0  0  0
   18.4755   30.1786   34.3359 C   0  0  1  0  0  0  0  0  0  0  0  0
   18.2731   29.6894   35.6614 O   0  0  0  0  0  0  0  0  0  0  0  0
   19.9718   30.3423   34.1486 C   0  0  1  0  0  0  0  0  0  0  0  0
   20.2884   31.7317   34.2444 O   0  0  0  0  0  0  0  0  0  0  0  0
   20.6333   29.6090   35.2935 C   0  0  0  0  0  0  0  0  0  0  0  0
   19.5211   29.3747   36.2994 C   0  0  2  0  0  0  0  0  0  0  0  0
   17.5843   26.2806   39.9646 N   0  0  0  0  0  0  0  0  0  0  0  0
   17.4634   27.6171   39.7780 C   0  0  2  0  0  0  0  0  0  0  0  0
   16.7273   28.3568   40.6340 N   0  0  0  0  0  0  0  0  0  0  0  0
   18.0644   28.2443   38.7449 N   0  0  0  0  0  0  0  0  0  0  0  0
   18.8143   27.5692   37.8505 C   0  0  1  0  0  0  0  0  0  0  0  0
   18.9854   26.2101   37.9795 C   0  0  1  0  0  0  0  0  0  0  0  0
   18.3184   25.5310   39.1177 C   0  0  0  0  0  0  0  0  0  0  0  0
   18.4384   24.2979   39.2902 O   0  0  0  0  0  0  0  0  0  0  0  0
   19.7658   25.7985   36.9657 N   0  0  0  0  0  0  0  0  0  0  0  0
   20.0674   26.8923   36.2285 C   0  0  0  0  0  0  0  0  0  0  0  0
   19.4794   27.9671   36.7780 N   0  0  1  0  0  0  0  0  0  0  0  0
  1  2  1  0  0  0  0
  3  1  1  6  0  0  0
  3  4  1  0  0  0  0
  3  5  1  0  0  0  0
  5  6  1  1  0  0  0
  5  7  1  0  0  0  0
  7  8  1  0  0  0  0
  8  4  1  6  0  0  0
  8 19  1  0  0  0  0
  9 15  1  0  0  0  0
  9 10  1  0  0  0  0
 10 11  1  6  0  0  0
 10 12  1  0  0  0  0
 13 12  1  6  0  0  0
 13 14  1  0  0  0  0
 13 19  1  0  0  0  0
 14 15  1  6  0  0  0
 14 17  1  0  0  0  0
 15 16  2  0  0  0  0
 17 18  1  0  0  0  0
 19 18  1  6  0  0  0
M  END
>  <CHROM.1>
-58.18818872,-75.72098040,18.79839897,28.08067699,36.77837349,-1.02397332
-1.17925904,2.71332090

>  <Name>
ligand

>  <RI>
0

>  <Rbt.Current_Directory>
/home/itssahil/PROJECTS/Mol_Feturizer/New_Systems/rnas/3SKL

>  <Rbt.Executable>
rbdock ($Id: //depot/dev/client3/rdock/2013.1/src/exe/rbdock.cxx#4 $)

>  <Rbt.Library>
libRbt.so (2013.1, Build901 2013/11/27)

>  <Rbt.Parameter_File>
/export/apps/rDock/src/rDock_2013.1_src/data/scripts/dock_solv.prm

>  <Rbt.Receptor>
prm/pocket_docking_6.prm

>  <SCORE>
-17.0928

>  <SCORE.INTER>
-16.9381

>  <SCORE.INTER.CONST>
1

>  <SCORE.INTER.POLAR>
0

>  <SCORE.INTER.ROT>
2

>  <SCORE.INTER.SOLV>
17.2178

>  <SCORE.INTER.VDW>
-21.9646

>  <SCORE.INTER.norm>
-0.891478

>  <SCORE.INTRA>
-0.154682

>  <SCORE.INTRA.DIHEDRAL>
-0.304431

>  <SCORE.INTRA.DIHEDRAL.0>
1.50031

>  <SCORE.INTRA.POLAR>
0

>  <SCORE.INTRA.POLAR.0>
0

>  <SCORE.INTRA.REPUL>
0

>  <SCORE.INTRA.REPUL.0>
0

>  <SCORE.INTRA.SOLV>
0.018305

>  <SCORE.INTRA.SOLV.lig_0>
-37.9941

>  <SCORE.INTRA.VDW>
-0.0116188

>  <SCORE.INTRA.VDW.0>
-0.964461

>  <SCORE.INTRA.norm>
-0.00814115

>  <SCORE.RESTR>
0

>  <SCORE.RESTR.CAVITY>
0

>  <SCORE.RESTR.norm>
0

>  <SCORE.SYSTEM>
0

>  <SCORE.SYSTEM.CONST>
0

>  <SCORE.SYSTEM.DIHEDRAL>
0

>  <SCORE.SYSTEM.SOLV>
0

>  <SCORE.SYSTEM.norm>
0

>  <SCORE.heavy>
19

>  <SCORE.norm>
-0.89962

>  <RMSD>
0.708

$$$$
ligand
 OpenBabel11021811483D
libRbt.so/2013.1/901 2013/11/27
 19 21  0  0  0  0  0  0  0  0999 V2000
   17.8781   29.1811   33.2749 C   0  0  0  0  0  0  0  0  0  0  0  0
   18.4558   27.8682   33.3816 O   0  0  0  0  0  0  0  0  0  0  0  0
   18.4616   30.1325   34.3248 C   0  0  1  0  0  0  0  0  0  0  0  0
   18.2493   29.6190   35.6396 O   0  0  0  0  0  0  0  0  0  0  0  0
   19.9584   30.3109   34.1561 C   0  0  1  0  0  0  0  0  0  0  0  0
   20.2632   31.7008   34.2790 O   0  0  0  0  0  0  0  0  0  0  0  0
   20.6137   29.5629   35.2950 C   0  0  0  0  0  0  0  0  0  0  0  0
   19.4930   29.3028   36.2851 C   0  0  2  0  0  0  0  0  0  0  0  0
   17.6503   26.1526   39.9509 N   0  0  0  0  0  0  0  0  0  0  0  0
   17.5320   27.4930   39.7926 C   0  0  2  0  0  0  0  0  0  0  0  0
   16.8270   28.2209   40.6841 N   0  0  0  0  0  0  0  0  0  0  0  0
   18.1049   28.1357   38.7531 N   0  0  0  0  0  0  0  0  0  0  0  0
   18.8229   27.4730   37.8239 C   0  0  1  0  0  0  0  0  0  0  0  0
   18.9896   26.1109   37.9228 C   0  0  1  0  0  0  0  0  0  0  0  0
   18.3536   25.4146   39.0684 C   0  0  0  0  0  0  0  0  0  0  0  0
   18.4712   24.1780   39.2146 O   0  0  0  0  0  0  0  0  0  0  0  0
   19.7361   25.7136   36.8781 N   0  0  0  0  0  0  0  0  0  0  0  0
   20.0216   26.8191   36.1522 C   0  0  0  0  0  0  0  0  0  0  0  0
   19.4574   27.8869   36.7390 N   0  0  1  0  0  0  0  0  0  0  0  0
  1  2  1  0  0  0  0
  3  1  1  6  0  0  0
  3  4  1  0  0  0  0
  3  5  1  0  0  0  0
  5  6  1  1  0  0  0
  5  7  1  0  0  0  0
  7  8  1  0  0  0  0
  8  4  1  6  0  0  0
  8 19  1  0  0  0  0
  9 15  1  0  0  0  0
  9 10  1  0  0  0  0
 10 11  1  6  0  0  0
 10 12  1  0  0  0  0
 13 12  1  6  0  0  0
 13 14  1  0  0  0  0
 13 19  1  0  0  0  0
 14 15  1  6  0  0  0
 14 17  1  0  0  0  0
 15 16  2  0  0  0  0
 17 18  1  0  0  0  0
 19 18  1  6  0  0  0
M  END
>  <CHROM.1>
-57.83493474,-78.19962070,18.80581093,28.00121837,36.75581936,-0.99646940
-1.21764828,2.75625151

>  <Name>
ligand

>  <RI>
0

>  <Rbt.Current_Directory>
/home/itssahil/PROJECTS/Mol_Feturizer/New_Systems/rnas/3SKL

>  <Rbt.Executable>
rbdock ($Id: //depot/dev/client3/rdock/2013.1/src/exe/rbdock.cxx#4 $)

>  <Rbt.Library>
libRbt.so (2013.1, Build901 2013/11/27)

>  <Rbt.Parameter_File>
/export/apps/rDock/src/rDock_2013.1_src/data/scripts/dock_solv.prm

>  <Rbt.Receptor>
prm/blind_docking_60.prm

>  <SCORE>
-17.11

>  <SCORE.INTER>
-16.9289

>  <SCORE.INTER.CONST>
1

>  <SCORE.INTER.POLAR>
0

>  <SCORE.INTER.ROT>
2

>  <SCORE.INTER.SOLV>
16.9037

>  <SCORE.INTER.VDW>
-21.8538

>  <SCORE.INTER.norm>
-0.890996

>  <SCORE.INTRA>
-0.181098

>  <SCORE.INTRA.DIHEDRAL>
-0.301242

>  <SCORE.INTRA.DIHEDRAL.0>
1.50031

>  <SCORE.INTRA.POLAR>
0

>  <SCORE.INTRA.POLAR.0>
0

>  <SCORE.INTRA.REPUL>
0

>  <SCORE.INTRA.REPUL.0>
0

>  <SCORE.INTRA.SOLV>
0.0210421

>  <SCORE.INTRA.SOLV.lig_0>
-37.9941

>  <SCORE.INTRA.VDW>
-0.0409986

>  <SCORE.INTRA.VDW.0>
-0.964461

>  <SCORE.INTRA.norm>
-0.00953149

>  <SCORE.RESTR>
0

>  <SCORE.RESTR.CAVITY>
0

>  <SCORE.RESTR.norm>
0

>  <SCORE.SYSTEM>
0

>  <SCORE.SYSTEM.CONST>
0

>  <SCORE.SYSTEM.DIHEDRAL>
0

>  <SCORE.SYSTEM.SOLV>
0

>  <SCORE.SYSTEM.norm>
0

>  <SCORE.heavy>
19

>  <SCORE.norm>
-0.900528

>  <RMSD>
0.710

$$$$
ligand
 OpenBabel11021811483D
libRbt.so/2013.1/901 2013/11/27
 19 21  0  0  0  0  0  0  0  0999 V2000
   17.8813   28.4708   33.0457 C   0  0  0  0  0  0  0  0  0  0  0  0
   16.4821   28.2290   33.2746 O   0  0  0  0  0  0  0  0  0  0  0  0
   18.4287   29.5267   34.0118 C   0  0  1  0  0  0  0  0  0  0  0  0
   18.1833   29.1434   35.3647 O   0  0  0  0  0  0  0  0  0  0  0  0
   19.9285   29.7017   33.8670 C   0  0  1  0  0  0  0  0  0  0  0  0
   20.2203   31.0998   33.8602 O   0  0  0  0  0  0  0  0  0  0  0  0
   20.5567   29.0760   35.0917 C   0  0  0  0  0  0  0  0  0  0  0  0
   19.4105   28.9042   36.0718 C   0  0  2  0  0  0  0  0  0  0  0  0
   17.6942   26.1639   40.1095 N   0  0  0  0  0  0  0  0  0  0  0  0
   17.5924   27.4852   39.8275 C   0  0  2  0  0  0  0  0  0  0  0  0
   16.9455   28.3113   40.6764 N   0  0  0  0  0  0  0  0  0  0  0  0
   18.1250   28.0118   38.7045 N   0  0  0  0  0  0  0  0  0  0  0  0
   18.7842   27.2466   37.8112 C   0  0  1  0  0  0  0  0  0  0  0  0
   18.9309   25.8968   38.0340 C   0  0  1  0  0  0  0  0  0  0  0  0
   18.3397   25.3287   39.2706 C   0  0  0  0  0  0  0  0  0  0  0  0
   18.4420   24.1094   39.5305 O   0  0  0  0  0  0  0  0  0  0  0  0
   19.6176   25.3841   36.9987 N   0  0  0  0  0  0  0  0  0  0  0  0
   19.8870   26.4079   36.1560 C   0  0  0  0  0  0  0  0  0  0  0  0
   19.3717   27.5397   36.6624 N   0  0  1  0  0  0  0  0  0  0  0  0
  1  2  1  0  0  0  0
  3  1  1  6  0  0  0
  3  4  1  0  0  0  0
  3  5  1  0  0  0  0
  5  6  1  1  0  0  0
  5  7  1  0  0  0  0
  7  8  1  0  0  0  0
  8  4  1  6  0  0  0
  8 19  1  0  0  0  0
  9 15  1  0  0  0  0
  9 10  1  0  0  0  0
 10 11  1  6  0  0  0
 10 12  1  0  0  0  0
 13 12  1  6  0  0  0
 13 14  1  0  0  0  0
 13 19  1  0  0  0  0
 14 15  1  6  0  0  0
 14 17  1  0  0  0  0
 15 16  2  0  0  0  0
 17 18  1  0  0  0  0
 19 18  1  6  0  0  0
M  END
>  <CHROM.1>
55.76914576,-82.85258942,18.65662863,27.72748425,36.68570352,-1.17356432
-1.23748788,2.49618474

>  <Name>
ligand

>  <RI>
0

>  <Rbt.Current_Directory>
/home/itssahil/PROJECTS/Mol_Feturizer/New_Systems/rnas/3SKL

>  <Rbt.Executable>
rbdock ($Id: //depot/dev/client3/rdock/2013.1/src/exe/rbdock.cxx#4 $)

>  <Rbt.Library>
libRbt.so (2013.1, Build901 2013/11/27)

>  <Rbt.Parameter_File>
/export/apps/rDock/src/rDock_2013.1_src/data/scripts/dock_solv.prm

>  <Rbt.Receptor>
prm/pocket_docking_2.prm

>  <SCORE>
-16.1623

>  <SCORE.INTER>
-15.9733

>  <SCORE.INTER.CONST>
1

>  <SCORE.INTER.POLAR>
0

>  <SCORE.INTER.ROT>
2

>  <SCORE.INTER.SOLV>
16.3828

>  <SCORE.INTER.VDW>
-21.0431

>  <SCORE.INTER.norm>
-0.840698

>  <SCORE.INTRA>
-0.18903

>  <SCORE.INTRA.DIHEDRAL>
-0.258414

>  <SCORE.INTRA.DIHEDRAL.0>
1.50031

>  <SCORE.INTRA.POLAR>
0

>  <SCORE.INTRA.POLAR.0>
0

>  <SCORE.INTRA.REPUL>
0

>  <SCORE.INTRA.REPUL.0>
0

>  <SCORE.INTRA.SOLV>
-0.514782

>  <SCORE.INTRA.SOLV.lig_0>
-37.9941

>  <SCORE.INTRA.VDW>
0.197568

>  <SCORE.INTRA.VDW.0>
-0.964461

>  <SCORE.INTRA.norm>
-0.00994896

>  <SCORE.RESTR>
0

>  <SCORE.RESTR.CAVITY>
0

>  <SCORE.RESTR.norm>
0

>  <SCORE.SYSTEM>
0

>  <SCORE.SYSTEM.CONST>
0

>  <SCORE.SYSTEM.DIHEDRAL>
0

>  <SCORE.SYSTEM.SOLV>
0

>  <SCORE.SYSTEM.norm>
0

>  <SCORE.heavy>
19

>  <SCORE.norm>
-0.850647

>  <RMSD>
0.713

$$$$
ligand
 OpenBabel11021811483D
libRbt.so/2013.1/901 2013/11/27
 19 21  0  0  0  0  0  0  0  0999 V2000
   17.5811   28.7090   33.3334 C   0  0  0  0  0  0  0  0  0  0  0  0
   17.7212   29.0157   31.9352 O   0  0  0  0  0  0  0  0  0  0  0  0
   18.3603   29.7025   34.2017 C   0  0  1  0  0  0  0  0  0  0  0  0
   18.2645   29.3457   35.5804 O   0  0  0  0  0  0  0  0  0  0  0  0
   19.8361   29.7225   33.8517 C   0  0  1  0  0  0  0  0  0  0  0  0
   20.2651   31.0832   33.7863 O   0  0  0  0  0  0  0  0  0  0  0  0
   20.5589   29.0348   34.9878 C   0  0  0  0  0  0  0  0  0  0  0  0
   19.5461   28.9812   36.1170 C   0  0  2  0  0  0  0  0  0  0  0  0
   17.5197   26.3299   40.0695 N   0  0  0  0  0  0  0  0  0  0  0  0
   17.4540   27.6471   39.7594 C   0  0  2  0  0  0  0  0  0  0  0  0
   16.7597   28.4949   40.5476 N   0  0  0  0  0  0  0  0  0  0  0  0
   18.0697   28.1485   38.6679 N   0  0  0  0  0  0  0  0  0  0  0  0
   18.7801   27.3608   37.8354 C   0  0  1  0  0  0  0  0  0  0  0  0
   18.8944   26.0135   38.0900 C   0  0  1  0  0  0  0  0  0  0  0  0
   18.2117   25.4733   39.2915 C   0  0  0  0  0  0  0  0  0  0  0  0
   18.2808   24.2576   39.5779 O   0  0  0  0  0  0  0  0  0  0  0  0
   19.6452   25.4755   37.1137 N   0  0  0  0  0  0  0  0  0  0  0  0
   19.9851   26.4816   36.2752 C   0  0  0  0  0  0  0  0  0  0  0  0
   19.4497   27.6275   36.7257 N   0  0  1  0  0  0  0  0  0  0  0  0
  1  2  1  0  0  0  0
  3  1  1  6  0  0  0
  3  4  1  0  0  0  0
  3  5  1  0  0  0  0
  5  6  1  1  0  0  0
  5  7  1  0  0  0  0
  7  8  1  0  0  0  0
  8  4  1  6  0  0  0
  8 19  1  0  0  0  0
  9 15  1  0  0  0  0
  9 10  1  0  0  0  0
 10 11  1  6  0  0  0
 10 12  1  0  0  0  0
 13 12  1  6  0  0  0
 13 14  1  0  0  0  0
 13 19  1  0  0  0  0
 14 15  1  6  0  0  0
 14 17  1  0  0  0  0
 15 16  2  0  0  0  0
 17 18  1  0  0  0  0
 19 18  1  6  0  0  0
M  END
>  <CHROM.1>
-177.16233618,-69.88561347,18.68688194,27.88413682,36.64162215,-1.24186098
-1.10345514,2.39419163

>  <Name>
ligand

>  <RI>
0

>  <Rbt.Current_Directory>
/home/itssahil/PROJECTS/Mol_Feturizer/New_Systems/rnas/3SKL

>  <Rbt.Executable>
rbdock ($Id: //depot/dev/client3/rdock/2013.1/src/exe/rbdock.cxx#4 $)

>  <Rbt.Library>
libRbt.so (2013.1, Build901 2013/11/27)

>  <Rbt.Parameter_File>
/export/apps/rDock/src/rDock_2013.1_src/data/scripts/dock_solv.prm

>  <Rbt.Receptor>
prm/pocket_docking_2.prm

>  <SCORE>
-16.4772

>  <SCORE.INTER>
-16.557

>  <SCORE.INTER.CONST>
1

>  <SCORE.INTER.POLAR>
0

>  <SCORE.INTER.ROT>
2

>  <SCORE.INTER.SOLV>
17.5043

>  <SCORE.INTER.VDW>
-21.8061

>  <SCORE.INTER.norm>
-0.871421

>  <SCORE.INTRA>
0.0797575

>  <SCORE.INTRA.DIHEDRAL>
-0.281073

>  <SCORE.INTRA.DIHEDRAL.0>
1.50031

>  <SCORE.INTRA.POLAR>
0

>  <SCORE.INTRA.POLAR.0>
0

>  <SCORE.INTRA.REPUL>
0

>  <SCORE.INTRA.REPUL.0>
0

>  <SCORE.INTRA.SOLV>
-0.418578

>  <SCORE.INTRA.SOLV.lig_0>
-37.9941

>  <SCORE.INTRA.VDW>
0.429583

>  <SCORE.INTRA.VDW.0>
-0.964461

>  <SCORE.INTRA.norm>
0.00419776

>  <SCORE.RESTR>
0

>  <SCORE.RESTR.CAVITY>
0

>  <SCORE.RESTR.norm>
0

>  <SCORE.SYSTEM>
0

>  <SCORE.SYSTEM.CONST>
0

>  <SCORE.SYSTEM.DIHEDRAL>
0

>  <SCORE.SYSTEM.SOLV>
0

>  <SCORE.SYSTEM.norm>
0

>  <SCORE.heavy>
19

>  <SCORE.norm>
-0.867223

>  <RMSD>
0.713

$$$$
ligand
 OpenBabel11021811483D
libRbt.so/2013.1/901 2013/11/27
 19 21  0  0  0  0  0  0  0  0999 V2000
   17.8038   29.1853   33.3327 C   0  0  0  0  0  0  0  0  0  0  0  0
   18.3699   27.8680   33.4459 O   0  0  0  0  0  0  0  0  0  0  0  0
   18.4081   30.1413   34.3666 C   0  0  1  0  0  0  0  0  0  0  0  0
   18.2244   29.6323   35.6874 O   0  0  0  0  0  0  0  0  0  0  0  0
   19.9009   30.3207   34.1656 C   0  0  1  0  0  0  0  0  0  0  0  0
   20.2064   31.7114   34.2770 O   0  0  0  0  0  0  0  0  0  0  0  0
   20.5811   29.5777   35.2931 C   0  0  0  0  0  0  0  0  0  0  0  0
   19.4819   29.3199   36.3075 C   0  0  2  0  0  0  0  0  0  0  0  0
   17.6220   26.1613   39.9575 N   0  0  0  0  0  0  0  0  0  0  0  0
   17.4886   27.4992   39.7912 C   0  0  2  0  0  0  0  0  0  0  0  0
   16.7598   28.2216   40.6681 N   0  0  0  0  0  0  0  0  0  0  0  0
   18.0697   28.1451   38.7582 N   0  0  0  0  0  0  0  0  0  0  0  0
   18.8113   27.4880   37.8437 C   0  0  1  0  0  0  0  0  0  0  0  0
   18.9943   26.1286   37.9514 C   0  0  1  0  0  0  0  0  0  0  0  0
   18.3491   25.4289   39.0897 C   0  0  0  0  0  0  0  0  0  0  0  0
   18.4807   24.1946   39.2433 O   0  0  0  0  0  0  0  0  0  0  0  0
   19.7627   25.7368   36.9206 N   0  0  0  0  0  0  0  0  0  0  0  0
   20.0453   26.8429   36.1944 C   0  0  0  0  0  0  0  0  0  0  0  0
   19.4576   27.9056   36.7672 N   0  0  1  0  0  0  0  0  0  0  0  0
  1  2  1  0  0  0  0
  3  1  1  6  0  0  0
  3  4  1  0  0  0  0
  3  5  1  0  0  0  0
  5  6  1  1  0  0  0
  5  7  1  0  0  0  0
  7  8  1  0  0  0  0
  8  4  1  6  0  0  0
  8 19  1  0  0  0  0
  9 15  1  0  0  0  0
  9 10  1  0  0  0  0
 10 11  1  6  0  0  0
 10 12  1  0  0  0  0
 13 12  1  6  0  0  0
 13 14  1  0  0  0  0
 13 19  1  0  0  0  0
 14 15  1  6  0  0  0
 14 17  1  0  0  0  0
 15 16  2  0  0  0  0
 17 18  1  0  0  0  0
 19 18  1  6  0  0  0
M  END
>  <CHROM.1>
-56.91504689,-75.95500359,18.77729750,28.01328368,36.77964035,-1.05407977
-1.19077173,2.69983479

>  <Name>
ligand

>  <RI>
0

>  <Rbt.Current_Directory>
/home/itssahil/PROJECTS/Mol_Feturizer/New_Systems/rnas/3SKL

>  <Rbt.Executable>
rbdock ($Id: //depot/dev/client3/rdock/2013.1/src/exe/rbdock.cxx#4 $)

>  <Rbt.Library>
libRbt.so (2013.1, Build901 2013/11/27)

>  <Rbt.Parameter_File>
/export/apps/rDock/src/rDock_2013.1_src/data/scripts/dock_solv.prm

>  <Rbt.Receptor>
prm/pocket_docking_4.prm

>  <SCORE>
-17.1576

>  <SCORE.INTER>
-17.0034

>  <SCORE.INTER.CONST>
1

>  <SCORE.INTER.POLAR>
0

>  <SCORE.INTER.ROT>
2

>  <SCORE.INTER.SOLV>
17.1863

>  <SCORE.INTER.VDW>
-21.9977

>  <SCORE.INTER.norm>
-0.894917

>  <SCORE.INTRA>
-0.154165

>  <SCORE.INTRA.DIHEDRAL>
-0.281772

>  <SCORE.INTRA.DIHEDRAL.0>
1.50031

>  <SCORE.INTRA.POLAR>
0

>  <SCORE.INTRA.POLAR.0>
0

>  <SCORE.INTRA.REPUL>
0

>  <SCORE.INTRA.REPUL.0>
0

>  <SCORE.INTRA.SOLV>
0.0208106

>  <SCORE.INTRA.SOLV.lig_0>
-37.9941

>  <SCORE.INTRA.VDW>
-0.0236839

>  <SCORE.INTRA.VDW.0>
-0.964461

>  <SCORE.INTRA.norm>
-0.00811394

>  <SCORE.RESTR>
0

>  <SCORE.RESTR.CAVITY>
0

>  <SCORE.RESTR.norm>
0

>  <SCORE.SYSTEM>
0

>  <SCORE.SYSTEM.CONST>
0

>  <SCORE.SYSTEM.DIHEDRAL>
0

>  <SCORE.SYSTEM.SOLV>
0

>  <SCORE.SYSTEM.norm>
0

>  <SCORE.heavy>
19

>  <SCORE.norm>
-0.903031

>  <RMSD>
0.716

$$$$
ligand
 OpenBabel11021811483D
libRbt.so/2013.1/901 2013/11/27
 19 21  0  0  0  0  0  0  0  0999 V2000
   17.8362   29.1860   33.3115 C   0  0  0  0  0  0  0  0  0  0  0  0
   18.4576   27.8912   33.3902 O   0  0  0  0  0  0  0  0  0  0  0  0
   18.4163   30.1459   34.3556 C   0  0  1  0  0  0  0  0  0  0  0  0
   18.2173   29.6334   35.6729 O   0  0  0  0  0  0  0  0  0  0  0  0
   19.9103   30.3389   34.1774 C   0  0  1  0  0  0  0  0  0  0  0  0
   20.2016   31.7322   34.2952 O   0  0  0  0  0  0  0  0  0  0  0  0
   20.5800   29.6004   35.3140 C   0  0  0  0  0  0  0  0  0  0  0  0
   19.4681   29.3313   36.3115 C   0  0  2  0  0  0  0  0  0  0  0  0
   17.6525   26.1660   39.9778 N   0  0  0  0  0  0  0  0  0  0  0  0
   17.5168   27.5042   39.8155 C   0  0  2  0  0  0  0  0  0  0  0  0
   16.7984   28.2248   40.7022 N   0  0  0  0  0  0  0  0  0  0  0  0
   18.0854   28.1520   38.7768 N   0  0  0  0  0  0  0  0  0  0  0  0
   18.8161   27.4966   37.8523 C   0  0  1  0  0  0  0  0  0  0  0  0
   19.0007   26.1371   37.9554 C   0  0  1  0  0  0  0  0  0  0  0  0
   18.3693   25.4353   39.1001 C   0  0  0  0  0  0  0  0  0  0  0  0
   18.5029   24.2007   39.2500 O   0  0  0  0  0  0  0  0  0  0  0  0
   19.7568   25.7473   36.9149 N   0  0  0  0  0  0  0  0  0  0  0  0
   20.0305   26.8547   36.1872 C   0  0  0  0  0  0  0  0  0  0  0  0
   19.4495   27.9162   36.7689 N   0  0  1  0  0  0  0  0  0  0  0  0
  1  2  1  0  0  0  0
  3  1  1  6  0  0  0
  3  4  1  0  0  0  0
  3  5  1  0  0  0  0
  5  6  1  1  0  0  0
  5  7  1  0  0  0  0
  7  8  1  0  0  0  0
  8  4  1  6  0  0  0
  8 19  1  0  0  0  0
  9 15  1  0  0  0  0
  9 10  1  0  0  0  0
 10 11  1  6  0  0  0
 10 12  1  0  0  0  0
 13 12  1  6  0  0  0
 13 14  1  0  0  0  0
 13 19  1  0  0  0  0
 14 15  1  6  0  0  0
 14 17  1  0  0  0  0
 15 16  2  0  0  0  0
 17 18  1  0  0  0  0
 19 18  1  6  0  0  0
M  END
>  <CHROM.1>
-59.64069669,-77.58190696,18.79102347,28.02315089,36.78263876,-1.03888585
-1.20582561,2.71324951

>  <Name>
ligand

>  <RI>
0

>  <Rbt.Current_Directory>
/home/itssahil/PROJECTS/Mol_Feturizer/New_Systems/rnas/3SKL

>  <Rbt.Executable>
rbdock ($Id: //depot/dev/client3/rdock/2013.1/src/exe/rbdock.cxx#4 $)

>  <Rbt.Library>
libRbt.so (2013.1, Build901 2013/11/27)

>  <Rbt.Parameter_File>
/export/apps/rDock/src/rDock_2013.1_src/data/scripts/dock_solv.prm

>  <Rbt.Receptor>
prm/pocket_docking_8.prm

>  <SCORE>
-17.136

>  <SCORE.INTER>
-16.9666

>  <SCORE.INTER.CONST>
1

>  <SCORE.INTER.POLAR>
0

>  <SCORE.INTER.ROT>
2

>  <SCORE.INTER.SOLV>
17.0504

>  <SCORE.INTER.VDW>
-21.9278

>  <SCORE.INTER.norm>
-0.892977

>  <SCORE.INTRA>
-0.169404

>  <SCORE.INTRA.DIHEDRAL>
-0.317789

>  <SCORE.INTRA.DIHEDRAL.0>
1.50031

>  <SCORE.INTRA.POLAR>
0

>  <SCORE.INTRA.POLAR.0>
0

>  <SCORE.INTRA.REPUL>
0

>  <SCORE.INTRA.REPUL.0>
0

>  <SCORE.INTRA.SOLV>
0.0168489

>  <SCORE.INTRA.SOLV.lig_0>
-37.9941

>  <SCORE.INTRA.VDW>
-0.0189338

>  <SCORE.INTRA.VDW.0>
-0.964461

>  <SCORE.INTRA.norm>
-0.008916

>  <SCORE.RESTR>
0

>  <SCORE.RESTR.CAVITY>
0

>  <SCORE.RESTR.norm>
0

>  <SCORE.SYSTEM>
0

>  <SCORE.SYSTEM.CONST>
0

>  <SCORE.SYSTEM.DIHEDRAL>
0

>  <SCORE.SYSTEM.SOLV>
0

>  <SCORE.SYSTEM.norm>
0

>  <SCORE.heavy>
19

>  <SCORE.norm>
-0.901893

>  <RMSD>
0.717

$$$$
ligand
 OpenBabel11021811483D
libRbt.so/2013.1/901 2013/11/27
 19 21  0  0  0  0  0  0  0  0999 V2000
   17.5573   28.6026   33.2946 C   0  0  0  0  0  0  0  0  0  0  0  0
   17.6786   28.9473   31.9035 O   0  0  0  0  0  0  0  0  0  0  0  0
   18.2849   29.6160   34.1843 C   0  0  1  0  0  0  0  0  0  0  0  0
   18.1829   29.2412   35.5578 O   0  0  0  0  0  0  0  0  0  0  0  0
   19.7637   29.6965   33.8565 C   0  0  1  0  0  0  0  0  0  0  0  0
   20.1408   31.0732   33.8112 O   0  0  0  0  0  0  0  0  0  0  0  0
   20.4960   29.0251   34.9963 C   0  0  0  0  0  0  0  0  0  0  0  0
   19.4698   28.9206   36.1097 C   0  0  2  0  0  0  0  0  0  0  0  0
   17.6518   26.1913   40.1102 N   0  0  0  0  0  0  0  0  0  0  0  0
   17.5563   27.5115   39.8215 C   0  0  2  0  0  0  0  0  0  0  0  0
   16.8871   28.3397   40.6509 N   0  0  0  0  0  0  0  0  0  0  0  0
   18.1173   28.0352   38.7111 N   0  0  0  0  0  0  0  0  0  0  0  0
   18.8000   27.2678   37.8374 C   0  0  1  0  0  0  0  0  0  0  0  0
   18.9419   25.9189   38.0682 C   0  0  1  0  0  0  0  0  0  0  0  0
   18.3194   25.3540   39.2908 C   0  0  0  0  0  0  0  0  0  0  0  0
   18.4160   24.1357   39.5571 O   0  0  0  0  0  0  0  0  0  0  0  0
   19.6556   25.4035   37.0525 N   0  0  0  0  0  0  0  0  0  0  0  0
   19.9459   26.4249   36.2140 C   0  0  0  0  0  0  0  0  0  0  0  0
   19.4168   27.5579   36.7033 N   0  0  1  0  0  0  0  0  0  0  0  0
  1  2  1  0  0  0  0
  3  1  1  6  0  0  0
  3  4  1  0  0  0  0
  3  5  1  0  0  0  0
  5  6  1  1  0  0  0
  5  7  1  0  0  0  0
  7  8  1  0  0  0  0
  8  4  1  6  0  0  0
  8 19  1  0  0  0  0
  9 15  1  0  0  0  0
  9 10  1  0  0  0  0
 10 11  1  6  0  0  0
 10 12  1  0  0  0  0
 13 12  1  6  0  0  0
 13 14  1  0  0  0  0
 13 19  1  0  0  0  0
 14 15  1  6  0  0  0
 14 17  1  0  0  0  0
 15 16  2  0  0  0  0
 17 18  1  0  0  0  0
 19 18  1  6  0  0  0
M  END
>  <CHROM.1>
-178.55570611,-73.56349304,18.69032304,27.79823052,36.64058128,-1.25849682
-1.17624924,2.39161437

>  <Name>
ligand

>  <RI>
0

>  <Rbt.Current_Directory>
/home/itssahil/PROJECTS/Mol_Feturizer/New_Systems/rnas/3SKL

>  <Rbt.Executable>
rbdock ($Id: //depot/dev/client3/rdock/2013.1/src/exe/rbdock.cxx#4 $)

>  <Rbt.Library>
libRbt.so (2013.1, Build901 2013/11/27)

>  <Rbt.Parameter_File>
/export/apps/rDock/src/rDock_2013.1_src/data/scripts/dock_solv.prm

>  <Rbt.Receptor>
prm/pocket_docking_2.prm

>  <SCORE>
-16.4308

>  <SCORE.INTER>
-16.4532

>  <SCORE.INTER.CONST>
1

>  <SCORE.INTER.POLAR>
0

>  <SCORE.INTER.ROT>
2

>  <SCORE.INTER.SOLV>
17.0061

>  <SCORE.INTER.VDW>
-21.5709

>  <SCORE.INTER.norm>
-0.865959

>  <SCORE.INTRA>
0.0223898

>  <SCORE.INTRA.DIHEDRAL>
-0.306878

>  <SCORE.INTRA.DIHEDRAL.0>
1.50031

>  <SCORE.INTRA.POLAR>
0

>  <SCORE.INTRA.POLAR.0>
0

>  <SCORE.INTRA.REPUL>
0

>  <SCORE.INTRA.REPUL.0>
0

>  <SCORE.INTRA.SOLV>
-0.428013

>  <SCORE.INTRA.SOLV.lig_0>
-37.9941

>  <SCORE.INTRA.VDW>
0.389835

>  <SCORE.INTRA.VDW.0>
-0.964461

>  <SCORE.INTRA.norm>
0.00117841

>  <SCORE.RESTR>
0

>  <SCORE.RESTR.CAVITY>
0

>  <SCORE.RESTR.norm>
0

>  <SCORE.SYSTEM>
0

>  <SCORE.SYSTEM.CONST>
0

>  <SCORE.SYSTEM.DIHEDRAL>
0

>  <SCORE.SYSTEM.SOLV>
0

>  <SCORE.SYSTEM.norm>
0

>  <SCORE.heavy>
19

>  <SCORE.norm>
-0.864781

>  <RMSD>
0.720

$$$$
ligand
 OpenBabel11021811483D
libRbt.so/2013.1/901 2013/11/27
 19 21  0  0  0  0  0  0  0  0999 V2000
   17.3181   28.3253   33.6285 C   0  0  0  0  0  0  0  0  0  0  0  0
   17.3062   28.4596   32.1965 O   0  0  0  0  0  0  0  0  0  0  0  0
   18.2707   29.3370   34.2742 C   0  0  1  0  0  0  0  0  0  0  0  0
   18.2819   29.1800   35.6929 O   0  0  0  0  0  0  0  0  0  0  0  0
   19.6989   29.1523   33.7977 C   0  0  1  0  0  0  0  0  0  0  0  0
   20.2446   30.4384   33.5009 O   0  0  0  0  0  0  0  0  0  0  0  0
   20.4653   28.5495   34.9531 C   0  0  0  0  0  0  0  0  0  0  0  0
   19.5715   28.7558   36.1624 C   0  0  2  0  0  0  0  0  0  0  0  0
   17.5182   26.8454   40.5089 N   0  0  0  0  0  0  0  0  0  0  0  0
   17.5250   28.1055   40.0111 C   0  0  2  0  0  0  0  0  0  0  0  0
   16.9128   29.1029   40.6836 N   0  0  0  0  0  0  0  0  0  0  0  0
   18.1335   28.4013   38.8432 N   0  0  0  0  0  0  0  0  0  0  0  0
   18.7640   27.4557   38.1176 C   0  0  1  0  0  0  0  0  0  0  0  0
   18.8018   26.1547   38.5637 C   0  0  1  0  0  0  0  0  0  0  0  0
   18.1279   25.8408   39.8478 C   0  0  0  0  0  0  0  0  0  0  0  0
   18.1300   24.6774   40.3071 O   0  0  0  0  0  0  0  0  0  0  0  0
   19.4835   25.4321   37.6585 N   0  0  0  0  0  0  0  0  0  0  0  0
   19.8572   26.2814   36.6737 C   0  0  0  0  0  0  0  0  0  0  0  0
   19.4108   27.5138   36.9648 N   0  0  1  0  0  0  0  0  0  0  0  0
  1  2  1  0  0  0  0
  3  1  1  6  0  0  0
  3  4  1  0  0  0  0
  3  5  1  0  0  0  0
  5  6  1  1  0  0  0
  5  7  1  0  0  0  0
  7  8  1  0  0  0  0
  8  4  1  6  0  0  0
  8 19  1  0  0  0  0
  9 15  1  0  0  0  0
  9 10  1  0  0  0  0
 10 11  1  6  0  0  0
 10 12  1  0  0  0  0
 13 12  1  6  0  0  0
 13 14  1  0  0  0  0
 13 19  1  0  0  0  0
 14 15  1  6  0  0  0
 14 17  1  0  0  0  0
 15 16  2  0  0  0  0
 17 18  1  0  0  0  0
 19 18  1  6  0  0  0
M  END
>  <CHROM.1>
-179.33951731,-65.61738169,18.61215793,27.82661174,36.88140269,1.29256576
1.09083837,-0.93725611

>  <Name>
ligand

>  <RI>
0

>  <Rbt.Current_Directory>
/home/itssahil/PROJECTS/Mol_Feturizer/New_Systems/rnas/3SKL

>  <Rbt.Executable>
rbdock ($Id: //depot/dev/client3/rdock/2013.1/src/exe/rbdock.cxx#4 $)

>  <Rbt.Library>
libRbt.so (2013.1, Build901 2013/11/27)

>  <Rbt.Parameter_File>
/export/apps/rDock/src/rDock_2013.1_src/data/scripts/dock_solv.prm

>  <Rbt.Receptor>
prm/pocket_docking_6.prm

>  <SCORE>
-15.8428

>  <SCORE.INTER>
-15.9165

>  <SCORE.INTER.CONST>
1

>  <SCORE.INTER.POLAR>
0

>  <SCORE.INTER.ROT>
2

>  <SCORE.INTER.SOLV>
18.5784

>  <SCORE.INTER.VDW>
-21.7371

>  <SCORE.INTER.norm>
-0.837711

>  <SCORE.INTRA>
0.0736804

>  <SCORE.INTRA.DIHEDRAL>
-0.304155

>  <SCORE.INTRA.DIHEDRAL.0>
1.50031

>  <SCORE.INTRA.POLAR>
0

>  <SCORE.INTRA.POLAR.0>
0

>  <SCORE.INTRA.REPUL>
0

>  <SCORE.INTRA.REPUL.0>
0

>  <SCORE.INTRA.SOLV>
-0.425889

>  <SCORE.INTRA.SOLV.lig_0>
-37.9941

>  <SCORE.INTRA.VDW>
0.438702

>  <SCORE.INTRA.VDW.0>
-0.964461

>  <SCORE.INTRA.norm>
0.00387792

>  <SCORE.RESTR>
0

>  <SCORE.RESTR.CAVITY>
0

>  <SCORE.RESTR.norm>
0

>  <SCORE.SYSTEM>
0

>  <SCORE.SYSTEM.CONST>
0

>  <SCORE.SYSTEM.DIHEDRAL>
0

>  <SCORE.SYSTEM.SOLV>
0

>  <SCORE.SYSTEM.norm>
0

>  <SCORE.heavy>
19

>  <SCORE.norm>
-0.833833

>  <RMSD>
0.720

$$$$
ligand
 OpenBabel11021811483D
libRbt.so/2013.1/901 2013/11/27
 19 21  0  0  0  0  0  0  0  0999 V2000
   17.7969   28.4559   33.0778 C   0  0  0  0  0  0  0  0  0  0  0  0
   16.4048   28.2213   33.3532 O   0  0  0  0  0  0  0  0  0  0  0  0
   18.3764   29.5237   34.0116 C   0  0  1  0  0  0  0  0  0  0  0  0
   18.1817   29.1549   35.3767 O   0  0  0  0  0  0  0  0  0  0  0  0
   19.8694   29.7006   33.8100 C   0  0  1  0  0  0  0  0  0  0  0  0
   20.1569   31.0992   33.7771 O   0  0  0  0  0  0  0  0  0  0  0  0
   20.5437   29.0900   35.0176 C   0  0  0  0  0  0  0  0  0  0  0  0
   19.4347   28.9264   36.0409 C   0  0  2  0  0  0  0  0  0  0  0  0
   17.8254   26.2157   40.1422 N   0  0  0  0  0  0  0  0  0  0  0  0
   17.7048   27.5326   39.8473 C   0  0  2  0  0  0  0  0  0  0  0  0
   17.0662   28.3619   40.6994 N   0  0  0  0  0  0  0  0  0  0  0  0
   18.2099   28.0515   38.7082 N   0  0  0  0  0  0  0  0  0  0  0  0
   18.8593   27.2827   37.8108 C   0  0  1  0  0  0  0  0  0  0  0  0
   19.0240   25.9371   38.0459 C   0  0  1  0  0  0  0  0  0  0  0  0
   18.4628   25.3773   39.3002 C   0  0  0  0  0  0  0  0  0  0  0  0
   18.5826   24.1622   39.5718 O   0  0  0  0  0  0  0  0  0  0  0  0
   19.6956   25.4194   37.0031 N   0  0  0  0  0  0  0  0  0  0  0  0
   19.9380   26.4361   36.1439 C   0  0  0  0  0  0  0  0  0  0  0  0
   19.4213   27.5684   36.6474 N   0  0  1  0  0  0  0  0  0  0  0  0
  1  2  1  0  0  0  0
  3  1  1  6  0  0  0
  3  4  1  0  0  0  0
  3  5  1  0  0  0  0
  5  6  1  1  0  0  0
  5  7  1  0  0  0  0
  7  8  1  0  0  0  0
  8  4  1  6  0  0  0
  8 19  1  0  0  0  0
  9 15  1  0  0  0  0
  9 10  1  0  0  0  0
 10 11  1  6  0  0  0
 10 12  1  0  0  0  0
 13 12  1  6  0  0  0
 13 14  1  0  0  0  0
 13 19  1  0  0  0  0
 14 15  1  6  0  0  0
 14 17  1  0  0  0  0
 15 16  2  0  0  0  0
 17 18  1  0  0  0  0
 19 18  1  6  0  0  0
M  END
>  <CHROM.1>
56.24653427,-81.78487471,18.69275550,27.75207153,36.68690506,-1.28652960
-1.20487446,2.37603063

>  <Name>
ligand

>  <RI>
0

>  <Rbt.Current_Directory>
/home/itssahil/PROJECTS/Mol_Feturizer/New_Systems/rnas/3SKL

>  <Rbt.Executable>
rbdock ($Id: //depot/dev/client3/rdock/2013.1/src/exe/rbdock.cxx#4 $)

>  <Rbt.Library>
libRbt.so (2013.1, Build901 2013/11/27)

>  <Rbt.Parameter_File>
/export/apps/rDock/src/rDock_2013.1_src/data/scripts/dock_solv.prm

>  <Rbt.Receptor>
prm/pocket_docking_2.prm

>  <SCORE>
-16.2725

>  <SCORE.INTER>
-16.1064

>  <SCORE.INTER.CONST>
1

>  <SCORE.INTER.POLAR>
0

>  <SCORE.INTER.ROT>
2

>  <SCORE.INTER.SOLV>
16.1254

>  <SCORE.INTER.VDW>
-21.0461

>  <SCORE.INTER.norm>
-0.847707

>  <SCORE.INTRA>
-0.166026

>  <SCORE.INTRA.DIHEDRAL>
-0.271436

>  <SCORE.INTRA.DIHEDRAL.0>
1.50031

>  <SCORE.INTRA.POLAR>
0

>  <SCORE.INTRA.POLAR.0>
0

>  <SCORE.INTRA.REPUL>
0

>  <SCORE.INTRA.REPUL.0>
0

>  <SCORE.INTRA.SOLV>
-0.51654

>  <SCORE.INTRA.SOLV.lig_0>
-37.9941

>  <SCORE.INTRA.VDW>
0.227962

>  <SCORE.INTRA.VDW.0>
-0.964461

>  <SCORE.INTRA.norm>
-0.0087382

>  <SCORE.RESTR>
0

>  <SCORE.RESTR.CAVITY>
0

>  <SCORE.RESTR.norm>
0

>  <SCORE.SYSTEM>
0

>  <SCORE.SYSTEM.CONST>
0

>  <SCORE.SYSTEM.DIHEDRAL>
0

>  <SCORE.SYSTEM.SOLV>
0

>  <SCORE.SYSTEM.norm>
0

>  <SCORE.heavy>
19

>  <SCORE.norm>
-0.856445

>  <RMSD>
0.725

$$$$
ligand
 OpenBabel11021811483D
libRbt.so/2013.1/901 2013/11/27
 19 21  0  0  0  0  0  0  0  0999 V2000
   17.8534   29.1662   33.2097 C   0  0  0  0  0  0  0  0  0  0  0  0
   18.4527   27.8592   33.2458 O   0  0  0  0  0  0  0  0  0  0  0  0
   18.4839   30.0964   34.2514 C   0  0  1  0  0  0  0  0  0  0  0  0
   18.2995   29.5738   35.5668 O   0  0  0  0  0  0  0  0  0  0  0  0
   19.9785   30.2490   34.0418 C   0  0  1  0  0  0  0  0  0  0  0  0
   20.3123   31.6318   34.1691 O   0  0  0  0  0  0  0  0  0  0  0  0
   20.6518   29.4779   35.1545 C   0  0  0  0  0  0  0  0  0  0  0  0
   19.5549   29.2285   36.1736 C   0  0  2  0  0  0  0  0  0  0  0  0
   17.6646   26.0605   39.7997 N   0  0  0  0  0  0  0  0  0  0  0  0
   17.5571   27.4029   39.6522 C   0  0  2  0  0  0  0  0  0  0  0  0
   16.8515   28.1283   40.5453 N   0  0  0  0  0  0  0  0  0  0  0  0
   18.1418   28.0504   38.6222 N   0  0  0  0  0  0  0  0  0  0  0  0
   18.8611   27.3905   37.6920 C   0  0  1  0  0  0  0  0  0  0  0  0
   19.0171   26.0263   37.7803 C   0  0  1  0  0  0  0  0  0  0  0  0
   18.3684   25.3249   38.9155 C   0  0  0  0  0  0  0  0  0  0  0  0
   18.4760   24.0862   39.0517 O   0  0  0  0  0  0  0  0  0  0  0  0
   19.7677   25.6326   36.7372 N   0  0  0  0  0  0  0  0  0  0  0  0
   20.0662   26.7422   36.0227 C   0  0  0  0  0  0  0  0  0  0  0  0
   19.5059   27.8090   36.6150 N   0  0  1  0  0  0  0  0  0  0  0  0
  1  2  1  0  0  0  0
  3  1  1  6  0  0  0
  3  4  1  0  0  0  0
  3  5  1  0  0  0  0
  5  6  1  1  0  0  0
  5  7  1  0  0  0  0
  7  8  1  0  0  0  0
  8  4  1  6  0  0  0
  8 19  1  0  0  0  0
  9 15  1  0  0  0  0
  9 10  1  0  0  0  0
 10 11  1  6  0  0  0
 10 12  1  0  0  0  0
 13 12  1  6  0  0  0
 13 14  1  0  0  0  0
 13 19  1  0  0  0  0
 14 15  1  6  0  0  0
 14 17  1  0  0  0  0
 15 16  2  0  0  0  0
 17 18  1  0  0  0  0
 19 18  1  6  0  0  0
M  END
>  <CHROM.1>
-60.50762132,-76.08936437,18.83318252,27.93160408,36.63153600,-1.01077212
-1.20680334,2.75115910

>  <Name>
ligand

>  <RI>
0

>  <Rbt.Current_Directory>
/home/itssahil/PROJECTS/Mol_Feturizer/New_Systems/rnas/3SKL

>  <Rbt.Executable>
rbdock ($Id: //depot/dev/client3/rdock/2013.1/src/exe/rbdock.cxx#4 $)

>  <Rbt.Library>
libRbt.so (2013.1, Build901 2013/11/27)

>  <Rbt.Parameter_File>
/export/apps/rDock/src/rDock_2013.1_src/data/scripts/dock_solv.prm

>  <Rbt.Receptor>
prm/pocket_docking_3.prm

>  <SCORE>
-17.07

>  <SCORE.INTER>
-16.9275

>  <SCORE.INTER.CONST>
1

>  <SCORE.INTER.POLAR>
0

>  <SCORE.INTER.ROT>
2

>  <SCORE.INTER.SOLV>
16.6409

>  <SCORE.INTER.VDW>
-21.7653

>  <SCORE.INTER.norm>
-0.89092

>  <SCORE.INTRA>
-0.14597

>  <SCORE.INTRA.DIHEDRAL>
-0.31638

>  <SCORE.INTRA.DIHEDRAL.0>
1.50031

>  <SCORE.INTRA.POLAR>
0

>  <SCORE.INTRA.POLAR.0>
0

>  <SCORE.INTRA.REPUL>
0

>  <SCORE.INTRA.REPUL.0>
0

>  <SCORE.INTRA.SOLV>
0.0136831

>  <SCORE.INTRA.SOLV.lig_0>
-37.9941

>  <SCORE.INTRA.VDW>
0.00537811

>  <SCORE.INTRA.VDW.0>
-0.964461

>  <SCORE.INTRA.norm>
-0.00768265

>  <SCORE.RESTR>
0.00340693

>  <SCORE.RESTR.CAVITY>
0.00340693

>  <SCORE.RESTR.norm>
0.000179312

>  <SCORE.SYSTEM>
0

>  <SCORE.SYSTEM.CONST>
0

>  <SCORE.SYSTEM.DIHEDRAL>
0

>  <SCORE.SYSTEM.SOLV>
0

>  <SCORE.SYSTEM.norm>
0

>  <SCORE.heavy>
19

>  <SCORE.norm>
-0.898423

>  <RMSD>
0.725

$$$$
ligand
 OpenBabel11021811483D
libRbt.so/2013.1/901 2013/11/27
 19 21  0  0  0  0  0  0  0  0999 V2000
   17.6192   28.7090   33.3093 C   0  0  0  0  0  0  0  0  0  0  0  0
   17.7713   29.0178   31.9128 O   0  0  0  0  0  0  0  0  0  0  0  0
   18.3824   29.7071   34.1862 C   0  0  1  0  0  0  0  0  0  0  0  0
   18.2867   29.3407   35.5624 O   0  0  0  0  0  0  0  0  0  0  0  0
   19.8590   29.7485   33.8413 C   0  0  1  0  0  0  0  0  0  0  0  0
   20.2704   31.1151   33.7857 O   0  0  0  0  0  0  0  0  0  0  0  0
   20.5870   29.0634   34.9756 C   0  0  0  0  0  0  0  0  0  0  0  0
   19.5713   28.9896   36.1011 C   0  0  2  0  0  0  0  0  0  0  0  0
   17.5513   26.2844   40.0202 N   0  0  0  0  0  0  0  0  0  0  0  0
   17.4679   27.6022   39.7170 C   0  0  2  0  0  0  0  0  0  0  0  0
   16.7535   28.4344   40.5037 N   0  0  0  0  0  0  0  0  0  0  0  0
   18.0854   28.1193   38.6339 N   0  0  0  0  0  0  0  0  0  0  0  0
   18.8153   27.3476   37.8033 C   0  0  1  0  0  0  0  0  0  0  0  0
   18.9483   26.0008   38.0513 C   0  0  1  0  0  0  0  0  0  0  0  0
   18.2635   25.4431   39.2435 C   0  0  0  0  0  0  0  0  0  0  0  0
   18.3489   24.2270   39.5236 O   0  0  0  0  0  0  0  0  0  0  0  0
   19.7160   25.4802   37.0787 N   0  0  0  0  0  0  0  0  0  0  0  0
   20.0476   26.4963   36.2490 C   0  0  0  0  0  0  0  0  0  0  0  0
   19.4905   27.6312   36.7012 N   0  0  1  0  0  0  0  0  0  0  0  0
  1  2  1  0  0  0  0
  3  1  1  6  0  0  0
  3  4  1  0  0  0  0
  3  5  1  0  0  0  0
  5  6  1  1  0  0  0
  5  7  1  0  0  0  0
  7  8  1  0  0  0  0
  8  4  1  6  0  0  0
  8 19  1  0  0  0  0
  9 15  1  0  0  0  0
  9 10  1  0  0  0  0
 10 11  1  6  0  0  0
 10 12  1  0  0  0  0
 13 12  1  6  0  0  0
 13 14  1  0  0  0  0
 13 19  1  0  0  0  0
 14 15  1  6  0  0  0
 14 17  1  0  0  0  0
 15 16  2  0  0  0  0
 17 18  1  0  0  0  0
 19 18  1  6  0  0  0
M  END
>  <CHROM.1>
-176.56021997,-69.53581758,18.72104602,27.87676178,36.61310173,-1.25834225
-1.08275062,2.38531292

>  <Name>
ligand

>  <RI>
0

>  <Rbt.Current_Directory>
/home/itssahil/PROJECTS/Mol_Feturizer/New_Systems/rnas/3SKL

>  <Rbt.Executable>
rbdock ($Id: //depot/dev/client3/rdock/2013.1/src/exe/rbdock.cxx#4 $)

>  <Rbt.Library>
libRbt.so (2013.1, Build901 2013/11/27)

>  <Rbt.Parameter_File>
/export/apps/rDock/src/rDock_2013.1_src/data/scripts/dock_solv.prm

>  <Rbt.Receptor>
prm/pocket_docking_2.prm

>  <SCORE>
-16.4897

>  <SCORE.INTER>
-16.6006

>  <SCORE.INTER.CONST>
1

>  <SCORE.INTER.POLAR>
0

>  <SCORE.INTER.ROT>
2

>  <SCORE.INTER.SOLV>
17.3562

>  <SCORE.INTER.VDW>
-21.7858

>  <SCORE.INTER.norm>
-0.873717

>  <SCORE.INTRA>
0.0958571

>  <SCORE.INTRA.DIHEDRAL>
-0.266893

>  <SCORE.INTRA.DIHEDRAL.0>
1.50031

>  <SCORE.INTRA.POLAR>
0

>  <SCORE.INTRA.POLAR.0>
0

>  <SCORE.INTRA.REPUL>
0

>  <SCORE.INTRA.REPUL.0>
0

>  <SCORE.INTRA.SOLV>
-0.415443

>  <SCORE.INTRA.SOLV.lig_0>
-37.9941

>  <SCORE.INTRA.VDW>
0.437025

>  <SCORE.INTRA.VDW.0>
-0.964461

>  <SCORE.INTRA.norm>
0.00504511

>  <SCORE.RESTR>
0.0150823

>  <SCORE.RESTR.CAVITY>
0.0150823

>  <SCORE.RESTR.norm>
0.000793808

>  <SCORE.SYSTEM>
0

>  <SCORE.SYSTEM.CONST>
0

>  <SCORE.SYSTEM.DIHEDRAL>
0

>  <SCORE.SYSTEM.SOLV>
0

>  <SCORE.SYSTEM.norm>
0

>  <SCORE.heavy>
19

>  <SCORE.norm>
-0.867878

>  <RMSD>
0.726

$$$$
ligand
 OpenBabel11021811483D
libRbt.so/2013.1/901 2013/11/27
 19 21  0  0  0  0  0  0  0  0999 V2000
   17.5828   28.6561   33.3002 C   0  0  0  0  0  0  0  0  0  0  0  0
   17.7184   28.9867   31.9070 O   0  0  0  0  0  0  0  0  0  0  0  0
   18.3261   29.6618   34.1856 C   0  0  1  0  0  0  0  0  0  0  0  0
   18.2283   29.2879   35.5597 O   0  0  0  0  0  0  0  0  0  0  0  0
   19.8038   29.7267   33.8492 C   0  0  1  0  0  0  0  0  0  0  0  0
   20.1950   31.0995   33.8017 O   0  0  0  0  0  0  0  0  0  0  0  0
   20.5356   29.0477   34.9847 C   0  0  0  0  0  0  0  0  0  0  0  0
   19.5149   28.9538   36.1041 C   0  0  2  0  0  0  0  0  0  0  0  0
   17.5585   26.2128   40.0306 N   0  0  0  0  0  0  0  0  0  0  0  0
   17.4615   27.5315   39.7351 C   0  0  2  0  0  0  0  0  0  0  0  0
   16.7493   28.3541   40.5338 N   0  0  0  0  0  0  0  0  0  0  0  0
   18.0633   28.0590   38.6482 N   0  0  0  0  0  0  0  0  0  0  0  0
   18.7902   27.2973   37.8058 C   0  0  1  0  0  0  0  0  0  0  0  0
   18.9363   25.9503   38.0453 C   0  0  1  0  0  0  0  0  0  0  0  0
   18.2687   25.3811   39.2419 C   0  0  0  0  0  0  0  0  0  0  0  0
   18.3667   24.1644   39.5148 O   0  0  0  0  0  0  0  0  0  0  0  0
   19.6975   25.4407   37.0618 N   0  0  0  0  0  0  0  0  0  0  0  0
   20.0122   26.4636   36.2339 C   0  0  0  0  0  0  0  0  0  0  0  0
   19.4512   27.5917   36.6980 N   0  0  1  0  0  0  0  0  0  0  0  0
  1  2  1  0  0  0  0
  3  1  1  6  0  0  0
  3  4  1  0  0  0  0
  3  5  1  0  0  0  0
  5  6  1  1  0  0  0
  5  7  1  0  0  0  0
  7  8  1  0  0  0  0
  8  4  1  6  0  0  0
  8 19  1  0  0  0  0
  9 15  1  0  0  0  0
  9 10  1  0  0  0  0
 10 11  1  6  0  0  0
 10 12  1  0  0  0  0
 13 12  1  6  0  0  0
 13 14  1  0  0  0  0
 13 19  1  0  0  0  0
 14 15  1  6  0  0  0
 14 17  1  0  0  0  0
 15 16  2  0  0  0  0
 17 18  1  0  0  0  0
 19 18  1  6  0  0  0
M  END
>  <CHROM.1>
-177.57856845,-70.55985970,18.69008507,27.83016898,36.61530819,-1.26956008
-1.09797114,2.38046534

>  <Name>
ligand

>  <RI>
0

>  <Rbt.Current_Directory>
/home/itssahil/PROJECTS/Mol_Feturizer/New_Systems/rnas/3SKL

>  <Rbt.Executable>
rbdock ($Id: //depot/dev/client3/rdock/2013.1/src/exe/rbdock.cxx#4 $)

>  <Rbt.Library>
libRbt.so (2013.1, Build901 2013/11/27)

>  <Rbt.Parameter_File>
/export/apps/rDock/src/rDock_2013.1_src/data/scripts/dock_solv.prm

>  <Rbt.Receptor>
prm/pocket_docking_2.prm

>  <SCORE>
-16.5091

>  <SCORE.INTER>
-16.575

>  <SCORE.INTER.CONST>
1

>  <SCORE.INTER.POLAR>
0

>  <SCORE.INTER.ROT>
2

>  <SCORE.INTER.SOLV>
17.3122

>  <SCORE.INTER.VDW>
-21.7541

>  <SCORE.INTER.norm>
-0.872369

>  <SCORE.INTRA>
0.0659249

>  <SCORE.INTRA.DIHEDRAL>
-0.289836

>  <SCORE.INTRA.DIHEDRAL.0>
1.50031

>  <SCORE.INTRA.POLAR>
0

>  <SCORE.INTRA.POLAR.0>
0

>  <SCORE.INTRA.REPUL>
0

>  <SCORE.INTRA.REPUL.0>
0

>  <SCORE.INTRA.SOLV>
-0.421071

>  <SCORE.INTRA.SOLV.lig_0>
-37.9941

>  <SCORE.INTRA.VDW>
0.421378

>  <SCORE.INTRA.VDW.0>
-0.964461

>  <SCORE.INTRA.norm>
0.00346973

>  <SCORE.RESTR>
0

>  <SCORE.RESTR.CAVITY>
0

>  <SCORE.RESTR.norm>
0

>  <SCORE.SYSTEM>
0

>  <SCORE.SYSTEM.CONST>
0

>  <SCORE.SYSTEM.DIHEDRAL>
0

>  <SCORE.SYSTEM.SOLV>
0

>  <SCORE.SYSTEM.norm>
0

>  <SCORE.heavy>
19

>  <SCORE.norm>
-0.868899

>  <RMSD>
0.726

$$$$
ligand
 OpenBabel11021811483D
libRbt.so/2013.1/901 2013/11/27
 19 21  0  0  0  0  0  0  0  0999 V2000
   17.6641   28.6580   33.2931 C   0  0  0  0  0  0  0  0  0  0  0  0
   17.7977   29.0165   31.9066 O   0  0  0  0  0  0  0  0  0  0  0  0
   18.3869   29.6604   34.1990 C   0  0  1  0  0  0  0  0  0  0  0  0
   18.2581   29.2812   35.5691 O   0  0  0  0  0  0  0  0  0  0  0  0
   19.8718   29.7269   33.8964 C   0  0  1  0  0  0  0  0  0  0  0  0
   20.2637   31.0999   33.8631 O   0  0  0  0  0  0  0  0  0  0  0  0
   20.5780   29.0435   35.0455 C   0  0  0  0  0  0  0  0  0  0  0  0
   19.5322   28.9451   36.1412 C   0  0  2  0  0  0  0  0  0  0  0  0
   17.6133   26.2175   40.0953 N   0  0  0  0  0  0  0  0  0  0  0  0
   17.5355   27.5397   39.8102 C   0  0  2  0  0  0  0  0  0  0  0  0
   16.8583   28.3708   40.6301 N   0  0  0  0  0  0  0  0  0  0  0  0
   18.1223   28.0623   38.7128 N   0  0  0  0  0  0  0  0  0  0  0  0
   18.8144   27.2920   37.8492 C   0  0  1  0  0  0  0  0  0  0  0  0
   18.9395   25.9410   38.0771 C   0  0  1  0  0  0  0  0  0  0  0  0
   18.2886   25.3772   39.2854 C   0  0  0  0  0  0  0  0  0  0  0  0
   18.3689   24.1570   39.5486 O   0  0  0  0  0  0  0  0  0  0  0  0
   19.6676   25.4229   37.0732 N   0  0  0  0  0  0  0  0  0  0  0  0
   19.9832   26.4448   36.2444 C   0  0  0  0  0  0  0  0  0  0  0  0
   19.4554   27.5807   36.7281 N   0  0  1  0  0  0  0  0  0  0  0  0
  1  2  1  0  0  0  0
  3  1  1  6  0  0  0
  3  4  1  0  0  0  0
  3  5  1  0  0  0  0
  5  6  1  1  0  0  0
  5  7  1  0  0  0  0
  7  8  1  0  0  0  0
  8  4  1  6  0  0  0
  8 19  1  0  0  0  0
  9 15  1  0  0  0  0
  9 10  1  0  0  0  0
 10 11  1  6  0  0  0
 10 12  1  0  0  0  0
 13 12  1  6  0  0  0
 13 14  1  0  0  0  0
 13 19  1  0  0  0  0
 14 15  1  6  0  0  0
 14 17  1  0  0  0  0
 15 16  2  0  0  0  0
 17 18  1  0  0  0  0
 19 18  1  6  0  0  0
M  END
>  <CHROM.1>
-179.30170279,-73.42247845,18.72985998,27.82897805,36.65317509,-1.21451126
-1.16474584,2.43621990

>  <Name>
ligand

>  <RI>
0

>  <Rbt.Current_Directory>
/home/itssahil/PROJECTS/Mol_Feturizer/New_Systems/rnas/3SKL

>  <Rbt.Executable>
rbdock ($Id: //depot/dev/client3/rdock/2013.1/src/exe/rbdock.cxx#4 $)

>  <Rbt.Library>
libRbt.so (2013.1, Build901 2013/11/27)

>  <Rbt.Parameter_File>
/export/apps/rDock/src/rDock_2013.1_src/data/scripts/dock_solv.prm

>  <Rbt.Receptor>
prm/pocket_docking_2.prm

>  <SCORE>
-16.4525

>  <SCORE.INTER>
-16.466

>  <SCORE.INTER.CONST>
1

>  <SCORE.INTER.POLAR>
0

>  <SCORE.INTER.ROT>
2

>  <SCORE.INTER.SOLV>
17.069

>  <SCORE.INTER.VDW>
-21.6003

>  <SCORE.INTER.norm>
-0.86663

>  <SCORE.INTRA>
0.0134438

>  <SCORE.INTRA.DIHEDRAL>
-0.312743

>  <SCORE.INTRA.DIHEDRAL.0>
1.50031

>  <SCORE.INTRA.POLAR>
0

>  <SCORE.INTRA.POLAR.0>
0

>  <SCORE.INTRA.REPUL>
0

>  <SCORE.INTRA.REPUL.0>
0

>  <SCORE.INTRA.SOLV>
-0.431495

>  <SCORE.INTRA.SOLV.lig_0>
-37.9941

>  <SCORE.INTRA.VDW>
0.385563

>  <SCORE.INTRA.VDW.0>
-0.964461

>  <SCORE.INTRA.norm>
0.000707571

>  <SCORE.RESTR>
0

>  <SCORE.RESTR.CAVITY>
0

>  <SCORE.RESTR.norm>
0

>  <SCORE.SYSTEM>
0

>  <SCORE.SYSTEM.CONST>
0

>  <SCORE.SYSTEM.DIHEDRAL>
0

>  <SCORE.SYSTEM.SOLV>
0

>  <SCORE.SYSTEM.norm>
0

>  <SCORE.heavy>
19

>  <SCORE.norm>
-0.865922

>  <RMSD>
0.729

$$$$
ligand
 OpenBabel11021811483D
libRbt.so/2013.1/901 2013/11/27
 19 21  0  0  0  0  0  0  0  0999 V2000
   17.8067   28.5338   33.1063 C   0  0  0  0  0  0  0  0  0  0  0  0
   16.4121   28.3178   33.3838 O   0  0  0  0  0  0  0  0  0  0  0  0
   18.4089   29.5728   34.0582 C   0  0  1  0  0  0  0  0  0  0  0  0
   18.1917   29.1930   35.4168 O   0  0  0  0  0  0  0  0  0  0  0  0
   19.9080   29.7086   33.8712 C   0  0  1  0  0  0  0  0  0  0  0  0
   20.2363   31.0985   33.8582 O   0  0  0  0  0  0  0  0  0  0  0  0
   20.5539   29.0638   35.0767 C   0  0  0  0  0  0  0  0  0  0  0  0
   19.4318   28.9200   36.0886 C   0  0  2  0  0  0  0  0  0  0  0  0
   17.6788   26.2011   40.1250 N   0  0  0  0  0  0  0  0  0  0  0  0
   17.5959   27.5239   39.8442 C   0  0  2  0  0  0  0  0  0  0  0  0
   16.9615   28.3585   40.6944 N   0  0  0  0  0  0  0  0  0  0  0  0
   18.1352   28.0438   38.7214 N   0  0  0  0  0  0  0  0  0  0  0  0
   18.7828   27.2701   37.8269 C   0  0  1  0  0  0  0  0  0  0  0  0
   18.9102   25.9181   38.0484 C   0  0  1  0  0  0  0  0  0  0  0  0
   18.3116   25.3574   39.2849 C   0  0  0  0  0  0  0  0  0  0  0  0
   18.3966   24.1366   39.5436 O   0  0  0  0  0  0  0  0  0  0  0  0
   19.5888   25.3965   37.0122 N   0  0  0  0  0  0  0  0  0  0  0  0
   19.8723   26.4170   36.1702 C   0  0  0  0  0  0  0  0  0  0  0  0
   19.3737   27.5557   36.6779 N   0  0  1  0  0  0  0  0  0  0  0  0
  1  2  1  0  0  0  0
  3  1  1  6  0  0  0
  3  4  1  0  0  0  0
  3  5  1  0  0  0  0
  5  6  1  1  0  0  0
  5  7  1  0  0  0  0
  7  8  1  0  0  0  0
  8  4  1  6  0  0  0
  8 19  1  0  0  0  0
  9 15  1  0  0  0  0
  9 10  1  0  0  0  0
 10 11  1  6  0  0  0
 10 12  1  0  0  0  0
 13 12  1  6  0  0  0
 13 14  1  0  0  0  0
 13 19  1  0  0  0  0
 14 15  1  6  0  0  0
 14 17  1  0  0  0  0
 15 16  2  0  0  0  0
 17 18  1  0  0  0  0
 19 18  1  6  0  0  0
M  END
>  <CHROM.1>
55.14539183,-81.12810474,18.64226818,27.75706856,36.70979415,-1.22514733
-1.18540195,2.44427663

>  <Name>
ligand

>  <RI>
0

>  <Rbt.Current_Directory>
/home/itssahil/PROJECTS/Mol_Feturizer/New_Systems/rnas/3SKL

>  <Rbt.Executable>
rbdock ($Id: //depot/dev/client3/rdock/2013.1/src/exe/rbdock.cxx#4 $)

>  <Rbt.Library>
libRbt.so (2013.1, Build901 2013/11/27)

>  <Rbt.Parameter_File>
/export/apps/rDock/src/rDock_2013.1_src/data/scripts/dock_solv.prm

>  <Rbt.Receptor>
prm/pocket_docking_2.prm

>  <SCORE>
-16.2043

>  <SCORE.INTER>
-16.0674

>  <SCORE.INTER.CONST>
1

>  <SCORE.INTER.POLAR>
0

>  <SCORE.INTER.ROT>
2

>  <SCORE.INTER.SOLV>
16.4618

>  <SCORE.INTER.VDW>
-21.1322

>  <SCORE.INTER.norm>
-0.845653

>  <SCORE.INTRA>
-0.136854

>  <SCORE.INTRA.DIHEDRAL>
-0.237426

>  <SCORE.INTRA.DIHEDRAL.0>
1.50031

>  <SCORE.INTRA.POLAR>
0

>  <SCORE.INTRA.POLAR.0>
0

>  <SCORE.INTRA.REPUL>
0

>  <SCORE.INTRA.REPUL.0>
0

>  <SCORE.INTRA.SOLV>
-0.510455

>  <SCORE.INTRA.SOLV.lig_0>
-37.9941

>  <SCORE.INTRA.VDW>
0.237087

>  <SCORE.INTRA.VDW.0>
-0.964461

>  <SCORE.INTRA.norm>
-0.00720283

>  <SCORE.RESTR>
0

>  <SCORE.RESTR.CAVITY>
0

>  <SCORE.RESTR.norm>
0

>  <SCORE.SYSTEM>
0

>  <SCORE.SYSTEM.CONST>
0

>  <SCORE.SYSTEM.DIHEDRAL>
0

>  <SCORE.SYSTEM.SOLV>
0

>  <SCORE.SYSTEM.norm>
0

>  <SCORE.heavy>
19

>  <SCORE.norm>
-0.852856

>  <RMSD>
0.732

$$$$
ligand
 OpenBabel11021811483D
libRbt.so/2013.1/901 2013/11/27
 19 21  0  0  0  0  0  0  0  0999 V2000
   17.7895   28.4991   33.0975 C   0  0  0  0  0  0  0  0  0  0  0  0
   16.4225   28.2214   33.4479 O   0  0  0  0  0  0  0  0  0  0  0  0
   18.3990   29.5535   34.0274 C   0  0  1  0  0  0  0  0  0  0  0  0
   18.2156   29.1831   35.3936 O   0  0  0  0  0  0  0  0  0  0  0  0
   19.8921   29.7059   33.8072 C   0  0  1  0  0  0  0  0  0  0  0  0
   20.2028   31.0996   33.7753 O   0  0  0  0  0  0  0  0  0  0  0  0
   20.5714   29.0796   35.0039 C   0  0  0  0  0  0  0  0  0  0  0  0
   19.4730   28.9310   36.0408 C   0  0  2  0  0  0  0  0  0  0  0  0
   17.8447   26.2274   40.1392 N   0  0  0  0  0  0  0  0  0  0  0  0
   17.7399   27.5467   39.8492 C   0  0  2  0  0  0  0  0  0  0  0  0
   17.1154   28.3813   40.7067 N   0  0  0  0  0  0  0  0  0  0  0  0
   18.2473   28.0630   38.7100 N   0  0  0  0  0  0  0  0  0  0  0  0
   18.8832   27.2889   37.8074 C   0  0  1  0  0  0  0  0  0  0  0  0
   19.0315   25.9405   38.0373 C   0  0  1  0  0  0  0  0  0  0  0  0
   18.4680   25.3837   39.2919 C   0  0  0  0  0  0  0  0  0  0  0  0
   18.5731   24.1663   39.5590 O   0  0  0  0  0  0  0  0  0  0  0  0
   19.6923   25.4177   36.9903 N   0  0  0  0  0  0  0  0  0  0  0  0
   19.9445   26.4341   36.1335 C   0  0  0  0  0  0  0  0  0  0  0  0
   19.4444   27.5713   36.6429 N   0  0  1  0  0  0  0  0  0  0  0  0
  1  2  1  0  0  0  0
  3  1  1  6  0  0  0
  3  4  1  0  0  0  0
  3  5  1  0  0  0  0
  5  6  1  1  0  0  0
  5  7  1  0  0  0  0
  7  8  1  0  0  0  0
  8  4  1  6  0  0  0
  8 19  1  0  0  0  0
  9 15  1  0  0  0  0
  9 10  1  0  0  0  0
 10 11  1  6  0  0  0
 10 12  1  0  0  0  0
 13 12  1  6  0  0  0
 13 14  1  0  0  0  0
 13 19  1  0  0  0  0
 14 15  1  6  0  0  0
 14 17  1  0  0  0  0
 15 16  2  0  0  0  0
 17 18  1  0  0  0  0
 19 18  1  6  0  0  0
M  END
>  <CHROM.1>
52.35451397,-81.22094483,18.71374026,27.76145367,36.69189190,-1.27103480
-1.20993111,2.39481950

>  <Name>
ligand

>  <RI>
0

>  <Rbt.Current_Directory>
/home/itssahil/PROJECTS/Mol_Feturizer/New_Systems/rnas/3SKL

>  <Rbt.Executable>
rbdock ($Id: //depot/dev/client3/rdock/2013.1/src/exe/rbdock.cxx#4 $)

>  <Rbt.Library>
libRbt.so (2013.1, Build901 2013/11/27)

>  <Rbt.Parameter_File>
/export/apps/rDock/src/rDock_2013.1_src/data/scripts/dock_solv.prm

>  <Rbt.Receptor>
prm/pocket_docking_2.prm

>  <SCORE>
-16.2499

>  <SCORE.INTER>
-16.1663

>  <SCORE.INTER.CONST>
1

>  <SCORE.INTER.POLAR>
0

>  <SCORE.INTER.ROT>
2

>  <SCORE.INTER.SOLV>
16.0121

>  <SCORE.INTER.VDW>
-21.0482

>  <SCORE.INTER.norm>
-0.850857

>  <SCORE.INTRA>
-0.0835925

>  <SCORE.INTRA.DIHEDRAL>
-0.114482

>  <SCORE.INTRA.DIHEDRAL.0>
1.50031

>  <SCORE.INTRA.POLAR>
0

>  <SCORE.INTRA.POLAR.0>
0

>  <SCORE.INTRA.REPUL>
0

>  <SCORE.INTRA.REPUL.0>
0

>  <SCORE.INTRA.SOLV>
-0.495983

>  <SCORE.INTRA.SOLV.lig_0>
-37.9941

>  <SCORE.INTRA.VDW>
0.22164

>  <SCORE.INTRA.VDW.0>
-0.964461

>  <SCORE.INTRA.norm>
-0.0043996

>  <SCORE.RESTR>
0

>  <SCORE.RESTR.CAVITY>
0

>  <SCORE.RESTR.norm>
0

>  <SCORE.SYSTEM>
0

>  <SCORE.SYSTEM.CONST>
0

>  <SCORE.SYSTEM.DIHEDRAL>
0

>  <SCORE.SYSTEM.SOLV>
0

>  <SCORE.SYSTEM.norm>
0

>  <SCORE.heavy>
19

>  <SCORE.norm>
-0.855257

>  <RMSD>
0.733

$$$$
ligand
 OpenBabel11021811483D
libRbt.so/2013.1/901 2013/11/27
 19 21  0  0  0  0  0  0  0  0999 V2000
   17.8925   29.2120   33.3139 C   0  0  0  0  0  0  0  0  0  0  0  0
   18.4734   27.9001   33.4143 O   0  0  0  0  0  0  0  0  0  0  0  0
   18.4794   30.1621   34.3631 C   0  0  1  0  0  0  0  0  0  0  0  0
   18.2715   29.6468   35.6779 O   0  0  0  0  0  0  0  0  0  0  0  0
   19.9757   30.3407   34.1897 C   0  0  1  0  0  0  0  0  0  0  0  0
   20.2808   31.7304   34.3135 O   0  0  0  0  0  0  0  0  0  0  0  0
   20.6347   29.5912   35.3254 C   0  0  0  0  0  0  0  0  0  0  0  0
   19.5173   29.3297   36.3188 C   0  0  2  0  0  0  0  0  0  0  0  0
   17.6335   26.1644   39.9506 N   0  0  0  0  0  0  0  0  0  0  0  0
   17.5092   27.5041   39.7914 C   0  0  2  0  0  0  0  0  0  0  0  0
   16.7846   28.2266   40.6715 N   0  0  0  0  0  0  0  0  0  0  0  0
   18.0954   28.1515   38.7622 N   0  0  0  0  0  0  0  0  0  0  0  0
   18.8332   27.4943   37.8447 C   0  0  1  0  0  0  0  0  0  0  0  0
   19.0070   26.1331   37.9453 C   0  0  1  0  0  0  0  0  0  0  0  0
   18.3563   25.4318   39.0794 C   0  0  0  0  0  0  0  0  0  0  0  0
   18.4795   24.1957   39.2266 O   0  0  0  0  0  0  0  0  0  0  0  0
   19.7735   25.7417   36.9130 N   0  0  0  0  0  0  0  0  0  0  0  0
   20.0641   26.8497   36.1929 C   0  0  0  0  0  0  0  0  0  0  0  0
   19.4832   27.9132   36.7710 N   0  0  1  0  0  0  0  0  0  0  0  0
  1  2  1  0  0  0  0
  3  1  1  6  0  0  0
  3  4  1  0  0  0  0
  3  5  1  0  0  0  0
  5  6  1  1  0  0  0
  5  7  1  0  0  0  0
  7  8  1  0  0  0  0
  8  4  1  6  0  0  0
  8 19  1  0  0  0  0
  9 15  1  0  0  0  0
  9 10  1  0  0  0  0
 10 11  1  6  0  0  0
 10 12  1  0  0  0  0
 13 12  1  6  0  0  0
 13 14  1  0  0  0  0
 13 19  1  0  0  0  0
 14 15  1  6  0  0  0
 14 17  1  0  0  0  0
 15 16  2  0  0  0  0
 17 18  1  0  0  0  0
 19 18  1  6  0  0  0
M  END
>  <CHROM.1>
-58.00719096,-76.98711245,18.81670220,28.02467506,36.77970716,-1.01766635
-1.19606078,2.73785496

>  <Name>
ligand

>  <RI>
0

>  <Rbt.Current_Directory>
/home/itssahil/PROJECTS/Mol_Feturizer/New_Systems/rnas/3SKL

>  <Rbt.Executable>
rbdock ($Id: //depot/dev/client3/rdock/2013.1/src/exe/rbdock.cxx#4 $)

>  <Rbt.Library>
libRbt.so (2013.1, Build901 2013/11/27)

>  <Rbt.Parameter_File>
/export/apps/rDock/src/rDock_2013.1_src/data/scripts/dock_solv.prm

>  <Rbt.Receptor>
prm/pocket_docking_4.prm

>  <SCORE>
-17.1842

>  <SCORE.INTER>
-17.0161

>  <SCORE.INTER.CONST>
1

>  <SCORE.INTER.POLAR>
0

>  <SCORE.INTER.ROT>
2

>  <SCORE.INTER.SOLV>
17.0593

>  <SCORE.INTER.VDW>
-21.9639

>  <SCORE.INTER.norm>
-0.895585

>  <SCORE.INTRA>
-0.16805

>  <SCORE.INTRA.DIHEDRAL>
-0.302947

>  <SCORE.INTRA.DIHEDRAL.0>
1.50031

>  <SCORE.INTRA.POLAR>
0

>  <SCORE.INTRA.POLAR.0>
0

>  <SCORE.INTRA.REPUL>
0

>  <SCORE.INTRA.REPUL.0>
0

>  <SCORE.INTRA.SOLV>
0.0197032

>  <SCORE.INTRA.SOLV.lig_0>
-37.9941

>  <SCORE.INTRA.VDW>
-0.0264275

>  <SCORE.INTRA.VDW.0>
-0.964461

>  <SCORE.INTRA.norm>
-0.00884471

>  <SCORE.RESTR>
0

>  <SCORE.RESTR.CAVITY>
0

>  <SCORE.RESTR.norm>
0

>  <SCORE.SYSTEM>
0

>  <SCORE.SYSTEM.CONST>
0

>  <SCORE.SYSTEM.DIHEDRAL>
0

>  <SCORE.SYSTEM.SOLV>
0

>  <SCORE.SYSTEM.norm>
0

>  <SCORE.heavy>
19

>  <SCORE.norm>
-0.904429

>  <RMSD>
0.734

$$$$
ligand
 OpenBabel11021811483D
libRbt.so/2013.1/901 2013/11/27
 19 21  0  0  0  0  0  0  0  0999 V2000
   17.5033   28.6590   33.3797 C   0  0  0  0  0  0  0  0  0  0  0  0
   17.5994   28.9616   31.9769 O   0  0  0  0  0  0  0  0  0  0  0  0
   18.3104   29.6541   34.2201 C   0  0  1  0  0  0  0  0  0  0  0  0
   18.2653   29.2960   35.6011 O   0  0  0  0  0  0  0  0  0  0  0  0
   19.7726   29.6785   33.8172 C   0  0  1  0  0  0  0  0  0  0  0  0
   20.1951   31.0405   33.7374 O   0  0  0  0  0  0  0  0  0  0  0  0
   20.5378   28.9922   34.9259 C   0  0  0  0  0  0  0  0  0  0  0  0
   19.5665   28.9348   36.0909 C   0  0  2  0  0  0  0  0  0  0  0  0
   17.5255   26.2343   40.0023 N   0  0  0  0  0  0  0  0  0  0  0  0
   17.4279   27.5482   39.6864 C   0  0  2  0  0  0  0  0  0  0  0  0
   16.6899   28.3768   40.4548 N   0  0  0  0  0  0  0  0  0  0  0  0
   18.0546   28.0649   38.6083 N   0  0  0  0  0  0  0  0  0  0  0  0
   18.8080   27.2967   37.7957 C   0  0  1  0  0  0  0  0  0  0  0  0
   18.9564   25.9541   38.0574 C   0  0  1  0  0  0  0  0  0  0  0  0
   18.2614   25.3968   39.2439 C   0  0  0  0  0  0  0  0  0  0  0  0
   18.3599   24.1845   39.5360 O   0  0  0  0  0  0  0  0  0  0  0  0
   19.7463   25.4363   37.1012 N   0  0  0  0  0  0  0  0  0  0  0  0
   20.0760   26.4499   36.2678 C   0  0  0  0  0  0  0  0  0  0  0  0
   19.4959   27.5805   36.7015 N   0  0  1  0  0  0  0  0  0  0  0  0
  1  2  1  0  0  0  0
  3  1  1  6  0  0  0
  3  4  1  0  0  0  0
  3  5  1  0  0  0  0
  5  6  1  1  0  0  0
  5  7  1  0  0  0  0
  7  8  1  0  0  0  0
  8  4  1  6  0  0  0
  8 19  1  0  0  0  0
  9 15  1  0  0  0  0
  9 10  1  0  0  0  0
 10 11  1  6  0  0  0
 10 12  1  0  0  0  0
 13 12  1  6  0  0  0
 13 14  1  0  0  0  0
 13 19  1  0  0  0  0
 14 15  1  6  0  0  0
 14 17  1  0  0  0  0
 15 16  2  0  0  0  0
 17 18  1  0  0  0  0
 19 18  1  6  0  0  0
M  END
>  <CHROM.1>
-176.76612227,-66.10263104,18.68313650,27.82302679,36.61397829,1.31998231
1.00321748,-0.81820563

>  <Name>
ligand

>  <RI>
0

>  <Rbt.Current_Directory>
/home/itssahil/PROJECTS/Mol_Feturizer/New_Systems/rnas/3SKL

>  <Rbt.Executable>
rbdock ($Id: //depot/dev/client3/rdock/2013.1/src/exe/rbdock.cxx#4 $)

>  <Rbt.Library>
libRbt.so (2013.1, Build901 2013/11/27)

>  <Rbt.Parameter_File>
/export/apps/rDock/src/rDock_2013.1_src/data/scripts/dock_solv.prm

>  <Rbt.Receptor>
prm/pocket_docking_2.prm

>  <SCORE>
-16.358

>  <SCORE.INTER>
-16.4733

>  <SCORE.INTER.CONST>
1

>  <SCORE.INTER.POLAR>
0

>  <SCORE.INTER.ROT>
2

>  <SCORE.INTER.SOLV>
17.4077

>  <SCORE.INTER.VDW>
-21.7181

>  <SCORE.INTER.norm>
-0.867016

>  <SCORE.INTRA>
0.115297

>  <SCORE.INTRA.DIHEDRAL>
-0.26783

>  <SCORE.INTRA.DIHEDRAL.0>
1.50031

>  <SCORE.INTRA.POLAR>
0

>  <SCORE.INTRA.POLAR.0>
0

>  <SCORE.INTRA.REPUL>
0

>  <SCORE.INTRA.REPUL.0>
0

>  <SCORE.INTRA.SOLV>
-0.4139

>  <SCORE.INTRA.SOLV.lig_0>
-37.9941

>  <SCORE.INTRA.VDW>
0.456161

>  <SCORE.INTRA.VDW.0>
-0.964461

>  <SCORE.INTRA.norm>
0.00606824

>  <SCORE.RESTR>
0

>  <SCORE.RESTR.CAVITY>
0

>  <SCORE.RESTR.norm>
0

>  <SCORE.SYSTEM>
0

>  <SCORE.SYSTEM.CONST>
0

>  <SCORE.SYSTEM.DIHEDRAL>
0

>  <SCORE.SYSTEM.SOLV>
0

>  <SCORE.SYSTEM.norm>
0

>  <SCORE.heavy>
19

>  <SCORE.norm>
-0.860947

>  <RMSD>
0.736

$$$$
ligand
 OpenBabel11021811483D
libRbt.so/2013.1/901 2013/11/27
 19 21  0  0  0  0  0  0  0  0999 V2000
   18.0123   29.1382   33.1729 C   0  0  0  0  0  0  0  0  0  0  0  0
   18.6349   27.8522   33.3377 O   0  0  0  0  0  0  0  0  0  0  0  0
   18.4490   30.1126   34.2720 C   0  0  1  0  0  0  0  0  0  0  0  0
   18.1757   29.5676   35.5626 O   0  0  0  0  0  0  0  0  0  0  0  0
   19.9383   30.3951   34.2177 C   0  0  1  0  0  0  0  0  0  0  0  0
   20.1362   31.8008   34.3753 O   0  0  0  0  0  0  0  0  0  0  0  0
   20.5574   29.6779   35.3960 C   0  0  0  0  0  0  0  0  0  0  0  0
   19.3869   29.3281   36.2968 C   0  0  2  0  0  0  0  0  0  0  0  0
   17.7589   26.0707   39.9706 N   0  0  0  0  0  0  0  0  0  0  0  0
   17.5869   27.4073   39.8315 C   0  0  2  0  0  0  0  0  0  0  0  0
   16.8791   28.0984   40.7497 N   0  0  0  0  0  0  0  0  0  0  0  0
   18.1082   28.0826   38.7855 N   0  0  0  0  0  0  0  0  0  0  0  0
   18.8256   27.4575   37.8301 C   0  0  1  0  0  0  0  0  0  0  0  0
   19.0452   26.1015   37.9082 C   0  0  1  0  0  0  0  0  0  0  0  0
   18.4657   25.3693   39.0613 C   0  0  0  0  0  0  0  0  0  0  0  0
   18.6328   24.1364   39.1894 O   0  0  0  0  0  0  0  0  0  0  0  0
   19.7782   25.7441   36.8399 N   0  0  0  0  0  0  0  0  0  0  0  0
   20.0035   26.8675   36.1202 C   0  0  0  0  0  0  0  0  0  0  0  0
   19.4156   27.9069   36.7343 N   0  0  1  0  0  0  0  0  0  0  0  0
  1  2  1  0  0  0  0
  3  1  1  6  0  0  0
  3  4  1  0  0  0  0
  3  5  1  0  0  0  0
  5  6  1  1  0  0  0
  5  7  1  0  0  0  0
  7  8  1  0  0  0  0
  8  4  1  6  0  0  0
  8 19  1  0  0  0  0
  9 15  1  0  0  0  0
  9 10  1  0  0  0  0
 10 11  1  6  0  0  0
 10 12  1  0  0  0  0
 13 12  1  6  0  0  0
 13 14  1  0  0  0  0
 13 19  1  0  0  0  0
 14 15  1  6  0  0  0
 14 17  1  0  0  0  0
 15 16  2  0  0  0  0
 17 18  1  0  0  0  0
 19 18  1  6  0  0  0
M  END
>  <CHROM.1>
-55.85880651,-84.25351354,18.82998670,27.99295711,36.75735484,-1.01961474
-1.23879907,2.74356104

>  <Name>
ligand

>  <RI>
0

>  <Rbt.Current_Directory>
/home/itssahil/PROJECTS/Mol_Feturizer/New_Systems/rnas/3SKL

>  <Rbt.Executable>
rbdock ($Id: //depot/dev/client3/rdock/2013.1/src/exe/rbdock.cxx#4 $)

>  <Rbt.Library>
libRbt.so (2013.1, Build901 2013/11/27)

>  <Rbt.Parameter_File>
/export/apps/rDock/src/rDock_2013.1_src/data/scripts/dock_solv.prm

>  <Rbt.Receptor>
prm/pocket_docking_6.prm

>  <SCORE>
-16.921

>  <SCORE.INTER>
-16.6822

>  <SCORE.INTER.CONST>
1

>  <SCORE.INTER.POLAR>
0

>  <SCORE.INTER.ROT>
2

>  <SCORE.INTER.SOLV>
16.795

>  <SCORE.INTER.VDW>
-21.6531

>  <SCORE.INTER.norm>
-0.878012

>  <SCORE.INTRA>
-0.239644

>  <SCORE.INTRA.DIHEDRAL>
-0.259154

>  <SCORE.INTRA.DIHEDRAL.0>
1.50031

>  <SCORE.INTRA.POLAR>
0

>  <SCORE.INTRA.POLAR.0>
0

>  <SCORE.INTRA.REPUL>
0

>  <SCORE.INTRA.REPUL.0>
0

>  <SCORE.INTRA.SOLV>
0.0295213

>  <SCORE.INTRA.SOLV.lig_0>
-37.9941

>  <SCORE.INTRA.VDW>
-0.124827

>  <SCORE.INTRA.VDW.0>
-0.964461

>  <SCORE.INTRA.norm>
-0.0126128

>  <SCORE.RESTR>
0.000836075

>  <SCORE.RESTR.CAVITY>
0.000836075

>  <SCORE.RESTR.norm>
4.40039e-05

>  <SCORE.SYSTEM>
0

>  <SCORE.SYSTEM.CONST>
0

>  <SCORE.SYSTEM.DIHEDRAL>
0

>  <SCORE.SYSTEM.SOLV>
0

>  <SCORE.SYSTEM.norm>
0

>  <SCORE.heavy>
19

>  <SCORE.norm>
-0.890581

>  <RMSD>
0.738

$$$$
ligand
 OpenBabel11021811483D
libRbt.so/2013.1/901 2013/11/27
 19 21  0  0  0  0  0  0  0  0999 V2000
   17.8567   29.2163   33.2569 C   0  0  0  0  0  0  0  0  0  0  0  0
   18.3550   27.8729   33.3818 O   0  0  0  0  0  0  0  0  0  0  0  0
   18.5017   30.1472   34.2891 C   0  0  1  0  0  0  0  0  0  0  0  0
   18.3281   29.6300   35.6081 O   0  0  0  0  0  0  0  0  0  0  0  0
   19.9948   30.2922   34.0641 C   0  0  1  0  0  0  0  0  0  0  0  0
   20.3362   31.6739   34.1832 O   0  0  0  0  0  0  0  0  0  0  0  0
   20.6756   29.5219   35.1727 C   0  0  0  0  0  0  0  0  0  0  0  0
   19.5879   29.2811   36.2035 C   0  0  2  0  0  0  0  0  0  0  0  0
   17.6545   26.1229   39.8154 N   0  0  0  0  0  0  0  0  0  0  0  0
   17.5451   27.4644   39.6605 C   0  0  2  0  0  0  0  0  0  0  0  0
   16.8242   28.1914   40.5400 N   0  0  0  0  0  0  0  0  0  0  0  0
   18.1427   28.1092   38.6363 N   0  0  0  0  0  0  0  0  0  0  0  0
   18.8776   27.4475   37.7197 C   0  0  1  0  0  0  0  0  0  0  0  0
   19.0365   26.0842   37.8162 C   0  0  1  0  0  0  0  0  0  0  0  0
   18.3734   25.3858   38.9448 C   0  0  0  0  0  0  0  0  0  0  0  0
   18.4829   24.1480   39.0881 O   0  0  0  0  0  0  0  0  0  0  0  0
   19.8035   25.6884   36.7859 N   0  0  0  0  0  0  0  0  0  0  0  0
   20.1090   26.7958   36.0710 C   0  0  0  0  0  0  0  0  0  0  0  0
   19.5367   27.8634   36.6504 N   0  0  1  0  0  0  0  0  0  0  0  0
  1  2  1  0  0  0  0
  3  1  1  6  0  0  0
  3  4  1  0  0  0  0
  3  5  1  0  0  0  0
  5  6  1  1  0  0  0
  5  7  1  0  0  0  0
  7  8  1  0  0  0  0
  8  4  1  6  0  0  0
  8 19  1  0  0  0  0
  9 15  1  0  0  0  0
  9 10  1  0  0  0  0
 10 11  1  6  0  0  0
 10 12  1  0  0  0  0
 13 12  1  6  0  0  0
 13 14  1  0  0  0  0
 13 19  1  0  0  0  0
 14 15  1  6  0  0  0
 14 17  1  0  0  0  0
 15 16  2  0  0  0  0
 17 18  1  0  0  0  0
 19 18  1  6  0  0  0
M  END
>  <CHROM.1>
-54.71470284,-74.61355359,18.84053764,27.98378376,36.66616839,-1.03163177
-1.18817308,2.73145896

>  <Name>
ligand

>  <RI>
0

>  <Rbt.Current_Directory>
/home/itssahil/PROJECTS/Mol_Feturizer/New_Systems/rnas/3SKL

>  <Rbt.Executable>
rbdock ($Id: //depot/dev/client3/rdock/2013.1/src/exe/rbdock.cxx#4 $)

>  <Rbt.Library>
libRbt.so (2013.1, Build901 2013/11/27)

>  <Rbt.Parameter_File>
/export/apps/rDock/src/rDock_2013.1_src/data/scripts/dock_solv.prm

>  <Rbt.Receptor>
prm/pocket_docking_4.prm

>  <SCORE>
-17.1238

>  <SCORE.INTER>
-16.9859

>  <SCORE.INTER.CONST>
1

>  <SCORE.INTER.POLAR>
0

>  <SCORE.INTER.ROT>
2

>  <SCORE.INTER.SOLV>
16.7902

>  <SCORE.INTER.VDW>
-21.854

>  <SCORE.INTER.norm>
-0.893996

>  <SCORE.INTRA>
-0.137904

>  <SCORE.INTRA.DIHEDRAL>
-0.213899

>  <SCORE.INTRA.DIHEDRAL.0>
1.50031

>  <SCORE.INTRA.POLAR>
0

>  <SCORE.INTRA.POLAR.0>
0

>  <SCORE.INTRA.REPUL>
0

>  <SCORE.INTRA.REPUL.0>
0

>  <SCORE.INTRA.SOLV>
0.0229677

>  <SCORE.INTRA.SOLV.lig_0>
-37.9941

>  <SCORE.INTRA.VDW>
-0.042438

>  <SCORE.INTRA.VDW.0>
-0.964461

>  <SCORE.INTRA.norm>
-0.00725809

>  <SCORE.RESTR>
0

>  <SCORE.RESTR.CAVITY>
0

>  <SCORE.RESTR.norm>
0

>  <SCORE.SYSTEM>
0

>  <SCORE.SYSTEM.CONST>
0

>  <SCORE.SYSTEM.DIHEDRAL>
0

>  <SCORE.SYSTEM.SOLV>
0

>  <SCORE.SYSTEM.norm>
0

>  <SCORE.heavy>
19

>  <SCORE.norm>
-0.901254

>  <RMSD>
0.740

$$$$
ligand
 OpenBabel11021811483D
libRbt.so/2013.1/901 2013/11/27
 19 21  0  0  0  0  0  0  0  0999 V2000
   17.8629   29.1693   33.2519 C   0  0  0  0  0  0  0  0  0  0  0  0
   18.4467   27.8583   33.3462 O   0  0  0  0  0  0  0  0  0  0  0  0
   18.4459   30.1152   34.3071 C   0  0  1  0  0  0  0  0  0  0  0  0
   18.2539   29.5834   35.6177 O   0  0  0  0  0  0  0  0  0  0  0  0
   19.9387   30.3138   34.1249 C   0  0  1  0  0  0  0  0  0  0  0  0
   20.2279   31.7057   34.2614 O   0  0  0  0  0  0  0  0  0  0  0  0
   20.6150   29.5603   35.2477 C   0  0  0  0  0  0  0  0  0  0  0  0
   19.5081   29.2747   36.2462 C   0  0  2  0  0  0  0  0  0  0  0  0
   17.7058   26.0514   39.8684 N   0  0  0  0  0  0  0  0  0  0  0  0
   17.5659   27.3914   39.7255 C   0  0  2  0  0  0  0  0  0  0  0  0
   16.8461   28.0970   40.6231 N   0  0  0  0  0  0  0  0  0  0  0  0
   18.1315   28.0558   38.6956 N   0  0  0  0  0  0  0  0  0  0  0  0
   18.8633   27.4160   37.7611 C   0  0  1  0  0  0  0  0  0  0  0  0
   19.0521   26.0557   37.8446 C   0  0  1  0  0  0  0  0  0  0  0  0
   18.4240   25.3356   38.9796 C   0  0  0  0  0  0  0  0  0  0  0  0
   18.5616   24.0994   39.1117 O   0  0  0  0  0  0  0  0  0  0  0  0
   19.8084   25.6832   36.7978 N   0  0  0  0  0  0  0  0  0  0  0  0
   20.0780   26.8018   36.0859 C   0  0  0  0  0  0  0  0  0  0  0  0
   19.4944   27.8531   36.6833 N   0  0  1  0  0  0  0  0  0  0  0  0
  1  2  1  0  0  0  0
  3  1  1  6  0  0  0
  3  4  1  0  0  0  0
  3  5  1  0  0  0  0
  5  6  1  1  0  0  0
  5  7  1  0  0  0  0
  7  8  1  0  0  0  0
  8  4  1  6  0  0  0
  8 19  1  0  0  0  0
  9 15  1  0  0  0  0
  9 10  1  0  0  0  0
 10 11  1  6  0  0  0
 10 12  1  0  0  0  0
 13 12  1  6  0  0  0
 13 14  1  0  0  0  0
 13 19  1  0  0  0  0
 14 15  1  6  0  0  0
 14 17  1  0  0  0  0
 15 16  2  0  0  0  0
 17 18  1  0  0  0  0
 19 18  1  6  0  0  0
M  END
>  <CHROM.1>
-57.19575834,-77.36652146,18.83056250,27.95697595,36.70200606,-1.05127952
-1.20601849,2.71761509

>  <Name>
ligand

>  <RI>
0

>  <Rbt.Current_Directory>
/home/itssahil/PROJECTS/Mol_Feturizer/New_Systems/rnas/3SKL

>  <Rbt.Executable>
rbdock ($Id: //depot/dev/client3/rdock/2013.1/src/exe/rbdock.cxx#4 $)

>  <Rbt.Library>
libRbt.so (2013.1, Build901 2013/11/27)

>  <Rbt.Parameter_File>
/export/apps/rDock/src/rDock_2013.1_src/data/scripts/dock_solv.prm

>  <Rbt.Receptor>
prm/blind_docking_80.prm

>  <SCORE>
-17.0203

>  <SCORE.INTER>
-16.8499

>  <SCORE.INTER.CONST>
1

>  <SCORE.INTER.POLAR>
0

>  <SCORE.INTER.ROT>
2

>  <SCORE.INTER.SOLV>
16.8184

>  <SCORE.INTER.VDW>
-21.7728

>  <SCORE.INTER.norm>
-0.886838

>  <SCORE.INTRA>
-0.170399

>  <SCORE.INTRA.DIHEDRAL>
-0.288966

>  <SCORE.INTRA.DIHEDRAL.0>
1.50031

>  <SCORE.INTRA.POLAR>
0

>  <SCORE.INTRA.POLAR.0>
0

>  <SCORE.INTRA.REPUL>
0

>  <SCORE.INTRA.REPUL.0>
0

>  <SCORE.INTRA.SOLV>
0.0214991

>  <SCORE.INTRA.SOLV.lig_0>
-37.9941

>  <SCORE.INTRA.VDW>
-0.0366653

>  <SCORE.INTRA.VDW.0>
-0.964461

>  <SCORE.INTRA.norm>
-0.00896835

>  <SCORE.RESTR>
0

>  <SCORE.RESTR.CAVITY>
0

>  <SCORE.RESTR.norm>
0

>  <SCORE.SYSTEM>
0

>  <SCORE.SYSTEM.CONST>
0

>  <SCORE.SYSTEM.DIHEDRAL>
0

>  <SCORE.SYSTEM.SOLV>
0

>  <SCORE.SYSTEM.norm>
0

>  <SCORE.heavy>
19

>  <SCORE.norm>
-0.895807

>  <RMSD>
0.741

$$$$
ligand
 OpenBabel11021811483D
libRbt.so/2013.1/901 2013/11/27
 19 21  0  0  0  0  0  0  0  0999 V2000
   17.8576   29.2191   33.3257 C   0  0  0  0  0  0  0  0  0  0  0  0
   18.4278   27.9036   33.4404 O   0  0  0  0  0  0  0  0  0  0  0  0
   18.4363   30.1701   34.3786 C   0  0  1  0  0  0  0  0  0  0  0  0
   18.2320   29.6485   35.6914 O   0  0  0  0  0  0  0  0  0  0  0  0
   19.9312   30.3613   34.2065 C   0  0  1  0  0  0  0  0  0  0  0  0
   20.2251   31.7530   34.3354 O   0  0  0  0  0  0  0  0  0  0  0  0
   20.5958   29.6131   35.3399 C   0  0  0  0  0  0  0  0  0  0  0  0
   19.4800   29.3391   36.3318 C   0  0  2  0  0  0  0  0  0  0  0  0
   17.6365   26.1492   39.9628 N   0  0  0  0  0  0  0  0  0  0  0  0
   17.5032   27.4887   39.8092 C   0  0  2  0  0  0  0  0  0  0  0  0
   16.7795   28.2037   40.6962 N   0  0  0  0  0  0  0  0  0  0  0  0
   18.0795   28.1434   38.7791 N   0  0  0  0  0  0  0  0  0  0  0  0
   18.8159   27.4940   37.8549 C   0  0  1  0  0  0  0  0  0  0  0  0
   18.9984   26.1336   37.9494 C   0  0  1  0  0  0  0  0  0  0  0  0
   18.3586   25.4242   39.0847 C   0  0  0  0  0  0  0  0  0  0  0  0
   18.4900   24.1884   39.2266 O   0  0  0  0  0  0  0  0  0  0  0  0
   19.7612   25.7505   36.9113 N   0  0  0  0  0  0  0  0  0  0  0  0
   20.0410   26.8629   36.1935 C   0  0  0  0  0  0  0  0  0  0  0  0
   19.4570   27.9208   36.7789 N   0  0  1  0  0  0  0  0  0  0  0  0
  1  2  1  0  0  0  0
  3  1  1  6  0  0  0
  3  4  1  0  0  0  0
  3  5  1  0  0  0  0
  5  6  1  1  0  0  0
  5  7  1  0  0  0  0
  7  8  1  0  0  0  0
  8  4  1  6  0  0  0
  8 19  1  0  0  0  0
  9 15  1  0  0  0  0
  9 10  1  0  0  0  0
 10 11  1  6  0  0  0
 10 12  1  0  0  0  0
 13 12  1  6  0  0  0
 13 14  1  0  0  0  0
 13 19  1  0  0  0  0
 14 15  1  6  0  0  0
 14 17  1  0  0  0  0
 15 16  2  0  0  0  0
 17 18  1  0  0  0  0
 19 18  1  6  0  0  0
M  END
>  <CHROM.1>
-56.75237939,-77.36684666,18.79307591,28.02733534,36.79211291,-1.03201809
-1.20083201,2.72871860

>  <Name>
ligand

>  <RI>
0

>  <Rbt.Current_Directory>
/home/itssahil/PROJECTS/Mol_Feturizer/New_Systems/rnas/3SKL

>  <Rbt.Executable>
rbdock ($Id: //depot/dev/client3/rdock/2013.1/src/exe/rbdock.cxx#4 $)

>  <Rbt.Library>
libRbt.so (2013.1, Build901 2013/11/27)

>  <Rbt.Parameter_File>
/export/apps/rDock/src/rDock_2013.1_src/data/scripts/dock_solv.prm

>  <Rbt.Receptor>
prm/pocket_docking_6.prm

>  <SCORE>
-17.1896

>  <SCORE.INTER>
-17.0214

>  <SCORE.INTER.CONST>
1

>  <SCORE.INTER.POLAR>
0

>  <SCORE.INTER.ROT>
2

>  <SCORE.INTER.SOLV>
17.1704

>  <SCORE.INTER.VDW>
-22.0044

>  <SCORE.INTER.norm>
-0.895861

>  <SCORE.INTRA>
-0.16826

>  <SCORE.INTRA.DIHEDRAL>
-0.279171

>  <SCORE.INTRA.DIHEDRAL.0>
1.50031

>  <SCORE.INTRA.POLAR>
0

>  <SCORE.INTRA.POLAR.0>
0

>  <SCORE.INTRA.REPUL>
0

>  <SCORE.INTRA.REPUL.0>
0

>  <SCORE.INTRA.SOLV>
0.0222627

>  <SCORE.INTRA.SOLV.lig_0>
-37.9941

>  <SCORE.INTRA.VDW>
-0.0398062

>  <SCORE.INTRA.VDW.0>
-0.964461

>  <SCORE.INTRA.norm>
-0.00885581

>  <SCORE.RESTR>
0

>  <SCORE.RESTR.CAVITY>
0

>  <SCORE.RESTR.norm>
0

>  <SCORE.SYSTEM>
0

>  <SCORE.SYSTEM.CONST>
0

>  <SCORE.SYSTEM.DIHEDRAL>
0

>  <SCORE.SYSTEM.SOLV>
0

>  <SCORE.SYSTEM.norm>
0

>  <SCORE.heavy>
19

>  <SCORE.norm>
-0.904717

>  <RMSD>
0.741

$$$$
ligand
 OpenBabel11021811483D
libRbt.so/2013.1/901 2013/11/27
 19 21  0  0  0  0  0  0  0  0999 V2000
   17.8463   29.2265   33.3278 C   0  0  0  0  0  0  0  0  0  0  0  0
   18.4415   27.9199   33.4126 O   0  0  0  0  0  0  0  0  0  0  0  0
   18.4320   30.1740   34.3800 C   0  0  1  0  0  0  0  0  0  0  0  0
   18.2319   29.6504   35.6927 O   0  0  0  0  0  0  0  0  0  0  0  0
   19.9266   30.3617   34.2020 C   0  0  1  0  0  0  0  0  0  0  0  0
   20.2246   31.7524   34.3323 O   0  0  0  0  0  0  0  0  0  0  0  0
   20.5940   29.6097   35.3312 C   0  0  0  0  0  0  0  0  0  0  0  0
   19.4818   29.3366   36.3273 C   0  0  2  0  0  0  0  0  0  0  0  0
   17.6416   26.1436   39.9572 N   0  0  0  0  0  0  0  0  0  0  0  0
   17.5107   27.4837   39.8065 C   0  0  2  0  0  0  0  0  0  0  0  0
   16.7908   28.1984   40.6969 N   0  0  0  0  0  0  0  0  0  0  0  0
   18.0855   28.1391   38.7761 N   0  0  0  0  0  0  0  0  0  0  0  0
   18.8180   27.4900   37.8486 C   0  0  1  0  0  0  0  0  0  0  0  0
   18.9979   26.1290   37.9401 C   0  0  1  0  0  0  0  0  0  0  0  0
   18.3597   25.4187   39.0758 C   0  0  0  0  0  0  0  0  0  0  0  0
   18.4890   24.1824   39.2149 O   0  0  0  0  0  0  0  0  0  0  0  0
   19.7571   25.7463   36.8991 N   0  0  0  0  0  0  0  0  0  0  0  0
   20.0372   26.8595   36.1827 C   0  0  0  0  0  0  0  0  0  0  0  0
   19.4571   27.9175   36.7717 N   0  0  1  0  0  0  0  0  0  0  0  0
  1  2  1  0  0  0  0
  3  1  1  6  0  0  0
  3  4  1  0  0  0  0
  3  5  1  0  0  0  0
  5  6  1  1  0  0  0
  5  7  1  0  0  0  0
  7  8  1  0  0  0  0
  8  4  1  6  0  0  0
  8 19  1  0  0  0  0
  9 15  1  0  0  0  0
  9 10  1  0  0  0  0
 10 11  1  6  0  0  0
 10 12  1  0  0  0  0
 13 12  1  6  0  0  0
 13 14  1  0  0  0  0
 13 19  1  0  0  0  0
 14 15  1  6  0  0  0
 14 17  1  0  0  0  0
 15 16  2  0  0  0  0
 17 18  1  0  0  0  0
 19 18  1  6  0  0  0
M  END
>  <CHROM.1>
-58.41447622,-77.27610523,18.79404826,28.02611129,36.78562929,-1.03174092
-1.20305818,2.72994485

>  <Name>
ligand

>  <RI>
0

>  <Rbt.Current_Directory>
/home/itssahil/PROJECTS/Mol_Feturizer/New_Systems/rnas/3SKL

>  <Rbt.Executable>
rbdock ($Id: //depot/dev/client3/rdock/2013.1/src/exe/rbdock.cxx#4 $)

>  <Rbt.Library>
libRbt.so (2013.1, Build901 2013/11/27)

>  <Rbt.Parameter_File>
/export/apps/rDock/src/rDock_2013.1_src/data/scripts/dock_solv.prm

>  <Rbt.Receptor>
prm/pocket_docking_8.prm

>  <SCORE>
-17.1954

>  <SCORE.INTER>
-17.0245

>  <SCORE.INTER.CONST>
1

>  <SCORE.INTER.POLAR>
0

>  <SCORE.INTER.ROT>
2

>  <SCORE.INTER.SOLV>
17.1309

>  <SCORE.INTER.VDW>
-21.9933

>  <SCORE.INTER.norm>
-0.896024

>  <SCORE.INTRA>
-0.170969

>  <SCORE.INTRA.DIHEDRAL>
-0.308562

>  <SCORE.INTRA.DIHEDRAL.0>
1.50031

>  <SCORE.INTRA.POLAR>
0

>  <SCORE.INTRA.POLAR.0>
0

>  <SCORE.INTRA.REPUL>
0

>  <SCORE.INTRA.REPUL.0>
0

>  <SCORE.INTRA.SOLV>
0.0191511

>  <SCORE.INTRA.SOLV.lig_0>
-37.9941

>  <SCORE.INTRA.VDW>
-0.0262641

>  <SCORE.INTRA.VDW.0>
-0.964461

>  <SCORE.INTRA.norm>
-0.00899839

>  <SCORE.RESTR>
0

>  <SCORE.RESTR.CAVITY>
0

>  <SCORE.RESTR.norm>
0

>  <SCORE.SYSTEM>
0

>  <SCORE.SYSTEM.CONST>
0

>  <SCORE.SYSTEM.DIHEDRAL>
0

>  <SCORE.SYSTEM.SOLV>
0

>  <SCORE.SYSTEM.norm>
0

>  <SCORE.heavy>
19

>  <SCORE.norm>
-0.905023

>  <RMSD>
0.744

$$$$
ligand
 OpenBabel11021811483D
libRbt.so/2013.1/901 2013/11/27
 19 21  0  0  0  0  0  0  0  0999 V2000
   17.0986   28.2509   33.7594 C   0  0  0  0  0  0  0  0  0  0  0  0
   17.0639   28.3332   32.3239 O   0  0  0  0  0  0  0  0  0  0  0  0
   18.0669   29.2799   34.3524 C   0  0  1  0  0  0  0  0  0  0  0  0
   18.1518   29.1298   35.7693 O   0  0  0  0  0  0  0  0  0  0  0  0
   19.4720   29.1145   33.8053 C   0  0  1  0  0  0  0  0  0  0  0  0
   19.9824   30.4072   33.4764 O   0  0  0  0  0  0  0  0  0  0  0  0
   20.3047   28.5288   34.9231 C   0  0  0  0  0  0  0  0  0  0  0  0
   19.4697   28.7272   36.1750 C   0  0  2  0  0  0  0  0  0  0  0  0
   17.4505   26.7442   40.5049 N   0  0  0  0  0  0  0  0  0  0  0  0
   17.3909   27.9968   39.9919 C   0  0  2  0  0  0  0  0  0  0  0  0
   16.7066   28.9626   40.6404 N   0  0  0  0  0  0  0  0  0  0  0  0
   18.0033   28.3160   38.8322 N   0  0  0  0  0  0  0  0  0  0  0  0
   18.7039   27.4024   38.1304 C   0  0  1  0  0  0  0  0  0  0  0  0
   18.8115   26.1111   38.5930 C   0  0  1  0  0  0  0  0  0  0  0  0
   18.1326   25.7712   39.8678 C   0  0  0  0  0  0  0  0  0  0  0  0
   18.1960   24.6152   40.3414 O   0  0  0  0  0  0  0  0  0  0  0  0
   19.5533   25.4211   37.7098 N   0  0  0  0  0  0  0  0  0  0  0  0
   19.8943   26.2806   36.7219 C   0  0  0  0  0  0  0  0  0  0  0  0
   19.3686   27.4868   36.9893 N   0  0  1  0  0  0  0  0  0  0  0  0
  1  2  1  0  0  0  0
  3  1  1  6  0  0  0
  3  4  1  0  0  0  0
  3  5  1  0  0  0  0
  5  6  1  1  0  0  0
  5  7  1  0  0  0  0
  7  8  1  0  0  0  0
  8  4  1  6  0  0  0
  8 19  1  0  0  0  0
  9 15  1  0  0  0  0
  9 10  1  0  0  0  0
 10 11  1  6  0  0  0
 10 12  1  0  0  0  0
 13 12  1  6  0  0  0
 13 14  1  0  0  0  0
 13 19  1  0  0  0  0
 14 15  1  6  0  0  0
 14 17  1  0  0  0  0
 15 16  2  0  0  0  0
 17 18  1  0  0  0  0
 19 18  1  6  0  0  0
M  END
>  <CHROM.1>
-176.41328206,-60.83617960,18.50362824,27.76656574,36.90994242,1.39200201
0.95505481,-1.02925651

>  <Name>
ligand

>  <RI>
0

>  <Rbt.Current_Directory>
/home/itssahil/PROJECTS/Mol_Feturizer/New_Systems/rnas/3SKL

>  <Rbt.Executable>
rbdock ($Id: //depot/dev/client3/rdock/2013.1/src/exe/rbdock.cxx#4 $)

>  <Rbt.Library>
libRbt.so (2013.1, Build901 2013/11/27)

>  <Rbt.Parameter_File>
/export/apps/rDock/src/rDock_2013.1_src/data/scripts/dock_solv.prm

>  <Rbt.Receptor>
prm/pocket_docking_2.prm

>  <SCORE>
-15.8348

>  <SCORE.INTER>
-15.9678

>  <SCORE.INTER.CONST>
1

>  <SCORE.INTER.POLAR>
0

>  <SCORE.INTER.ROT>
2

>  <SCORE.INTER.SOLV>
18.5922

>  <SCORE.INTER.VDW>
-21.7759

>  <SCORE.INTER.norm>
-0.840408

>  <SCORE.INTRA>
0.132937

>  <SCORE.INTRA.DIHEDRAL>
-0.252355

>  <SCORE.INTRA.DIHEDRAL.0>
1.50031

>  <SCORE.INTRA.POLAR>
0

>  <SCORE.INTRA.POLAR.0>
0

>  <SCORE.INTRA.REPUL>
0

>  <SCORE.INTRA.REPUL.0>
0

>  <SCORE.INTRA.SOLV>
-0.407856

>  <SCORE.INTRA.SOLV.lig_0>
-37.9941

>  <SCORE.INTRA.VDW>
0.463043

>  <SCORE.INTRA.VDW.0>
-0.964461

>  <SCORE.INTRA.norm>
0.0069967

>  <SCORE.RESTR>
0

>  <SCORE.RESTR.CAVITY>
0

>  <SCORE.RESTR.norm>
0

>  <SCORE.SYSTEM>
0

>  <SCORE.SYSTEM.CONST>
0

>  <SCORE.SYSTEM.DIHEDRAL>
0

>  <SCORE.SYSTEM.SOLV>
0

>  <SCORE.SYSTEM.norm>
0

>  <SCORE.heavy>
19

>  <SCORE.norm>
-0.833412

>  <RMSD>
0.752

$$$$
ligand
 OpenBabel11021811483D
libRbt.so/2013.1/901 2013/11/27
 19 21  0  0  0  0  0  0  0  0999 V2000
   17.8448   29.1877   33.2570 C   0  0  0  0  0  0  0  0  0  0  0  0
   18.4239   27.8719   33.3006 O   0  0  0  0  0  0  0  0  0  0  0  0
   18.4847   30.1120   34.2982 C   0  0  1  0  0  0  0  0  0  0  0  0
   18.3155   29.5801   35.6119 O   0  0  0  0  0  0  0  0  0  0  0  0
   19.9767   30.2689   34.0736 C   0  0  1  0  0  0  0  0  0  0  0  0
   20.3092   31.6515   34.2067 O   0  0  0  0  0  0  0  0  0  0  0  0
   20.6634   29.4916   35.1737 C   0  0  0  0  0  0  0  0  0  0  0  0
   19.5780   29.2331   36.2027 C   0  0  2  0  0  0  0  0  0  0  0  0
   17.7007   26.0311   39.8057 N   0  0  0  0  0  0  0  0  0  0  0  0
   17.5859   27.3739   39.6666 C   0  0  2  0  0  0  0  0  0  0  0  0
   16.8749   28.0895   40.5634 N   0  0  0  0  0  0  0  0  0  0  0  0
   18.1682   28.0313   38.6417 N   0  0  0  0  0  0  0  0  0  0  0  0
   18.8926   27.3814   37.7083 C   0  0  1  0  0  0  0  0  0  0  0  0
   19.0562   26.0176   37.7880 C   0  0  1  0  0  0  0  0  0  0  0  0
   18.4099   25.3053   38.9177 C   0  0  0  0  0  0  0  0  0  0  0  0
   18.5243   24.0663   39.0461 O   0  0  0  0  0  0  0  0  0  0  0  0
   19.8104   25.6349   36.7434 N   0  0  0  0  0  0  0  0  0  0  0  0
   20.1036   26.7508   36.0366 C   0  0  0  0  0  0  0  0  0  0  0  0
   19.5364   27.8105   36.6349 N   0  0  1  0  0  0  0  0  0  0  0  0
  1  2  1  0  0  0  0
  3  1  1  6  0  0  0
  3  4  1  0  0  0  0
  3  5  1  0  0  0  0
  5  6  1  1  0  0  0
  5  7  1  0  0  0  0
  7  8  1  0  0  0  0
  8  4  1  6  0  0  0
  8 19  1  0  0  0  0
  9 15  1  0  0  0  0
  9 10  1  0  0  0  0
 10 11  1  6  0  0  0
 10 12  1  0  0  0  0
 13 12  1  6  0  0  0
 13 14  1  0  0  0  0
 13 19  1  0  0  0  0
 14 15  1  6  0  0  0
 14 17  1  0  0  0  0
 15 16  2  0  0  0  0
 17 18  1  0  0  0  0
 19 18  1  6  0  0  0
M  END
>  <CHROM.1>
-59.05484489,-75.36040671,18.85315622,27.92951193,36.65479752,-1.03767253
-1.20124459,2.73377976

>  <Name>
ligand

>  <RI>
0

>  <Rbt.Current_Directory>
/home/itssahil/PROJECTS/Mol_Feturizer/New_Systems/rnas/3SKL

>  <Rbt.Executable>
rbdock ($Id: //depot/dev/client3/rdock/2013.1/src/exe/rbdock.cxx#4 $)

>  <Rbt.Library>
libRbt.so (2013.1, Build901 2013/11/27)

>  <Rbt.Parameter_File>
/export/apps/rDock/src/rDock_2013.1_src/data/scripts/dock_solv.prm

>  <Rbt.Receptor>
prm/pocket_docking_4.prm

>  <SCORE>
-17.1249

>  <SCORE.INTER>
-16.9759

>  <SCORE.INTER.CONST>
1

>  <SCORE.INTER.POLAR>
0

>  <SCORE.INTER.ROT>
2

>  <SCORE.INTER.SOLV>
16.6149

>  <SCORE.INTER.VDW>
-21.7889

>  <SCORE.INTER.norm>
-0.893469

>  <SCORE.INTRA>
-0.148974

>  <SCORE.INTRA.DIHEDRAL>
-0.313009

>  <SCORE.INTRA.DIHEDRAL.0>
1.50031

>  <SCORE.INTRA.POLAR>
0

>  <SCORE.INTRA.POLAR.0>
0

>  <SCORE.INTRA.REPUL>
0

>  <SCORE.INTRA.REPUL.0>
0

>  <SCORE.INTRA.SOLV>
0.0162705

>  <SCORE.INTRA.SOLV.lig_0>
-37.9941

>  <SCORE.INTRA.VDW>
-0.000604274

>  <SCORE.INTRA.VDW.0>
-0.964461

>  <SCORE.INTRA.norm>
-0.00784072

>  <SCORE.RESTR>
0

>  <SCORE.RESTR.CAVITY>
0

>  <SCORE.RESTR.norm>
0

>  <SCORE.SYSTEM>
0

>  <SCORE.SYSTEM.CONST>
0

>  <SCORE.SYSTEM.DIHEDRAL>
0

>  <SCORE.SYSTEM.SOLV>
0

>  <SCORE.SYSTEM.norm>
0

>  <SCORE.heavy>
19

>  <SCORE.norm>
-0.90131

>  <RMSD>
0.754

$$$$
ligand
 OpenBabel11021811483D
libRbt.so/2013.1/901 2013/11/27
 19 21  0  0  0  0  0  0  0  0999 V2000
   17.8643   29.1835   33.2431 C   0  0  0  0  0  0  0  0  0  0  0  0
   18.4202   27.8590   33.3165 O   0  0  0  0  0  0  0  0  0  0  0  0
   18.4869   30.1073   34.2951 C   0  0  1  0  0  0  0  0  0  0  0  0
   18.3036   29.5705   35.6050 O   0  0  0  0  0  0  0  0  0  0  0  0
   19.9808   30.2716   34.0898 C   0  0  1  0  0  0  0  0  0  0  0  0
   20.3055   31.6552   34.2314 O   0  0  0  0  0  0  0  0  0  0  0  0
   20.6571   29.4938   35.1960 C   0  0  0  0  0  0  0  0  0  0  0  0
   19.5601   29.2272   36.2106 C   0  0  2  0  0  0  0  0  0  0  0  0
   17.7181   26.0172   39.8245 N   0  0  0  0  0  0  0  0  0  0  0  0
   17.6057   27.3609   39.6921 C   0  0  2  0  0  0  0  0  0  0  0  0
   16.9083   28.0752   40.6004 N   0  0  0  0  0  0  0  0  0  0  0  0
   18.1772   28.0204   38.6624 N   0  0  0  0  0  0  0  0  0  0  0  0
   18.8878   27.3719   37.7175 C   0  0  1  0  0  0  0  0  0  0  0  0
   19.0481   26.0073   37.7899 C   0  0  1  0  0  0  0  0  0  0  0  0
   18.4137   25.2926   38.9249 C   0  0  0  0  0  0  0  0  0  0  0  0
   18.5259   24.0529   39.0472 O   0  0  0  0  0  0  0  0  0  0  0  0
   19.7879   25.6263   36.7345 N   0  0  0  0  0  0  0  0  0  0  0  0
   20.0758   26.7440   36.0283 C   0  0  0  0  0  0  0  0  0  0  0  0
   19.5195   27.8032   36.6378 N   0  0  1  0  0  0  0  0  0  0  0  0
  1  2  1  0  0  0  0
  3  1  1  6  0  0  0
  3  4  1  0  0  0  0
  3  5  1  0  0  0  0
  5  6  1  1  0  0  0
  5  7  1  0  0  0  0
  7  8  1  0  0  0  0
  8  4  1  6  0  0  0
  8 19  1  0  0  0  0
  9 15  1  0  0  0  0
  9 10  1  0  0  0  0
 10 11  1  6  0  0  0
 10 12  1  0  0  0  0
 13 12  1  6  0  0  0
 13 14  1  0  0  0  0
 13 19  1  0  0  0  0
 14 15  1  6  0  0  0
 14 17  1  0  0  0  0
 15 16  2  0  0  0  0
 17 18  1  0  0  0  0
 19 18  1  6  0  0  0
M  END
>  <CHROM.1>
-57.32432351,-76.86439038,18.85251177,27.92167706,36.66383271,-1.01371195
-1.22004828,2.76014019

>  <Name>
ligand

>  <RI>
0

>  <Rbt.Current_Directory>
/home/itssahil/PROJECTS/Mol_Feturizer/New_Systems/rnas/3SKL

>  <Rbt.Executable>
rbdock ($Id: //depot/dev/client3/rdock/2013.1/src/exe/rbdock.cxx#4 $)

>  <Rbt.Library>
libRbt.so (2013.1, Build901 2013/11/27)

>  <Rbt.Parameter_File>
/export/apps/rDock/src/rDock_2013.1_src/data/scripts/dock_solv.prm

>  <Rbt.Receptor>
prm/pocket_docking_5.prm

>  <SCORE>
-17.1414

>  <SCORE.INTER>
-16.976

>  <SCORE.INTER.CONST>
1

>  <SCORE.INTER.POLAR>
0

>  <SCORE.INTER.ROT>
2

>  <SCORE.INTER.SOLV>
16.5318

>  <SCORE.INTER.VDW>
-21.7612

>  <SCORE.INTER.norm>
-0.893473

>  <SCORE.INTRA>
-0.165467

>  <SCORE.INTRA.DIHEDRAL>
-0.291145

>  <SCORE.INTRA.DIHEDRAL.0>
1.50031

>  <SCORE.INTRA.POLAR>
0

>  <SCORE.INTRA.POLAR.0>
0

>  <SCORE.INTRA.REPUL>
0

>  <SCORE.INTRA.REPUL.0>
0

>  <SCORE.INTRA.SOLV>
0.0208582

>  <SCORE.INTRA.SOLV.lig_0>
-37.9941

>  <SCORE.INTRA.VDW>
-0.0303238

>  <SCORE.INTRA.VDW.0>
-0.964461

>  <SCORE.INTRA.norm>
-0.00870879

>  <SCORE.RESTR>
0

>  <SCORE.RESTR.CAVITY>
0

>  <SCORE.RESTR.norm>
0

>  <SCORE.SYSTEM>
0

>  <SCORE.SYSTEM.CONST>
0

>  <SCORE.SYSTEM.DIHEDRAL>
0

>  <SCORE.SYSTEM.SOLV>
0

>  <SCORE.SYSTEM.norm>
0

>  <SCORE.heavy>
19

>  <SCORE.norm>
-0.902181

>  <RMSD>
0.754

$$$$
ligand
 OpenBabel11021811483D
libRbt.so/2013.1/901 2013/11/27
 19 21  0  0  0  0  0  0  0  0999 V2000
   17.8812   29.1548   33.2471 C   0  0  0  0  0  0  0  0  0  0  0  0
   18.4149   27.8295   33.4128 O   0  0  0  0  0  0  0  0  0  0  0  0
   18.4109   30.1066   34.3249 C   0  0  1  0  0  0  0  0  0  0  0  0
   18.1960   29.5600   35.6258 O   0  0  0  0  0  0  0  0  0  0  0  0
   19.9027   30.3436   34.1858 C   0  0  1  0  0  0  0  0  0  0  0  0
   20.1531   31.7412   34.3403 O   0  0  0  0  0  0  0  0  0  0  0  0
   20.5663   29.5984   35.3218 C   0  0  0  0  0  0  0  0  0  0  0  0
   19.4396   29.2776   36.2869 C   0  0  2  0  0  0  0  0  0  0  0  0
   17.6473   25.9886   39.8545 N   0  0  0  0  0  0  0  0  0  0  0  0
   17.4808   27.3263   39.7191 C   0  0  2  0  0  0  0  0  0  0  0  0
   16.7311   28.0094   40.6096 N   0  0  0  0  0  0  0  0  0  0  0  0
   18.0491   28.0106   38.7038 N   0  0  0  0  0  0  0  0  0  0  0  0
   18.8100   27.3939   37.7771 C   0  0  1  0  0  0  0  0  0  0  0  0
   19.0268   26.0374   37.8537 C   0  0  1  0  0  0  0  0  0  0  0  0
   18.3955   25.2952   38.9728 C   0  0  0  0  0  0  0  0  0  0  0  0
   18.5576   24.0613   39.0981 O   0  0  0  0  0  0  0  0  0  0  0  0
   19.8083   25.6893   36.8172 N   0  0  0  0  0  0  0  0  0  0  0  0
   20.0655   26.8188   36.1181 C   0  0  0  0  0  0  0  0  0  0  0  0
   19.4493   27.8527   36.7133 N   0  0  1  0  0  0  0  0  0  0  0  0
  1  2  1  0  0  0  0
  3  1  1  6  0  0  0
  3  4  1  0  0  0  0
  3  5  1  0  0  0  0
  5  6  1  1  0  0  0
  5  7  1  0  0  0  0
  7  8  1  0  0  0  0
  8  4  1  6  0  0  0
  8 19  1  0  0  0  0
  9 15  1  0  0  0  0
  9 10  1  0  0  0  0
 10 11  1  6  0  0  0
 10 12  1  0  0  0  0
 13 12  1  6  0  0  0
 13 14  1  0  0  0  0
 13 19  1  0  0  0  0
 14 15  1  6  0  0  0
 14 17  1  0  0  0  0
 15 16  2  0  0  0  0
 17 18  1  0  0  0  0
 19 18  1  6  0  0  0
M  END
>  <CHROM.1>
-52.63683573,-78.03003596,18.78609213,27.93995374,36.72389305,-1.07335317
-1.18647165,2.70690068

>  <Name>
ligand

>  <RI>
0

>  <Rbt.Current_Directory>
/home/itssahil/PROJECTS/Mol_Feturizer/New_Systems/rnas/3SKL

>  <Rbt.Executable>
rbdock ($Id: //depot/dev/client3/rdock/2013.1/src/exe/rbdock.cxx#4 $)

>  <Rbt.Library>
libRbt.so (2013.1, Build901 2013/11/27)

>  <Rbt.Parameter_File>
/export/apps/rDock/src/rDock_2013.1_src/data/scripts/dock_solv.prm

>  <Rbt.Receptor>
prm/pocket_docking_7.prm

>  <SCORE>
-17.0532

>  <SCORE.INTER>
-16.9183

>  <SCORE.INTER.CONST>
1

>  <SCORE.INTER.POLAR>
0

>  <SCORE.INTER.ROT>
2

>  <SCORE.INTER.SOLV>
17.3272

>  <SCORE.INTER.VDW>
-21.9879

>  <SCORE.INTER.norm>
-0.890436

>  <SCORE.INTRA>
-0.134864

>  <SCORE.INTRA.DIHEDRAL>
-0.122895

>  <SCORE.INTRA.DIHEDRAL.0>
1.50031

>  <SCORE.INTRA.POLAR>
0

>  <SCORE.INTRA.POLAR.0>
0

>  <SCORE.INTRA.REPUL>
0

>  <SCORE.INTRA.REPUL.0>
0

>  <SCORE.INTRA.SOLV>
0.0282746

>  <SCORE.INTRA.SOLV.lig_0>
-37.9941

>  <SCORE.INTRA.VDW>
-0.0875535

>  <SCORE.INTRA.VDW.0>
-0.964461

>  <SCORE.INTRA.norm>
-0.0070981

>  <SCORE.RESTR>
0

>  <SCORE.RESTR.CAVITY>
0

>  <SCORE.RESTR.norm>
0

>  <SCORE.SYSTEM>
0

>  <SCORE.SYSTEM.CONST>
0

>  <SCORE.SYSTEM.DIHEDRAL>
0

>  <SCORE.SYSTEM.SOLV>
0

>  <SCORE.SYSTEM.norm>
0

>  <SCORE.heavy>
19

>  <SCORE.norm>
-0.897534

>  <RMSD>
0.759

$$$$
ligand
 OpenBabel11021811483D
libRbt.so/2013.1/901 2013/11/27
 19 21  0  0  0  0  0  0  0  0999 V2000
   17.8664   29.2129   33.2910 C   0  0  0  0  0  0  0  0  0  0  0  0
   18.4709   27.9094   33.3542 O   0  0  0  0  0  0  0  0  0  0  0  0
   18.4539   30.1505   34.3511 C   0  0  1  0  0  0  0  0  0  0  0  0
   18.2598   29.6125   35.6589 O   0  0  0  0  0  0  0  0  0  0  0  0
   19.9474   30.3435   34.1696 C   0  0  1  0  0  0  0  0  0  0  0  0
   20.2428   31.7334   34.3136 O   0  0  0  0  0  0  0  0  0  0  0  0
   20.6207   29.5810   35.2882 C   0  0  0  0  0  0  0  0  0  0  0  0
   19.5127   29.2949   36.2855 C   0  0  2  0  0  0  0  0  0  0  0  0
   17.7221   26.0648   39.9073 N   0  0  0  0  0  0  0  0  0  0  0  0
   17.5906   27.4065   39.7731 C   0  0  2  0  0  0  0  0  0  0  0  0
   16.8848   28.1123   40.6816 N   0  0  0  0  0  0  0  0  0  0  0  0
   18.1511   28.0725   38.7414 N   0  0  0  0  0  0  0  0  0  0  0  0
   18.8691   27.4326   37.7963 C   0  0  1  0  0  0  0  0  0  0  0  0
   19.0487   26.0705   37.8705 C   0  0  1  0  0  0  0  0  0  0  0  0
   18.4264   25.3487   39.0077 C   0  0  0  0  0  0  0  0  0  0  0  0
   18.5562   24.1108   39.1316 O   0  0  0  0  0  0  0  0  0  0  0  0
   19.7921   25.6983   36.8144 N   0  0  0  0  0  0  0  0  0  0  0  0
   20.0630   26.8188   36.1060 C   0  0  0  0  0  0  0  0  0  0  0  0
   19.4928   27.8710   36.7149 N   0  0  1  0  0  0  0  0  0  0  0  0
  1  2  1  0  0  0  0
  3  1  1  6  0  0  0
  3  4  1  0  0  0  0
  3  5  1  0  0  0  0
  5  6  1  1  0  0  0
  5  7  1  0  0  0  0
  7  8  1  0  0  0  0
  8  4  1  6  0  0  0
  8 19  1  0  0  0  0
  9 15  1  0  0  0  0
  9 10  1  0  0  0  0
 10 11  1  6  0  0  0
 10 12  1  0  0  0  0
 13 12  1  6  0  0  0
 13 14  1  0  0  0  0
 13 19  1  0  0  0  0
 14 15  1  6  0  0  0
 14 17  1  0  0  0  0
 15 16  2  0  0  0  0
 17 18  1  0  0  0  0
 19 18  1  6  0  0  0
M  END
>  <CHROM.1>
-58.78086054,-77.93514718,18.83824848,27.97969838,36.73757092,-1.03317320
-1.21874189,2.73878477

>  <Name>
ligand

>  <RI>
0

>  <Rbt.Current_Directory>
/home/itssahil/PROJECTS/Mol_Feturizer/New_Systems/rnas/3SKL

>  <Rbt.Executable>
rbdock ($Id: //depot/dev/client3/rdock/2013.1/src/exe/rbdock.cxx#4 $)

>  <Rbt.Library>
libRbt.so (2013.1, Build901 2013/11/27)

>  <Rbt.Parameter_File>
/export/apps/rDock/src/rDock_2013.1_src/data/scripts/dock_solv.prm

>  <Rbt.Receptor>
prm/pocket_docking_5.prm

>  <SCORE>
-16.9941

>  <SCORE.INTER>
-16.8168

>  <SCORE.INTER.CONST>
1

>  <SCORE.INTER.POLAR>
0

>  <SCORE.INTER.ROT>
2

>  <SCORE.INTER.SOLV>
16.7704

>  <SCORE.INTER.VDW>
-21.7346

>  <SCORE.INTER.norm>
-0.885093

>  <SCORE.INTRA>
-0.177377

>  <SCORE.INTRA.DIHEDRAL>
-0.312891

>  <SCORE.INTRA.DIHEDRAL.0>
1.50031

>  <SCORE.INTRA.POLAR>
0

>  <SCORE.INTRA.POLAR.0>
0

>  <SCORE.INTRA.REPUL>
0

>  <SCORE.INTRA.REPUL.0>
0

>  <SCORE.INTRA.SOLV>
0.0189549

>  <SCORE.INTRA.SOLV.lig_0>
-37.9941

>  <SCORE.INTRA.VDW>
-0.0304087

>  <SCORE.INTRA.VDW.0>
-0.964461

>  <SCORE.INTRA.norm>
-0.00933561

>  <SCORE.RESTR>
0

>  <SCORE.RESTR.CAVITY>
0

>  <SCORE.RESTR.norm>
0

>  <SCORE.SYSTEM>
0

>  <SCORE.SYSTEM.CONST>
0

>  <SCORE.SYSTEM.DIHEDRAL>
0

>  <SCORE.SYSTEM.SOLV>
0

>  <SCORE.SYSTEM.norm>
0

>  <SCORE.heavy>
19

>  <SCORE.norm>
-0.894429

>  <RMSD>
0.760

$$$$
ligand
 OpenBabel11021811483D
libRbt.so/2013.1/901 2013/11/27
 19 21  0  0  0  0  0  0  0  0999 V2000
   17.8728   29.2119   33.2671 C   0  0  0  0  0  0  0  0  0  0  0  0
   18.3933   27.8743   33.3597 O   0  0  0  0  0  0  0  0  0  0  0  0
   18.5042   30.1287   34.3201 C   0  0  1  0  0  0  0  0  0  0  0  0
   18.3171   29.5916   35.6292 O   0  0  0  0  0  0  0  0  0  0  0  0
   19.9993   30.2804   34.1139 C   0  0  1  0  0  0  0  0  0  0  0  0
   20.3361   31.6609   34.2573 O   0  0  0  0  0  0  0  0  0  0  0  0
   20.6696   29.4952   35.2185 C   0  0  0  0  0  0  0  0  0  0  0  0
   19.5710   29.2366   36.2334 C   0  0  2  0  0  0  0  0  0  0  0  0
   17.6716   26.0321   39.8224 N   0  0  0  0  0  0  0  0  0  0  0  0
   17.5675   27.3764   39.6902 C   0  0  2  0  0  0  0  0  0  0  0  0
   16.8633   28.0933   40.5914 N   0  0  0  0  0  0  0  0  0  0  0  0
   18.1541   28.0342   38.6679 N   0  0  0  0  0  0  0  0  0  0  0  0
   18.8722   27.3831   37.7305 C   0  0  1  0  0  0  0  0  0  0  0  0
   19.0248   26.0177   37.8032 C   0  0  1  0  0  0  0  0  0  0  0  0
   18.3739   25.3050   38.9301 C   0  0  0  0  0  0  0  0  0  0  0  0
   18.4784   24.0645   39.0522 O   0  0  0  0  0  0  0  0  0  0  0  0
   19.7747   25.6340   36.7559 N   0  0  0  0  0  0  0  0  0  0  0  0
   20.0763   26.7510   36.0543 C   0  0  0  0  0  0  0  0  0  0  0  0
   19.5183   27.8123   36.6586 N   0  0  1  0  0  0  0  0  0  0  0  0
  1  2  1  0  0  0  0
  3  1  1  6  0  0  0
  3  4  1  0  0  0  0
  3  5  1  0  0  0  0
  5  6  1  1  0  0  0
  5  7  1  0  0  0  0
  7  8  1  0  0  0  0
  8  4  1  6  0  0  0
  8 19  1  0  0  0  0
  9 15  1  0  0  0  0
  9 10  1  0  0  0  0
 10 11  1  6  0  0  0
 10 12  1  0  0  0  0
 13 12  1  6  0  0  0
 13 14  1  0  0  0  0
 13 19  1  0  0  0  0
 14 15  1  6  0  0  0
 14 17  1  0  0  0  0
 15 16  2  0  0  0  0
 17 18  1  0  0  0  0
 19 18  1  6  0  0  0
M  END
>  <CHROM.1>
-55.90096637,-76.13715123,18.84183694,27.93455113,36.68047108,-1.00245594
-1.20932447,2.77303669

>  <Name>
ligand

>  <RI>
0

>  <Rbt.Current_Directory>
/home/itssahil/PROJECTS/Mol_Feturizer/New_Systems/rnas/3SKL

>  <Rbt.Executable>
rbdock ($Id: //depot/dev/client3/rdock/2013.1/src/exe/rbdock.cxx#4 $)

>  <Rbt.Library>
libRbt.so (2013.1, Build901 2013/11/27)

>  <Rbt.Parameter_File>
/export/apps/rDock/src/rDock_2013.1_src/data/scripts/dock_solv.prm

>  <Rbt.Receptor>
prm/blind_docking_80.prm

>  <SCORE>
-17.088

>  <SCORE.INTER>
-16.9392

>  <SCORE.INTER.CONST>
1

>  <SCORE.INTER.POLAR>
0

>  <SCORE.INTER.ROT>
2

>  <SCORE.INTER.SOLV>
16.7374

>  <SCORE.INTER.VDW>
-21.8053

>  <SCORE.INTER.norm>
-0.891537

>  <SCORE.INTRA>
-0.14876

>  <SCORE.INTRA.DIHEDRAL>
-0.25544

>  <SCORE.INTRA.DIHEDRAL.0>
1.50031

>  <SCORE.INTRA.POLAR>
0

>  <SCORE.INTRA.POLAR.0>
0

>  <SCORE.INTRA.REPUL>
0

>  <SCORE.INTRA.REPUL.0>
0

>  <SCORE.INTRA.SOLV>
0.0226022

>  <SCORE.INTRA.SOLV.lig_0>
-37.9941

>  <SCORE.INTRA.VDW>
-0.0323415

>  <SCORE.INTRA.VDW.0>
-0.964461

>  <SCORE.INTRA.norm>
-0.0078295

>  <SCORE.RESTR>
0

>  <SCORE.RESTR.CAVITY>
0

>  <SCORE.RESTR.norm>
0

>  <SCORE.SYSTEM>
0

>  <SCORE.SYSTEM.CONST>
0

>  <SCORE.SYSTEM.DIHEDRAL>
0

>  <SCORE.SYSTEM.SOLV>
0

>  <SCORE.SYSTEM.norm>
0

>  <SCORE.heavy>
19

>  <SCORE.norm>
-0.899366

>  <RMSD>
0.761

$$$$
ligand
 OpenBabel11021811483D
libRbt.so/2013.1/901 2013/11/27
 19 21  0  0  0  0  0  0  0  0999 V2000
   17.8730   29.2071   33.2465 C   0  0  0  0  0  0  0  0  0  0  0  0
   18.4202   27.8790   33.3199 O   0  0  0  0  0  0  0  0  0  0  0  0
   18.5013   30.1266   34.2989 C   0  0  1  0  0  0  0  0  0  0  0  0
   18.3183   29.5884   35.6082 O   0  0  0  0  0  0  0  0  0  0  0  0
   19.9955   30.2853   34.0910 C   0  0  1  0  0  0  0  0  0  0  0  0
   20.3259   31.6674   34.2343 O   0  0  0  0  0  0  0  0  0  0  0  0
   20.6707   29.5031   35.1947 C   0  0  0  0  0  0  0  0  0  0  0  0
   19.5746   29.2391   36.2108 C   0  0  2  0  0  0  0  0  0  0  0  0
   17.7188   26.0291   39.8177 N   0  0  0  0  0  0  0  0  0  0  0  0
   17.6108   27.3733   39.6874 C   0  0  2  0  0  0  0  0  0  0  0  0
   16.9147   28.0883   40.5962 N   0  0  0  0  0  0  0  0  0  0  0  0
   18.1854   28.0327   38.6593 N   0  0  0  0  0  0  0  0  0  0  0  0
   18.8949   27.3835   37.7142 C   0  0  1  0  0  0  0  0  0  0  0  0
   19.0509   26.0183   37.7845 C   0  0  1  0  0  0  0  0  0  0  0  0
   18.4132   25.3038   38.9178 C   0  0  0  0  0  0  0  0  0  0  0  0
   18.5213   24.0635   39.0381 O   0  0  0  0  0  0  0  0  0  0  0  0
   19.7906   25.6367   36.7293 N   0  0  0  0  0  0  0  0  0  0  0  0
   20.0827   26.7546   36.0251 C   0  0  0  0  0  0  0  0  0  0  0  0
   19.5290   27.8145   36.6357 N   0  0  1  0  0  0  0  0  0  0  0  0
  1  2  1  0  0  0  0
  3  1  1  6  0  0  0
  3  4  1  0  0  0  0
  3  5  1  0  0  0  0
  5  6  1  1  0  0  0
  5  7  1  0  0  0  0
  7  8  1  0  0  0  0
  8  4  1  6  0  0  0
  8 19  1  0  0  0  0
  9 15  1  0  0  0  0
  9 10  1  0  0  0  0
 10 11  1  6  0  0  0
 10 12  1  0  0  0  0
 13 12  1  6  0  0  0
 13 14  1  0  0  0  0
 13 19  1  0  0  0  0
 14 15  1  6  0  0  0
 14 17  1  0  0  0  0
 15 16  2  0  0  0  0
 17 18  1  0  0  0  0
 19 18  1  6  0  0  0
M  END
>  <CHROM.1>
-57.11015964,-76.69002815,18.86020533,27.93517626,36.66201026,-1.00761102
-1.21976542,2.76769906

>  <Name>
ligand

>  <RI>
0

>  <Rbt.Current_Directory>
/home/itssahil/PROJECTS/Mol_Feturizer/New_Systems/rnas/3SKL

>  <Rbt.Executable>
rbdock ($Id: //depot/dev/client3/rdock/2013.1/src/exe/rbdock.cxx#4 $)

>  <Rbt.Library>
libRbt.so (2013.1, Build901 2013/11/27)

>  <Rbt.Parameter_File>
/export/apps/rDock/src/rDock_2013.1_src/data/scripts/dock_solv.prm

>  <Rbt.Receptor>
prm/blind_docking_60.prm

>  <SCORE>
-17.1298

>  <SCORE.INTER>
-16.967

>  <SCORE.INTER.CONST>
1

>  <SCORE.INTER.POLAR>
0

>  <SCORE.INTER.ROT>
2

>  <SCORE.INTER.SOLV>
16.5214

>  <SCORE.INTER.VDW>
-21.7518

>  <SCORE.INTER.norm>
-0.892998

>  <SCORE.INTRA>
-0.162801

>  <SCORE.INTRA.DIHEDRAL>
-0.286644

>  <SCORE.INTRA.DIHEDRAL.0>
1.50031

>  <SCORE.INTRA.POLAR>
0

>  <SCORE.INTRA.POLAR.0>
0

>  <SCORE.INTRA.REPUL>
0

>  <SCORE.INTRA.REPUL.0>
0

>  <SCORE.INTRA.SOLV>
0.0210907

>  <SCORE.INTRA.SOLV.lig_0>
-37.9941

>  <SCORE.INTRA.VDW>
-0.0300246

>  <SCORE.INTRA.VDW.0>
-0.964461

>  <SCORE.INTRA.norm>
-0.00856848

>  <SCORE.RESTR>
0

>  <SCORE.RESTR.CAVITY>
0

>  <SCORE.RESTR.norm>
0

>  <SCORE.SYSTEM>
0

>  <SCORE.SYSTEM.CONST>
0

>  <SCORE.SYSTEM.DIHEDRAL>
0

>  <SCORE.SYSTEM.SOLV>
0

>  <SCORE.SYSTEM.norm>
0

>  <SCORE.heavy>
19

>  <SCORE.norm>
-0.901567

>  <RMSD>
0.763

$$$$
ligand
 OpenBabel11021811483D
libRbt.so/2013.1/901 2013/11/27
 19 21  0  0  0  0  0  0  0  0999 V2000
   17.5759   28.7183   33.3341 C   0  0  0  0  0  0  0  0  0  0  0  0
   17.6715   29.0451   31.9368 O   0  0  0  0  0  0  0  0  0  0  0  0
   18.3859   29.6968   34.1910 C   0  0  1  0  0  0  0  0  0  0  0  0
   18.3327   29.3208   35.5670 O   0  0  0  0  0  0  0  0  0  0  0  0
   19.8499   29.7171   33.7945 C   0  0  1  0  0  0  0  0  0  0  0  0
   20.2816   31.0772   33.7347 O   0  0  0  0  0  0  0  0  0  0  0  0
   20.6060   29.0111   34.8972 C   0  0  0  0  0  0  0  0  0  0  0  0
   19.6294   28.9446   36.0573 C   0  0  2  0  0  0  0  0  0  0  0  0
   17.5729   26.2105   39.9372 N   0  0  0  0  0  0  0  0  0  0  0  0
   17.4871   27.5295   39.6394 C   0  0  2  0  0  0  0  0  0  0  0  0
   16.7591   28.3545   40.4211 N   0  0  0  0  0  0  0  0  0  0  0  0
   18.1159   28.0549   38.5668 N   0  0  0  0  0  0  0  0  0  0  0  0
   18.8598   27.2907   37.7417 C   0  0  1  0  0  0  0  0  0  0  0  0
   18.9959   25.9433   37.9847 C   0  0  1  0  0  0  0  0  0  0  0  0
   18.2987   25.3764   39.1654 C   0  0  0  0  0  0  0  0  0  0  0  0
   18.3863   24.1594   39.4406 O   0  0  0  0  0  0  0  0  0  0  0  0
   19.7783   25.4310   37.0193 N   0  0  0  0  0  0  0  0  0  0  0  0
   20.1155   26.4528   36.1989 C   0  0  0  0  0  0  0  0  0  0  0  0
   19.5474   27.5828   36.6496 N   0  0  1  0  0  0  0  0  0  0  0  0
  1  2  1  0  0  0  0
  3  1  1  6  0  0  0
  3  4  1  0  0  0  0
  3  5  1  0  0  0  0
  5  6  1  1  0  0  0
  5  7  1  0  0  0  0
  7  8  1  0  0  0  0
  8  4  1  6  0  0  0
  8 19  1  0  0  0  0
  9 15  1  0  0  0  0
  9 10  1  0  0  0  0
 10 11  1  6  0  0  0
 10 12  1  0  0  0  0
 13 12  1  6  0  0  0
 13 14  1  0  0  0  0
 13 19  1  0  0  0  0
 14 15  1  6  0  0  0
 14 17  1  0  0  0  0
 15 16  2  0  0  0  0
 17 18  1  0  0  0  0
 19 18  1  6  0  0  0
M  END
>  <CHROM.1>
-177.21823154,-66.53485537,18.74138364,27.83351484,36.56571912,1.30539206
1.01785215,-0.79226410

>  <Name>
ligand

>  <RI>
0

>  <Rbt.Current_Directory>
/home/itssahil/PROJECTS/Mol_Feturizer/New_Systems/rnas/3SKL

>  <Rbt.Executable>
rbdock ($Id: //depot/dev/client3/rdock/2013.1/src/exe/rbdock.cxx#4 $)

>  <Rbt.Library>
libRbt.so (2013.1, Build901 2013/11/27)

>  <Rbt.Parameter_File>
/export/apps/rDock/src/rDock_2013.1_src/data/scripts/dock_solv.prm

>  <Rbt.Receptor>
prm/pocket_docking_2.prm

>  <SCORE>
-16.4489

>  <SCORE.INTER>
-16.5516

>  <SCORE.INTER.CONST>
1

>  <SCORE.INTER.POLAR>
0

>  <SCORE.INTER.ROT>
2

>  <SCORE.INTER.SOLV>
17.1893

>  <SCORE.INTER.VDW>
-21.6975

>  <SCORE.INTER.norm>
-0.871139

>  <SCORE.INTRA>
0.102773

>  <SCORE.INTRA.DIHEDRAL>
-0.278289

>  <SCORE.INTRA.DIHEDRAL.0>
1.50031

>  <SCORE.INTRA.POLAR>
0

>  <SCORE.INTRA.POLAR.0>
0

>  <SCORE.INTRA.REPUL>
0

>  <SCORE.INTRA.REPUL.0>
0

>  <SCORE.INTRA.SOLV>
-0.416375

>  <SCORE.INTRA.SOLV.lig_0>
-37.9941

>  <SCORE.INTRA.VDW>
0.450104

>  <SCORE.INTRA.VDW.0>
-0.964461

>  <SCORE.INTRA.norm>
0.00540908

>  <SCORE.RESTR>
0

>  <SCORE.RESTR.CAVITY>
0

>  <SCORE.RESTR.norm>
0

>  <SCORE.SYSTEM>
0

>  <SCORE.SYSTEM.CONST>
0

>  <SCORE.SYSTEM.DIHEDRAL>
0

>  <SCORE.SYSTEM.SOLV>
0

>  <SCORE.SYSTEM.norm>
0

>  <SCORE.heavy>
19

>  <SCORE.norm>
-0.86573

>  <RMSD>
0.768

$$$$
ligand
 OpenBabel11021811483D
libRbt.so/2013.1/901 2013/11/27
 19 21  0  0  0  0  0  0  0  0999 V2000
   17.5829   28.7442   33.3574 C   0  0  0  0  0  0  0  0  0  0  0  0
   17.7093   29.0568   31.9592 O   0  0  0  0  0  0  0  0  0  0  0  0
   18.4017   29.7106   34.2198 C   0  0  1  0  0  0  0  0  0  0  0  0
   18.3415   29.3299   35.5941 O   0  0  0  0  0  0  0  0  0  0  0  0
   19.8667   29.7164   33.8264 C   0  0  1  0  0  0  0  0  0  0  0  0
   20.3133   31.0719   33.7727 O   0  0  0  0  0  0  0  0  0  0  0  0
   20.6127   28.9980   34.9279 C   0  0  0  0  0  0  0  0  0  0  0  0
   19.6330   28.9377   36.0857 C   0  0  2  0  0  0  0  0  0  0  0  0
   17.5383   26.2112   39.9503 N   0  0  0  0  0  0  0  0  0  0  0  0
   17.4674   27.5321   39.6575 C   0  0  2  0  0  0  0  0  0  0  0  0
   16.7465   28.3619   40.4407 N   0  0  0  0  0  0  0  0  0  0  0  0
   18.1042   28.0547   38.5883 N   0  0  0  0  0  0  0  0  0  0  0  0
   18.8417   27.2857   37.7619 C   0  0  1  0  0  0  0  0  0  0  0  0
   18.9628   25.9360   38.0000 C   0  0  1  0  0  0  0  0  0  0  0  0
   18.2568   25.3722   39.1770 C   0  0  0  0  0  0  0  0  0  0  0  0
   18.3306   24.1533   39.4477 O   0  0  0  0  0  0  0  0  0  0  0  0
   19.7417   25.4190   37.0345 N   0  0  0  0  0  0  0  0  0  0  0  0
   20.0919   26.4402   36.2188 C   0  0  0  0  0  0  0  0  0  0  0  0
   19.5350   27.5746   36.6726 N   0  0  1  0  0  0  0  0  0  0  0  0
  1  2  1  0  0  0  0
  3  1  1  6  0  0  0
  3  4  1  0  0  0  0
  3  5  1  0  0  0  0
  5  6  1  1  0  0  0
  5  7  1  0  0  0  0
  7  8  1  0  0  0  0
  8  4  1  6  0  0  0
  8 19  1  0  0  0  0
  9 15  1  0  0  0  0
  9 10  1  0  0  0  0
 10 11  1  6  0  0  0
 10 12  1  0  0  0  0
 13 12  1  6  0  0  0
 13 14  1  0  0  0  0
 13 19  1  0  0  0  0
 14 15  1  6  0  0  0
 14 17  1  0  0  0  0
 15 16  2  0  0  0  0
 17 18  1  0  0  0  0
 19 18  1  6  0  0  0
M  END
>  <CHROM.1>
-175.90604660,-66.52270634,18.73322892,27.83321137,36.58772013,1.28340364
1.02880923,-0.76948388

>  <Name>
ligand

>  <RI>
0

>  <Rbt.Current_Directory>
/home/itssahil/PROJECTS/Mol_Feturizer/New_Systems/rnas/3SKL

>  <Rbt.Executable>
rbdock ($Id: //depot/dev/client3/rdock/2013.1/src/exe/rbdock.cxx#4 $)

>  <Rbt.Library>
libRbt.so (2013.1, Build901 2013/11/27)

>  <Rbt.Parameter_File>
/export/apps/rDock/src/rDock_2013.1_src/data/scripts/dock_solv.prm

>  <Rbt.Receptor>
prm/pocket_docking_2.prm

>  <SCORE>
-16.3926

>  <SCORE.INTER>
-16.5261

>  <SCORE.INTER.CONST>
1

>  <SCORE.INTER.POLAR>
0

>  <SCORE.INTER.ROT>
2

>  <SCORE.INTER.SOLV>
17.256

>  <SCORE.INTER.VDW>
-21.7027

>  <SCORE.INTER.norm>
-0.869794

>  <SCORE.INTRA>
0.133507

>  <SCORE.INTRA.DIHEDRAL>
-0.24544

>  <SCORE.INTRA.DIHEDRAL.0>
1.50031

>  <SCORE.INTRA.POLAR>
0

>  <SCORE.INTRA.POLAR.0>
0

>  <SCORE.INTRA.REPUL>
0

>  <SCORE.INTRA.REPUL.0>
0

>  <SCORE.INTRA.SOLV>
-0.410109

>  <SCORE.INTRA.SOLV.lig_0>
-37.9941

>  <SCORE.INTRA.VDW>
0.461282

>  <SCORE.INTRA.VDW.0>
-0.964461

>  <SCORE.INTRA.norm>
0.00702671

>  <SCORE.RESTR>
0

>  <SCORE.RESTR.CAVITY>
0

>  <SCORE.RESTR.norm>
0

>  <SCORE.SYSTEM>
0

>  <SCORE.SYSTEM.CONST>
0

>  <SCORE.SYSTEM.DIHEDRAL>
0

>  <SCORE.SYSTEM.SOLV>
0

>  <SCORE.SYSTEM.norm>
0

>  <SCORE.heavy>
19

>  <SCORE.norm>
-0.862767

>  <RMSD>
0.768

$$$$
ligand
 OpenBabel11021811483D
libRbt.so/2013.1/901 2013/11/27
 19 21  0  0  0  0  0  0  0  0999 V2000
   18.0570   28.7908   33.0391 C   0  0  0  0  0  0  0  0  0  0  0  0
   16.7043   28.3162   33.1562 O   0  0  0  0  0  0  0  0  0  0  0  0
   18.3631   29.8635   34.0896 C   0  0  1  0  0  0  0  0  0  0  0  0
   18.0515   29.3867   35.3984 O   0  0  0  0  0  0  0  0  0  0  0  0
   19.8311   30.2454   34.0961 C   0  0  1  0  0  0  0  0  0  0  0  0
   19.9260   31.6687   34.1659 O   0  0  0  0  0  0  0  0  0  0  0  0
   20.4263   29.6524   35.3531 C   0  0  0  0  0  0  0  0  0  0  0  0
   19.2309   29.2814   36.2117 C   0  0  2  0  0  0  0  0  0  0  0  0
   17.7634   26.2170   40.1122 N   0  0  0  0  0  0  0  0  0  0  0  0
   17.5275   27.5308   39.8802 C   0  0  2  0  0  0  0  0  0  0  0  0
   16.7881   28.2504   40.7504 N   0  0  0  0  0  0  0  0  0  0  0  0
   18.0151   28.1548   38.7871 N   0  0  0  0  0  0  0  0  0  0  0  0
   18.7609   27.4989   37.8751 C   0  0  1  0  0  0  0  0  0  0  0  0
   19.0452   26.1638   38.0475 C   0  0  1  0  0  0  0  0  0  0  0  0
   18.5023   25.4879   39.2516 C   0  0  0  0  0  0  0  0  0  0  0  0
   18.7284   24.2764   39.4655 O   0  0  0  0  0  0  0  0  0  0  0  0
   19.7937   25.7674   37.0040 N   0  0  0  0  0  0  0  0  0  0  0  0
   19.9644   26.8468   36.2062 C   0  0  0  0  0  0  0  0  0  0  0  0
   19.3279   27.8976   36.7480 N   0  0  1  0  0  0  0  0  0  0  0  0
  1  2  1  0  0  0  0
  3  1  1  6  0  0  0
  3  4  1  0  0  0  0
  3  5  1  0  0  0  0
  5  6  1  1  0  0  0
  5  7  1  0  0  0  0
  7  8  1  0  0  0  0
  8  4  1  6  0  0  0
  8 19  1  0  0  0  0
  9 15  1  0  0  0  0
  9 10  1  0  0  0  0
 10 11  1  6  0  0  0
 10 12  1  0  0  0  0
 13 12  1  6  0  0  0
 13 14  1  0  0  0  0
 13 19  1  0  0  0  0
 14 15  1  6  0  0  0
 14 17  1  0  0  0  0
 15 16  2  0  0  0  0
 17 18  1  0  0  0  0
 19 18  1  6  0  0  0
M  END
>  <CHROM.1>
53.60223562,-87.81833580,18.65574669,28.00412941,36.75204988,-1.17715785
-1.29747920,2.54041598

>  <Name>
ligand

>  <RI>
0

>  <Rbt.Current_Directory>
/home/itssahil/PROJECTS/Mol_Feturizer/New_Systems/rnas/3SKL

>  <Rbt.Executable>
rbdock ($Id: //depot/dev/client3/rdock/2013.1/src/exe/rbdock.cxx#4 $)

>  <Rbt.Library>
libRbt.so (2013.1, Build901 2013/11/27)

>  <Rbt.Parameter_File>
/export/apps/rDock/src/rDock_2013.1_src/data/scripts/dock_solv.prm

>  <Rbt.Receptor>
prm/pocket_docking_6.prm

>  <SCORE>
-16.7152

>  <SCORE.INTER>
-16.5297

>  <SCORE.INTER.CONST>
1

>  <SCORE.INTER.POLAR>
0

>  <SCORE.INTER.ROT>
2

>  <SCORE.INTER.SOLV>
17.2765

>  <SCORE.INTER.VDW>
-21.712

>  <SCORE.INTER.norm>
-0.869985

>  <SCORE.INTRA>
-0.185499

>  <SCORE.INTRA.DIHEDRAL>
-0.178313

>  <SCORE.INTRA.DIHEDRAL.0>
1.50031

>  <SCORE.INTRA.POLAR>
0

>  <SCORE.INTRA.POLAR.0>
0

>  <SCORE.INTRA.REPUL>
0

>  <SCORE.INTRA.REPUL.0>
0

>  <SCORE.INTRA.SOLV>
-0.506789

>  <SCORE.INTRA.SOLV.lig_0>
-37.9941

>  <SCORE.INTRA.VDW>
0.157052

>  <SCORE.INTRA.VDW.0>
-0.964461

>  <SCORE.INTRA.norm>
-0.00976308

>  <SCORE.RESTR>
0

>  <SCORE.RESTR.CAVITY>
0

>  <SCORE.RESTR.norm>
0

>  <SCORE.SYSTEM>
0

>  <SCORE.SYSTEM.CONST>
0

>  <SCORE.SYSTEM.DIHEDRAL>
0

>  <SCORE.SYSTEM.SOLV>
0

>  <SCORE.SYSTEM.norm>
0

>  <SCORE.heavy>
19

>  <SCORE.norm>
-0.879749

>  <RMSD>
0.772

$$$$
ligand
 OpenBabel11021811483D
libRbt.so/2013.1/901 2013/11/27
 19 21  0  0  0  0  0  0  0  0999 V2000
   17.9605   29.2265   33.2310 C   0  0  0  0  0  0  0  0  0  0  0  0
   18.5448   27.9148   33.3112 O   0  0  0  0  0  0  0  0  0  0  0  0
   18.5285   30.1555   34.3090 C   0  0  1  0  0  0  0  0  0  0  0  0
   18.3078   29.6087   35.6089 O   0  0  0  0  0  0  0  0  0  0  0  0
   20.0256   30.3471   34.1583 C   0  0  1  0  0  0  0  0  0  0  0  0
   20.3205   31.7354   34.3180 O   0  0  0  0  0  0  0  0  0  0  0  0
   20.6755   29.5755   35.2845 C   0  0  0  0  0  0  0  0  0  0  0  0
   19.5477   29.2843   36.2577 C   0  0  2  0  0  0  0  0  0  0  0  0
   17.6928   26.0341   39.8290 N   0  0  0  0  0  0  0  0  0  0  0  0
   17.5675   27.3772   39.7024 C   0  0  2  0  0  0  0  0  0  0  0  0
   16.8503   28.0788   40.6052 N   0  0  0  0  0  0  0  0  0  0  0  0
   18.1455   28.0487   38.6841 N   0  0  0  0  0  0  0  0  0  0  0  0
   18.8757   27.4134   37.7453 C   0  0  1  0  0  0  0  0  0  0  0  0
   19.0499   26.0502   37.8124 C   0  0  1  0  0  0  0  0  0  0  0  0
   18.4084   25.3223   38.9349 C   0  0  0  0  0  0  0  0  0  0  0  0
   18.5325   24.0831   39.0518 O   0  0  0  0  0  0  0  0  0  0  0  0
   19.8080   25.6832   36.7649 N   0  0  0  0  0  0  0  0  0  0  0  0
   20.0929   26.8079   36.0688 C   0  0  0  0  0  0  0  0  0  0  0  0
   19.5169   27.8575   36.6765 N   0  0  1  0  0  0  0  0  0  0  0  0
  1  2  1  0  0  0  0
  3  1  1  6  0  0  0
  3  4  1  0  0  0  0
  3  5  1  0  0  0  0
  5  6  1  1  0  0  0
  5  7  1  0  0  0  0
  7  8  1  0  0  0  0
  8  4  1  6  0  0  0
  8 19  1  0  0  0  0
  9 15  1  0  0  0  0
  9 10  1  0  0  0  0
 10 11  1  6  0  0  0
 10 12  1  0  0  0  0
 13 12  1  6  0  0  0
 13 14  1  0  0  0  0
 13 19  1  0  0  0  0
 14 15  1  6  0  0  0
 14 17  1  0  0  0  0
 15 16  2  0  0  0  0
 17 18  1  0  0  0  0
 19 18  1  6  0  0  0
M  END
>  <CHROM.1>
-57.80050379,-78.21287764,18.86464019,27.96742863,36.69038229,-1.00332133
-1.20728407,2.77433796

>  <Name>
ligand

>  <RI>
0

>  <Rbt.Current_Directory>
/home/itssahil/PROJECTS/Mol_Feturizer/New_Systems/rnas/3SKL

>  <Rbt.Executable>
rbdock ($Id: //depot/dev/client3/rdock/2013.1/src/exe/rbdock.cxx#4 $)

>  <Rbt.Library>
libRbt.so (2013.1, Build901 2013/11/27)

>  <Rbt.Parameter_File>
/export/apps/rDock/src/rDock_2013.1_src/data/scripts/dock_solv.prm

>  <Rbt.Receptor>
prm/blind_docking_60.prm

>  <SCORE>
-17.0623

>  <SCORE.INTER>
-16.8811

>  <SCORE.INTER.CONST>
1

>  <SCORE.INTER.POLAR>
0

>  <SCORE.INTER.ROT>
2

>  <SCORE.INTER.SOLV>
16.7729

>  <SCORE.INTER.VDW>
-21.7784

>  <SCORE.INTER.norm>
-0.888481

>  <SCORE.INTRA>
-0.181201

>  <SCORE.INTRA.DIHEDRAL>
-0.300699

>  <SCORE.INTRA.DIHEDRAL.0>
1.50031

>  <SCORE.INTRA.POLAR>
0

>  <SCORE.INTRA.POLAR.0>
0

>  <SCORE.INTRA.REPUL>
0

>  <SCORE.INTRA.REPUL.0>
0

>  <SCORE.INTRA.SOLV>
0.0211184

>  <SCORE.INTRA.SOLV.lig_0>
-37.9941

>  <SCORE.INTRA.VDW>
-0.0414109

>  <SCORE.INTRA.VDW.0>
-0.964461

>  <SCORE.INTRA.norm>
-0.0095369

>  <SCORE.RESTR>
0

>  <SCORE.RESTR.CAVITY>
0

>  <SCORE.RESTR.norm>
0

>  <SCORE.SYSTEM>
0

>  <SCORE.SYSTEM.CONST>
0

>  <SCORE.SYSTEM.DIHEDRAL>
0

>  <SCORE.SYSTEM.SOLV>
0

>  <SCORE.SYSTEM.norm>
0

>  <SCORE.heavy>
19

>  <SCORE.norm>
-0.898018

>  <RMSD>
0.779

$$$$
ligand
 OpenBabel11021811483D
libRbt.so/2013.1/901 2013/11/27
 19 21  0  0  0  0  0  0  0  0999 V2000
   18.0297   28.6958   32.9464 C   0  0  0  0  0  0  0  0  0  0  0  0
   16.6800   28.2000   32.9774 O   0  0  0  0  0  0  0  0  0  0  0  0
   18.2506   29.7749   34.0117 C   0  0  1  0  0  0  0  0  0  0  0  0
   17.9382   29.2693   35.3095 O   0  0  0  0  0  0  0  0  0  0  0  0
   19.6938   30.2400   34.0541 C   0  0  1  0  0  0  0  0  0  0  0  0
   19.7052   31.6658   34.1370 O   0  0  0  0  0  0  0  0  0  0  0  0
   20.2942   29.6708   35.3196 C   0  0  0  0  0  0  0  0  0  0  0  0
   19.1035   29.2244   36.1482 C   0  0  2  0  0  0  0  0  0  0  0  0
   17.8979   26.1062   40.0956 N   0  0  0  0  0  0  0  0  0  0  0  0
   17.6094   27.4119   39.8773 C   0  0  2  0  0  0  0  0  0  0  0  0
   16.8825   28.1050   40.7790 N   0  0  0  0  0  0  0  0  0  0  0  0
   18.0312   28.0536   38.7673 N   0  0  0  0  0  0  0  0  0  0  0  0
   18.7607   27.4244   37.8239 C   0  0  1  0  0  0  0  0  0  0  0  0
   19.0958   26.0992   37.9805 C   0  0  1  0  0  0  0  0  0  0  0  0
   18.6249   25.4035   39.2035 C   0  0  0  0  0  0  0  0  0  0  0  0
   18.8995   24.1998   39.4043 O   0  0  0  0  0  0  0  0  0  0  0  0
   19.8140   25.7296   36.9063 N   0  0  0  0  0  0  0  0  0  0  0  0
   19.9164   26.8154   36.1055 C   0  0  0  0  0  0  0  0  0  0  0  0
   19.2680   27.8436   36.6759 N   0  0  1  0  0  0  0  0  0  0  0  0
  1  2  1  0  0  0  0
  3  1  1  6  0  0  0
  3  4  1  0  0  0  0
  3  5  1  0  0  0  0
  5  6  1  1  0  0  0
  5  7  1  0  0  0  0
  7  8  1  0  0  0  0
  8  4  1  6  0  0  0
  8 19  1  0  0  0  0
  9 15  1  0  0  0  0
  9 10  1  0  0  0  0
 10 11  1  6  0  0  0
 10 12  1  0  0  0  0
 13 12  1  6  0  0  0
 13 14  1  0  0  0  0
 13 19  1  0  0  0  0
 14 15  1  6  0  0  0
 14 17  1  0  0  0  0
 15 16  2  0  0  0  0
 17 18  1  0  0  0  0
 19 18  1  6  0  0  0
M  END
>  <CHROM.1>
57.04317195,-91.68920320,18.63743189,27.93203410,36.69227973,-1.24874396
-1.36158148,2.47187484

>  <Name>
ligand

>  <RI>
0

>  <Rbt.Current_Directory>
/home/itssahil/PROJECTS/Mol_Feturizer/New_Systems/rnas/3SKL

>  <Rbt.Executable>
rbdock ($Id: //depot/dev/client3/rdock/2013.1/src/exe/rbdock.cxx#4 $)

>  <Rbt.Library>
libRbt.so (2013.1, Build901 2013/11/27)

>  <Rbt.Parameter_File>
/export/apps/rDock/src/rDock_2013.1_src/data/scripts/dock_solv.prm

>  <Rbt.Receptor>
prm/pocket_docking_7.prm

>  <SCORE>
-16.7939

>  <SCORE.INTER>
-16.5029

>  <SCORE.INTER.CONST>
1

>  <SCORE.INTER.POLAR>
0

>  <SCORE.INTER.ROT>
2

>  <SCORE.INTER.SOLV>
17.1463

>  <SCORE.INTER.VDW>
-21.6507

>  <SCORE.INTER.norm>
-0.868575

>  <SCORE.INTRA>
-0.290938

>  <SCORE.INTRA.DIHEDRAL>
-0.292338

>  <SCORE.INTRA.DIHEDRAL.0>
1.50031

>  <SCORE.INTRA.POLAR>
0

>  <SCORE.INTRA.POLAR.0>
0

>  <SCORE.INTRA.REPUL>
0

>  <SCORE.INTRA.REPUL.0>
0

>  <SCORE.INTRA.SOLV>
-0.527053

>  <SCORE.INTRA.SOLV.lig_0>
-37.9941

>  <SCORE.INTRA.VDW>
0.118757

>  <SCORE.INTRA.VDW.0>
-0.964461

>  <SCORE.INTRA.norm>
-0.0153125

>  <SCORE.RESTR>
0

>  <SCORE.RESTR.CAVITY>
0

>  <SCORE.RESTR.norm>
0

>  <SCORE.SYSTEM>
0

>  <SCORE.SYSTEM.CONST>
0

>  <SCORE.SYSTEM.DIHEDRAL>
0

>  <SCORE.SYSTEM.SOLV>
0

>  <SCORE.SYSTEM.norm>
0

>  <SCORE.heavy>
19

>  <SCORE.norm>
-0.883887

>  <RMSD>
0.783

$$$$
ligand
 OpenBabel11021811483D
libRbt.so/2013.1/901 2013/11/27
 19 21  0  0  0  0  0  0  0  0999 V2000
   17.9984   28.7860   33.0113 C   0  0  0  0  0  0  0  0  0  0  0  0
   16.6500   28.3039   33.1455 O   0  0  0  0  0  0  0  0  0  0  0  0
   18.3132   29.8573   34.0607 C   0  0  1  0  0  0  0  0  0  0  0  0
   18.0243   29.3742   35.3724 O   0  0  0  0  0  0  0  0  0  0  0  0
   19.7786   30.2489   34.0465 C   0  0  1  0  0  0  0  0  0  0  0  0
   19.8651   31.6727   34.1198 O   0  0  0  0  0  0  0  0  0  0  0  0
   20.3964   29.6558   35.2925 C   0  0  0  0  0  0  0  0  0  0  0  0
   19.2164   29.2741   36.1676 C   0  0  2  0  0  0  0  0  0  0  0  0
   17.8051   26.1800   40.0654 N   0  0  0  0  0  0  0  0  0  0  0  0
   17.5547   27.4923   39.8402 C   0  0  2  0  0  0  0  0  0  0  0  0
   16.8140   28.2011   40.7181 N   0  0  0  0  0  0  0  0  0  0  0  0
   18.0289   28.1254   38.7464 N   0  0  0  0  0  0  0  0  0  0  0  0
   18.7751   27.4805   37.8270 C   0  0  1  0  0  0  0  0  0  0  0  0
   19.0736   26.1476   37.9921 C   0  0  1  0  0  0  0  0  0  0  0  0
   18.5454   25.4616   39.1971 C   0  0  0  0  0  0  0  0  0  0  0  0
   18.7848   24.2515   39.4046 O   0  0  0  0  0  0  0  0  0  0  0  0
   19.8191   25.7627   36.9421 N   0  0  0  0  0  0  0  0  0  0  0  0
   19.9739   26.8468   36.1475 C   0  0  0  0  0  0  0  0  0  0  0  0
   19.3307   27.8892   36.6977 N   0  0  1  0  0  0  0  0  0  0  0  0
  1  2  1  0  0  0  0
  3  1  1  6  0  0  0
  3  4  1  0  0  0  0
  3  5  1  0  0  0  0
  5  6  1  1  0  0  0
  5  7  1  0  0  0  0
  7  8  1  0  0  0  0
  8  4  1  6  0  0  0
  8 19  1  0  0  0  0
  9 15  1  0  0  0  0
  9 10  1  0  0  0  0
 10 11  1  6  0  0  0
 10 12  1  0  0  0  0
 13 12  1  6  0  0  0
 13 14  1  0  0  0  0
 13 19  1  0  0  0  0
 14 15  1  6  0  0  0
 14 17  1  0  0  0  0
 15 16  2  0  0  0  0
 17 18  1  0  0  0  0
 19 18  1  6  0  0  0
M  END
>  <CHROM.1>
53.71248800,-87.30158142,18.65138591,27.98927334,36.70814352,-1.24195230
-1.28710140,2.48180613

>  <Name>
ligand

>  <RI>
0

>  <Rbt.Current_Directory>
/home/itssahil/PROJECTS/Mol_Feturizer/New_Systems/rnas/3SKL

>  <Rbt.Executable>
rbdock ($Id: //depot/dev/client3/rdock/2013.1/src/exe/rbdock.cxx#4 $)

>  <Rbt.Library>
libRbt.so (2013.1, Build901 2013/11/27)

>  <Rbt.Parameter_File>
/export/apps/rDock/src/rDock_2013.1_src/data/scripts/dock_solv.prm

>  <Rbt.Receptor>
prm/pocket_docking_7.prm

>  <SCORE>
-16.7666

>  <SCORE.INTER>
-16.5851

>  <SCORE.INTER.CONST>
1

>  <SCORE.INTER.POLAR>
0

>  <SCORE.INTER.ROT>
2

>  <SCORE.INTER.SOLV>
17.2693

>  <SCORE.INTER.VDW>
-21.7465

>  <SCORE.INTER.norm>
-0.872898

>  <SCORE.INTRA>
-0.181522

>  <SCORE.INTRA.DIHEDRAL>
-0.183174

>  <SCORE.INTRA.DIHEDRAL.0>
1.50031

>  <SCORE.INTRA.POLAR>
0

>  <SCORE.INTRA.POLAR.0>
0

>  <SCORE.INTRA.REPUL>
0

>  <SCORE.INTRA.REPUL.0>
0

>  <SCORE.INTRA.SOLV>
-0.507027

>  <SCORE.INTRA.SOLV.lig_0>
-37.9941

>  <SCORE.INTRA.VDW>
0.163579

>  <SCORE.INTRA.VDW.0>
-0.964461

>  <SCORE.INTRA.norm>
-0.00955378

>  <SCORE.RESTR>
0

>  <SCORE.RESTR.CAVITY>
0

>  <SCORE.RESTR.norm>
0

>  <SCORE.SYSTEM>
0

>  <SCORE.SYSTEM.CONST>
0

>  <SCORE.SYSTEM.DIHEDRAL>
0

>  <SCORE.SYSTEM.SOLV>
0

>  <SCORE.SYSTEM.norm>
0

>  <SCORE.heavy>
19

>  <SCORE.norm>
-0.882452

>  <RMSD>
0.784

$$$$
ligand
 OpenBabel11021811483D
libRbt.so/2013.1/901 2013/11/27
 19 21  0  0  0  0  0  0  0  0999 V2000
   18.0552   28.7794   33.0393 C   0  0  0  0  0  0  0  0  0  0  0  0
   16.6919   28.3378   33.1622 O   0  0  0  0  0  0  0  0  0  0  0  0
   18.3976   29.8298   34.1010 C   0  0  1  0  0  0  0  0  0  0  0  0
   18.0908   29.3412   35.4066 O   0  0  0  0  0  0  0  0  0  0  0  0
   19.8737   30.1789   34.0952 C   0  0  1  0  0  0  0  0  0  0  0  0
   20.0012   31.5986   34.1840 O   0  0  0  0  0  0  0  0  0  0  0  0
   20.4703   29.5547   35.3364 C   0  0  0  0  0  0  0  0  0  0  0  0
   19.2770   29.1981   36.2040 C   0  0  2  0  0  0  0  0  0  0  0  0
   17.7723   26.1069   40.0690 N   0  0  0  0  0  0  0  0  0  0  0  0
   17.5615   27.4284   39.8577 C   0  0  2  0  0  0  0  0  0  0  0  0
   16.8422   28.1498   40.7431 N   0  0  0  0  0  0  0  0  0  0  0  0
   18.0548   28.0584   38.7707 N   0  0  0  0  0  0  0  0  0  0  0  0
   18.7815   27.4012   37.8444 C   0  0  1  0  0  0  0  0  0  0  0  0
   19.0398   26.0582   37.9955 C   0  0  1  0  0  0  0  0  0  0  0  0
   18.4909   25.3757   39.1931 C   0  0  0  0  0  0  0  0  0  0  0  0
   18.6938   24.1569   39.3878 O   0  0  0  0  0  0  0  0  0  0  0  0
   19.7737   25.6622   36.9414 N   0  0  0  0  0  0  0  0  0  0  0  0
   19.9612   26.7495   36.1583 C   0  0  0  0  0  0  0  0  0  0  0  0
   19.3495   27.8048   36.7195 N   0  0  1  0  0  0  0  0  0  0  0  0
  1  2  1  0  0  0  0
  3  1  1  6  0  0  0
  3  4  1  0  0  0  0
  3  5  1  0  0  0  0
  5  6  1  1  0  0  0
  5  7  1  0  0  0  0
  7  8  1  0  0  0  0
  8  4  1  6  0  0  0
  8 19  1  0  0  0  0
  9 15  1  0  0  0  0
  9 10  1  0  0  0  0
 10 11  1  6  0  0  0
 10 12  1  0  0  0  0
 13 12  1  6  0  0  0
 13 14  1  0  0  0  0
 13 19  1  0  0  0  0
 14 15  1  6  0  0  0
 14 17  1  0  0  0  0
 15 16  2  0  0  0  0
 17 18  1  0  0  0  0
 19 18  1  6  0  0  0
M  END
>  <CHROM.1>
53.86564680,-87.47713634,18.67547026,27.92526733,36.73032781,-1.14335269
-1.30734841,2.58734798

>  <Name>
ligand

>  <RI>
0

>  <Rbt.Current_Directory>
/home/itssahil/PROJECTS/Mol_Feturizer/New_Systems/rnas/3SKL

>  <Rbt.Executable>
rbdock ($Id: //depot/dev/client3/rdock/2013.1/src/exe/rbdock.cxx#4 $)

>  <Rbt.Library>
libRbt.so (2013.1, Build901 2013/11/27)

>  <Rbt.Parameter_File>
/export/apps/rDock/src/rDock_2013.1_src/data/scripts/dock_solv.prm

>  <Rbt.Receptor>
prm/pocket_docking_4.prm

>  <SCORE>
-16.7757

>  <SCORE.INTER>
-16.5879

>  <SCORE.INTER.CONST>
1

>  <SCORE.INTER.POLAR>
0

>  <SCORE.INTER.ROT>
2

>  <SCORE.INTER.SOLV>
17.0342

>  <SCORE.INTER.VDW>
-21.67

>  <SCORE.INTER.norm>
-0.873048

>  <SCORE.INTRA>
-0.187841

>  <SCORE.INTRA.DIHEDRAL>
-0.189915

>  <SCORE.INTRA.DIHEDRAL.0>
1.50031

>  <SCORE.INTRA.POLAR>
0

>  <SCORE.INTRA.POLAR.0>
0

>  <SCORE.INTRA.REPUL>
0

>  <SCORE.INTRA.REPUL.0>
0

>  <SCORE.INTRA.SOLV>
-0.507939

>  <SCORE.INTRA.SOLV.lig_0>
-37.9941

>  <SCORE.INTRA.VDW>
0.161086

>  <SCORE.INTRA.VDW.0>
-0.964461

>  <SCORE.INTRA.norm>
-0.00988638

>  <SCORE.RESTR>
0

>  <SCORE.RESTR.CAVITY>
0

>  <SCORE.RESTR.norm>
0

>  <SCORE.SYSTEM>
0

>  <SCORE.SYSTEM.CONST>
0

>  <SCORE.SYSTEM.DIHEDRAL>
0

>  <SCORE.SYSTEM.SOLV>
0

>  <SCORE.SYSTEM.norm>
0

>  <SCORE.heavy>
19

>  <SCORE.norm>
-0.882934

>  <RMSD>
0.785

$$$$
ligand
 OpenBabel11021811483D
libRbt.so/2013.1/901 2013/11/27
 19 21  0  0  0  0  0  0  0  0999 V2000
   18.0711   28.7585   32.9732 C   0  0  0  0  0  0  0  0  0  0  0  0
   16.7195   28.2735   33.0540 O   0  0  0  0  0  0  0  0  0  0  0  0
   18.3473   29.8172   34.0460 C   0  0  1  0  0  0  0  0  0  0  0  0
   18.0293   29.3119   35.3425 O   0  0  0  0  0  0  0  0  0  0  0  0
   19.8085   30.2235   34.0760 C   0  0  1  0  0  0  0  0  0  0  0  0
   19.8784   31.6467   34.1722 O   0  0  0  0  0  0  0  0  0  0  0  0
   20.3996   29.6180   35.3290 C   0  0  0  0  0  0  0  0  0  0  0  0
   19.2012   29.2118   36.1671 C   0  0  2  0  0  0  0  0  0  0  0  0
   17.8220   26.0784   40.0450 N   0  0  0  0  0  0  0  0  0  0  0  0
   17.5745   27.3943   39.8379 C   0  0  2  0  0  0  0  0  0  0  0  0
   16.8470   28.0958   40.7325 N   0  0  0  0  0  0  0  0  0  0  0  0
   18.0387   28.0381   38.7461 N   0  0  0  0  0  0  0  0  0  0  0  0
   18.7715   27.4009   37.8107 C   0  0  1  0  0  0  0  0  0  0  0  0
   19.0664   26.0649   37.9570 C   0  0  1  0  0  0  0  0  0  0  0  0
   18.5492   25.3671   39.1599 C   0  0  0  0  0  0  0  0  0  0  0  0
   18.7860   24.1538   39.3507 O   0  0  0  0  0  0  0  0  0  0  0  0
   19.7980   25.6892   36.8940 N   0  0  0  0  0  0  0  0  0  0  0  0
   19.9482   26.7819   36.1102 C   0  0  0  0  0  0  0  0  0  0  0  0
   19.3157   27.8203   36.6799 N   0  0  1  0  0  0  0  0  0  0  0  0
  1  2  1  0  0  0  0
  3  1  1  6  0  0  0
  3  4  1  0  0  0  0
  3  5  1  0  0  0  0
  5  6  1  1  0  0  0
  5  7  1  0  0  0  0
  7  8  1  0  0  0  0
  8  4  1  6  0  0  0
  8 19  1  0  0  0  0
  9 15  1  0  0  0  0
  9 10  1  0  0  0  0
 10 11  1  6  0  0  0
 10 12  1  0  0  0  0
 13 12  1  6  0  0  0
 13 14  1  0  0  0  0
 13 19  1  0  0  0  0
 14 15  1  6  0  0  0
 14 17  1  0  0  0  0
 15 16  2  0  0  0  0
 17 18  1  0  0  0  0
 19 18  1  6  0  0  0
M  END
>  <CHROM.1>
54.44502049,-89.62092725,18.66402193,27.92342522,36.69147003,-1.16137946
-1.33658176,2.57149376

>  <Name>
ligand

>  <RI>
0

>  <Rbt.Current_Directory>
/home/itssahil/PROJECTS/Mol_Feturizer/New_Systems/rnas/3SKL

>  <Rbt.Executable>
rbdock ($Id: //depot/dev/client3/rdock/2013.1/src/exe/rbdock.cxx#4 $)

>  <Rbt.Library>
libRbt.so (2013.1, Build901 2013/11/27)

>  <Rbt.Parameter_File>
/export/apps/rDock/src/rDock_2013.1_src/data/scripts/dock_solv.prm

>  <Rbt.Receptor>
prm/pocket_docking_4.prm

>  <SCORE>
-16.6906

>  <SCORE.INTER>
-16.4766

>  <SCORE.INTER.CONST>
1

>  <SCORE.INTER.POLAR>
0

>  <SCORE.INTER.ROT>
2

>  <SCORE.INTER.SOLV>
17.0925

>  <SCORE.INTER.VDW>
-21.6152

>  <SCORE.INTER.norm>
-0.867187

>  <SCORE.INTRA>
-0.214051

>  <SCORE.INTRA.DIHEDRAL>
-0.21401

>  <SCORE.INTRA.DIHEDRAL.0>
1.50031

>  <SCORE.INTRA.POLAR>
0

>  <SCORE.INTRA.POLAR.0>
0

>  <SCORE.INTRA.REPUL>
0

>  <SCORE.INTRA.REPUL.0>
0

>  <SCORE.INTRA.SOLV>
-0.512345

>  <SCORE.INTRA.SOLV.lig_0>
-37.9941

>  <SCORE.INTRA.VDW>
0.149126

>  <SCORE.INTRA.VDW.0>
-0.964461

>  <SCORE.INTRA.norm>
-0.0112658

>  <SCORE.RESTR>
0

>  <SCORE.RESTR.CAVITY>
0

>  <SCORE.RESTR.norm>
0

>  <SCORE.SYSTEM>
0

>  <SCORE.SYSTEM.CONST>
0

>  <SCORE.SYSTEM.DIHEDRAL>
0

>  <SCORE.SYSTEM.SOLV>
0

>  <SCORE.SYSTEM.norm>
0

>  <SCORE.heavy>
19

>  <SCORE.norm>
-0.878453

>  <RMSD>
0.787

$$$$
ligand
 OpenBabel11021811483D
libRbt.so/2013.1/901 2013/11/27
 19 21  0  0  0  0  0  0  0  0999 V2000
   18.0412   28.7264   32.9541 C   0  0  0  0  0  0  0  0  0  0  0  0
   16.6914   28.2315   32.9945 O   0  0  0  0  0  0  0  0  0  0  0  0
   18.2731   29.7981   34.0244 C   0  0  1  0  0  0  0  0  0  0  0  0
   17.9577   29.2890   35.3201 O   0  0  0  0  0  0  0  0  0  0  0  0
   19.7205   30.2501   34.0673 C   0  0  1  0  0  0  0  0  0  0  0  0
   19.7449   31.6753   34.1573 O   0  0  0  0  0  0  0  0  0  0  0  0
   20.3173   29.6691   35.3292 C   0  0  0  0  0  0  0  0  0  0  0  0
   19.1235   29.2294   36.1571 C   0  0  2  0  0  0  0  0  0  0  0  0
   17.8902   26.1013   40.0880 N   0  0  0  0  0  0  0  0  0  0  0  0
   17.6128   27.4104   39.8764 C   0  0  2  0  0  0  0  0  0  0  0  0
   16.8913   28.1049   40.7813 N   0  0  0  0  0  0  0  0  0  0  0  0
   18.0405   28.0542   38.7698 N   0  0  0  0  0  0  0  0  0  0  0  0
   18.7650   27.4238   37.8234 C   0  0  1  0  0  0  0  0  0  0  0  0
   19.0889   26.0950   37.9733 C   0  0  1  0  0  0  0  0  0  0  0  0
   18.6117   25.3970   39.1926 C   0  0  0  0  0  0  0  0  0  0  0  0
   18.8760   24.1901   39.3873 O   0  0  0  0  0  0  0  0  0  0  0  0
   19.8044   25.7249   36.8975 N   0  0  0  0  0  0  0  0  0  0  0  0
   19.9162   26.8140   36.1023 C   0  0  0  0  0  0  0  0  0  0  0  0
   19.2763   27.8446   36.6778 N   0  0  1  0  0  0  0  0  0  0  0  0
  1  2  1  0  0  0  0
  3  1  1  6  0  0  0
  3  4  1  0  0  0  0
  3  5  1  0  0  0  0
  5  6  1  1  0  0  0
  5  7  1  0  0  0  0
  7  8  1  0  0  0  0
  8  4  1  6  0  0  0
  8 19  1  0  0  0  0
  9 15  1  0  0  0  0
  9 10  1  0  0  0  0
 10 11  1  6  0  0  0
 10 12  1  0  0  0  0
 13 12  1  6  0  0  0
 13 14  1  0  0  0  0
 13 19  1  0  0  0  0
 14 15  1  6  0  0  0
 14 17  1  0  0  0  0
 15 16  2  0  0  0  0
 17 18  1  0  0  0  0
 19 18  1  6  0  0  0
M  END
>  <CHROM.1>
56.37355788,-91.58964063,18.64552978,27.93752957,36.69528081,-1.21630176
-1.36572173,2.50898901

>  <Name>
ligand

>  <RI>
0

>  <Rbt.Current_Directory>
/home/itssahil/PROJECTS/Mol_Feturizer/New_Systems/rnas/3SKL

>  <Rbt.Executable>
rbdock ($Id: //depot/dev/client3/rdock/2013.1/src/exe/rbdock.cxx#4 $)

>  <Rbt.Library>
libRbt.so (2013.1, Build901 2013/11/27)

>  <Rbt.Parameter_File>
/export/apps/rDock/src/rDock_2013.1_src/data/scripts/dock_solv.prm

>  <Rbt.Receptor>
prm/pocket_docking_4.prm

>  <SCORE>
-16.7704

>  <SCORE.INTER>
-16.491

>  <SCORE.INTER.CONST>
1

>  <SCORE.INTER.POLAR>
0

>  <SCORE.INTER.ROT>
2

>  <SCORE.INTER.SOLV>
17.105

>  <SCORE.INTER.VDW>
-21.629

>  <SCORE.INTER.norm>
-0.867945

>  <SCORE.INTRA>
-0.279434

>  <SCORE.INTRA.DIHEDRAL>
-0.276692

>  <SCORE.INTRA.DIHEDRAL.0>
1.50031

>  <SCORE.INTRA.POLAR>
0

>  <SCORE.INTRA.POLAR.0>
0

>  <SCORE.INTRA.REPUL>
0

>  <SCORE.INTRA.REPUL.0>
0

>  <SCORE.INTRA.SOLV>
-0.523567

>  <SCORE.INTRA.SOLV.lig_0>
-37.9941

>  <SCORE.INTRA.VDW>
0.120695

>  <SCORE.INTRA.VDW.0>
-0.964461

>  <SCORE.INTRA.norm>
-0.0147071

>  <SCORE.RESTR>
0

>  <SCORE.RESTR.CAVITY>
0

>  <SCORE.RESTR.norm>
0

>  <SCORE.SYSTEM>
0

>  <SCORE.SYSTEM.CONST>
0

>  <SCORE.SYSTEM.DIHEDRAL>
0

>  <SCORE.SYSTEM.SOLV>
0

>  <SCORE.SYSTEM.norm>
0

>  <SCORE.heavy>
19

>  <SCORE.norm>
-0.882652

>  <RMSD>
0.789

$$$$
ligand
 OpenBabel11021811483D
libRbt.so/2013.1/901 2013/11/27
 19 21  0  0  0  0  0  0  0  0999 V2000
   17.5868   28.8723   33.4624 C   0  0  0  0  0  0  0  0  0  0  0  0
   17.7333   29.2001   32.0696 O   0  0  0  0  0  0  0  0  0  0  0  0
   18.3774   29.8410   34.3481 C   0  0  1  0  0  0  0  0  0  0  0  0
   18.2960   29.4478   35.7178 O   0  0  0  0  0  0  0  0  0  0  0  0
   19.8493   29.8677   33.9825 C   0  0  1  0  0  0  0  0  0  0  0  0
   20.2804   31.2289   33.9486 O   0  0  0  0  0  0  0  0  0  0  0  0
   20.5831   29.1489   35.0919 C   0  0  0  0  0  0  0  0  0  0  0  0
   19.5827   29.0670   36.2304 C   0  0  2  0  0  0  0  0  0  0  0  0
   17.4495   26.2828   40.0325 N   0  0  0  0  0  0  0  0  0  0  0  0
   17.3682   27.6053   39.7495 C   0  0  2  0  0  0  0  0  0  0  0  0
   16.6230   28.4198   40.5260 N   0  0  0  0  0  0  0  0  0  0  0  0
   18.0184   28.1446   38.6967 N   0  0  0  0  0  0  0  0  0  0  0  0
   18.7803   27.3915   37.8778 C   0  0  1  0  0  0  0  0  0  0  0  0
   18.9131   26.0413   38.1069 C   0  0  1  0  0  0  0  0  0  0  0  0
   18.1922   25.4591   39.2658 C   0  0  0  0  0  0  0  0  0  0  0  0
   18.2757   24.2389   39.5276 O   0  0  0  0  0  0  0  0  0  0  0  0
   19.7160   25.5419   37.1517 N   0  0  0  0  0  0  0  0  0  0  0  0
   20.0689   26.5741   36.3512 C   0  0  0  0  0  0  0  0  0  0  0  0
   19.4901   27.6979   36.8040 N   0  0  1  0  0  0  0  0  0  0  0  0
  1  2  1  0  0  0  0
  3  1  1  6  0  0  0
  3  4  1  0  0  0  0
  3  5  1  0  0  0  0
  5  6  1  1  0  0  0
  5  7  1  0  0  0  0
  7  8  1  0  0  0  0
  8  4  1  6  0  0  0
  8 19  1  0  0  0  0
  9 15  1  0  0  0  0
  9 10  1  0  0  0  0
 10 11  1  6  0  0  0
 10 12  1  0  0  0  0
 13 12  1  6  0  0  0
 13 14  1  0  0  0  0
 13 19  1  0  0  0  0
 14 15  1  6  0  0  0
 14 17  1  0  0  0  0
 15 16  2  0  0  0  0
 17 18  1  0  0  0  0
 19 18  1  6  0  0  0
M  END
>  <CHROM.1>
-176.03536590,-66.54166384,18.68710518,27.94771168,36.70634543,1.27550435
1.00696182,-0.75432876

>  <Name>
ligand

>  <RI>
0

>  <Rbt.Current_Directory>
/home/itssahil/PROJECTS/Mol_Feturizer/New_Systems/rnas/3SKL

>  <Rbt.Executable>
rbdock ($Id: //depot/dev/client3/rdock/2013.1/src/exe/rbdock.cxx#4 $)

>  <Rbt.Library>
libRbt.so (2013.1, Build901 2013/11/27)

>  <Rbt.Parameter_File>
/export/apps/rDock/src/rDock_2013.1_src/data/scripts/dock_solv.prm

>  <Rbt.Receptor>
prm/pocket_docking_5.prm

>  <SCORE>
-16.4223

>  <SCORE.INTER>
-16.5523

>  <SCORE.INTER.CONST>
1

>  <SCORE.INTER.POLAR>
0

>  <SCORE.INTER.ROT>
2

>  <SCORE.INTER.SOLV>
18.0084

>  <SCORE.INTER.VDW>
-21.971

>  <SCORE.INTER.norm>
-0.871176

>  <SCORE.INTRA>
0.130056

>  <SCORE.INTRA.DIHEDRAL>
-0.249242

>  <SCORE.INTRA.DIHEDRAL.0>
1.50031

>  <SCORE.INTRA.POLAR>
0

>  <SCORE.INTRA.POLAR.0>
0

>  <SCORE.INTRA.REPUL>
0

>  <SCORE.INTRA.REPUL.0>
0

>  <SCORE.INTRA.SOLV>
-0.410738

>  <SCORE.INTRA.SOLV.lig_0>
-37.9941

>  <SCORE.INTRA.VDW>
0.460045

>  <SCORE.INTRA.VDW.0>
-0.964461

>  <SCORE.INTRA.norm>
0.00684503

>  <SCORE.RESTR>
0

>  <SCORE.RESTR.CAVITY>
0

>  <SCORE.RESTR.norm>
0

>  <SCORE.SYSTEM>
0

>  <SCORE.SYSTEM.CONST>
0

>  <SCORE.SYSTEM.DIHEDRAL>
0

>  <SCORE.SYSTEM.SOLV>
0

>  <SCORE.SYSTEM.norm>
0

>  <SCORE.heavy>
19

>  <SCORE.norm>
-0.864331

>  <RMSD>
0.789

$$$$
ligand
 OpenBabel11021811483D
libRbt.so/2013.1/901 2013/11/27
 19 21  0  0  0  0  0  0  0  0999 V2000
   17.8851   29.2173   33.3052 C   0  0  0  0  0  0  0  0  0  0  0  0
   18.4731   27.9068   33.3776 O   0  0  0  0  0  0  0  0  0  0  0  0
   18.4429   30.1384   34.3953 C   0  0  1  0  0  0  0  0  0  0  0  0
   18.2202   29.5765   35.6884 O   0  0  0  0  0  0  0  0  0  0  0  0
   19.9394   30.3408   34.2529 C   0  0  1  0  0  0  0  0  0  0  0  0
   20.2250   31.7291   34.4284 O   0  0  0  0  0  0  0  0  0  0  0  0
   20.5894   29.5614   35.3737 C   0  0  0  0  0  0  0  0  0  0  0  0
   19.4594   29.2530   36.3390 C   0  0  2  0  0  0  0  0  0  0  0  0
   17.6136   25.9547   39.8705 N   0  0  0  0  0  0  0  0  0  0  0  0
   17.4808   27.2982   39.7577 C   0  0  2  0  0  0  0  0  0  0  0  0
   16.7570   27.9861   40.6659 N   0  0  0  0  0  0  0  0  0  0  0  0
   18.0577   27.9838   38.7482 N   0  0  0  0  0  0  0  0  0  0  0  0
   18.7941   27.3626   37.8049 C   0  0  1  0  0  0  0  0  0  0  0  0
   18.9762   25.9999   37.8581 C   0  0  1  0  0  0  0  0  0  0  0  0
   18.3357   25.2564   38.9710 C   0  0  0  0  0  0  0  0  0  0  0  0
   18.4667   24.0168   39.0752 O   0  0  0  0  0  0  0  0  0  0  0  0
   19.7392   25.6483   36.8090 N   0  0  0  0  0  0  0  0  0  0  0  0
   20.0196   26.7819   36.1255 C   0  0  0  0  0  0  0  0  0  0  0  0
   19.4358   27.8217   36.7427 N   0  0  1  0  0  0  0  0  0  0  0  0
  1  2  1  0  0  0  0
  3  1  1  6  0  0  0
  3  4  1  0  0  0  0
  3  5  1  0  0  0  0
  5  6  1  1  0  0  0
  5  7  1  0  0  0  0
  7  8  1  0  0  0  0
  8  4  1  6  0  0  0
  8 19  1  0  0  0  0
  9 15  1  0  0  0  0
  9 10  1  0  0  0  0
 10 11  1  6  0  0  0
 10 12  1  0  0  0  0
 13 12  1  6  0  0  0
 13 14  1  0  0  0  0
 13 19  1  0  0  0  0
 14 15  1  6  0  0  0
 14 17  1  0  0  0  0
 15 16  2  0  0  0  0
 17 18  1  0  0  0  0
 19 18  1  6  0  0  0
M  END
>  <CHROM.1>
-57.55800617,-78.29304164,18.78352351,27.92754198,36.75583466,-1.01410557
-1.20292516,2.77492275

>  <Name>
ligand

>  <RI>
0

>  <Rbt.Current_Directory>
/home/itssahil/PROJECTS/Mol_Feturizer/New_Systems/rnas/3SKL

>  <Rbt.Executable>
rbdock ($Id: //depot/dev/client3/rdock/2013.1/src/exe/rbdock.cxx#4 $)

>  <Rbt.Library>
libRbt.so (2013.1, Build901 2013/11/27)

>  <Rbt.Parameter_File>
/export/apps/rDock/src/rDock_2013.1_src/data/scripts/dock_solv.prm

>  <Rbt.Receptor>
prm/blind_docking_100.prm

>  <SCORE>
-17.0933

>  <SCORE.INTER>
-16.9116

>  <SCORE.INTER.CONST>
1

>  <SCORE.INTER.POLAR>
0

>  <SCORE.INTER.ROT>
2

>  <SCORE.INTER.SOLV>
17.3296

>  <SCORE.INTER.VDW>
-21.9843

>  <SCORE.INTER.norm>
-0.890086

>  <SCORE.INTRA>
-0.181636

>  <SCORE.INTRA.DIHEDRAL>
-0.296624

>  <SCORE.INTRA.DIHEDRAL.0>
1.50031

>  <SCORE.INTRA.POLAR>
0

>  <SCORE.INTRA.POLAR.0>
0

>  <SCORE.INTRA.REPUL>
0

>  <SCORE.INTRA.REPUL.0>
0

>  <SCORE.INTRA.SOLV>
0.0216384

>  <SCORE.INTRA.SOLV.lig_0>
-37.9941

>  <SCORE.INTRA.VDW>
-0.044143

>  <SCORE.INTRA.VDW.0>
-0.964461

>  <SCORE.INTRA.norm>
-0.00955979

>  <SCORE.RESTR>
0

>  <SCORE.RESTR.CAVITY>
0

>  <SCORE.RESTR.norm>
0

>  <SCORE.SYSTEM>
0

>  <SCORE.SYSTEM.CONST>
0

>  <SCORE.SYSTEM.DIHEDRAL>
0

>  <SCORE.SYSTEM.SOLV>
0

>  <SCORE.SYSTEM.norm>
0

>  <SCORE.heavy>
19

>  <SCORE.norm>
-0.899645

>  <RMSD>
0.790

$$$$
ligand
 OpenBabel11021811483D
libRbt.so/2013.1/901 2013/11/27
 19 21  0  0  0  0  0  0  0  0999 V2000
   17.7350   28.6660   33.1969 C   0  0  0  0  0  0  0  0  0  0  0  0
   16.4061   28.3996   33.6783 O   0  0  0  0  0  0  0  0  0  0  0  0
   18.4624   29.6692   34.0982 C   0  0  1  0  0  0  0  0  0  0  0  0
   18.3368   29.2938   35.4695 O   0  0  0  0  0  0  0  0  0  0  0  0
   19.9466   29.7320   33.7911 C   0  0  1  0  0  0  0  0  0  0  0  0
   20.3411   31.1041   33.7531 O   0  0  0  0  0  0  0  0  0  0  0  0
   20.6547   29.0501   34.9399 C   0  0  0  0  0  0  0  0  0  0  0  0
   19.6118   28.9567   36.0388 C   0  0  2  0  0  0  0  0  0  0  0  0
   17.5847   26.2169   39.9301 N   0  0  0  0  0  0  0  0  0  0  0  0
   17.4971   27.5364   39.6353 C   0  0  2  0  0  0  0  0  0  0  0  0
   16.7754   28.3604   40.4240 N   0  0  0  0  0  0  0  0  0  0  0  0
   18.1176   28.0633   38.5586 N   0  0  0  0  0  0  0  0  0  0  0  0
   18.8547   27.3002   37.7264 C   0  0  1  0  0  0  0  0  0  0  0  0
   18.9923   25.9524   37.9661 C   0  0  1  0  0  0  0  0  0  0  0  0
   18.3041   25.3838   39.1513 C   0  0  0  0  0  0  0  0  0  0  0  0
   18.3934   24.1663   39.4238 O   0  0  0  0  0  0  0  0  0  0  0  0
   19.7669   25.4414   36.9938 N   0  0  0  0  0  0  0  0  0  0  0  0
   20.0981   26.4644   36.1725 C   0  0  0  0  0  0  0  0  0  0  0  0
   19.5340   27.5939   36.6295 N   0  0  1  0  0  0  0  0  0  0  0  0
  1  2  1  0  0  0  0
  3  1  1  6  0  0  0
  3  4  1  0  0  0  0
  3  5  1  0  0  0  0
  5  6  1  1  0  0  0
  5  7  1  0  0  0  0
  7  8  1  0  0  0  0
  8  4  1  6  0  0  0
  8 19  1  0  0  0  0
  9 15  1  0  0  0  0
  9 10  1  0  0  0  0
 10 11  1  6  0  0  0
 10 12  1  0  0  0  0
 13 12  1  6  0  0  0
 13 14  1  0  0  0  0
 13 19  1  0  0  0  0
 14 15  1  6  0  0  0
 14 17  1  0  0  0  0
 15 16  2  0  0  0  0
 17 18  1  0  0  0  0
 19 18  1  6  0  0  0
M  END
>  <CHROM.1>
48.41517196,-70.82226694,18.68687460,27.79796428,36.64901046,1.35681769,0.76147917
-0.83974437

>  <Name>
ligand

>  <RI>
0

>  <Rbt.Current_Directory>
/home/itssahil/PROJECTS/Mol_Feturizer/New_Systems/rnas/3SKL

>  <Rbt.Executable>
rbdock ($Id: //depot/dev/client3/rdock/2013.1/src/exe/rbdock.cxx#4 $)

>  <Rbt.Library>
libRbt.so (2013.1, Build901 2013/11/27)

>  <Rbt.Parameter_File>
/export/apps/rDock/src/rDock_2013.1_src/data/scripts/dock_solv.prm

>  <Rbt.Receptor>
prm/pocket_docking_2.prm

>  <SCORE>
-16.3154

>  <SCORE.INTER>
-16.5136

>  <SCORE.INTER.CONST>
1

>  <SCORE.INTER.POLAR>
0

>  <SCORE.INTER.ROT>
2

>  <SCORE.INTER.SOLV>
16.7611

>  <SCORE.INTER.VDW>
-21.5294

>  <SCORE.INTER.norm>
-0.869139

>  <SCORE.INTRA>
0.194173

>  <SCORE.INTRA.DIHEDRAL>
0.15526

>  <SCORE.INTRA.DIHEDRAL.0>
1.50031

>  <SCORE.INTRA.POLAR>
0

>  <SCORE.INTRA.POLAR.0>
0

>  <SCORE.INTRA.REPUL>
0

>  <SCORE.INTRA.REPUL.0>
0

>  <SCORE.INTRA.SOLV>
-0.467874

>  <SCORE.INTRA.SOLV.lig_0>
-37.9941

>  <SCORE.INTRA.VDW>
0.35048

>  <SCORE.INTRA.VDW.0>
-0.964461

>  <SCORE.INTRA.norm>
0.0102196

>  <SCORE.RESTR>
0.00409091

>  <SCORE.RESTR.CAVITY>
0.00409091

>  <SCORE.RESTR.norm>
0.000215311

>  <SCORE.SYSTEM>
0

>  <SCORE.SYSTEM.CONST>
0

>  <SCORE.SYSTEM.DIHEDRAL>
0

>  <SCORE.SYSTEM.SOLV>
0

>  <SCORE.SYSTEM.norm>
0

>  <SCORE.heavy>
19

>  <SCORE.norm>
-0.858704

>  <RMSD>
0.790

$$$$
ligand
 OpenBabel11021811483D
libRbt.so/2013.1/901 2013/11/27
 19 21  0  0  0  0  0  0  0  0999 V2000
   17.9758   28.7776   33.1626 C   0  0  0  0  0  0  0  0  0  0  0  0
   16.6128   28.3557   33.3444 O   0  0  0  0  0  0  0  0  0  0  0  0
   18.3690   29.8457   34.1886 C   0  0  1  0  0  0  0  0  0  0  0  0
   18.1007   29.3899   35.5144 O   0  0  0  0  0  0  0  0  0  0  0  0
   19.8487   30.1731   34.1246 C   0  0  1  0  0  0  0  0  0  0  0  0
   19.9987   31.5924   34.1776 O   0  0  0  0  0  0  0  0  0  0  0  0
   20.4790   29.5673   35.3582 C   0  0  0  0  0  0  0  0  0  0  0  0
   19.3116   29.2468   36.2738 C   0  0  2  0  0  0  0  0  0  0  0  0
   17.7367   26.2155   40.1582 N   0  0  0  0  0  0  0  0  0  0  0  0
   17.5205   27.5310   39.9168 C   0  0  2  0  0  0  0  0  0  0  0  0
   16.7736   28.2627   40.7704 N   0  0  0  0  0  0  0  0  0  0  0  0
   18.0354   28.1449   38.8306 N   0  0  0  0  0  0  0  0  0  0  0  0
   18.7903   27.4767   37.9351 C   0  0  1  0  0  0  0  0  0  0  0  0
   19.0557   26.1391   38.1178 C   0  0  1  0  0  0  0  0  0  0  0  0
   18.4827   25.4744   39.3143 C   0  0  0  0  0  0  0  0  0  0  0  0
   18.6907   24.2612   39.5369 O   0  0  0  0  0  0  0  0  0  0  0  0
   19.8186   25.7297   37.0899 N   0  0  0  0  0  0  0  0  0  0  0  0
   20.0166   26.8038   36.2912 C   0  0  0  0  0  0  0  0  0  0  0  0
   19.3826   27.8641   36.8171 N   0  0  1  0  0  0  0  0  0  0  0  0
  1  2  1  0  0  0  0
  3  1  1  6  0  0  0
  3  4  1  0  0  0  0
  3  5  1  0  0  0  0
  5  6  1  1  0  0  0
  5  7  1  0  0  0  0
  7  8  1  0  0  0  0
  8  4  1  6  0  0  0
  8 19  1  0  0  0  0
  9 15  1  0  0  0  0
  9 10  1  0  0  0  0
 10 11  1  6  0  0  0
 10 12  1  0  0  0  0
 13 12  1  6  0  0  0
 13 14  1  0  0  0  0
 13 19  1  0  0  0  0
 14 15  1  6  0  0  0
 14 17  1  0  0  0  0
 15 16  2  0  0  0  0
 17 18  1  0  0  0  0
 19 18  1  6  0  0  0
M  END
>  <CHROM.1>
53.68997016,-83.84999982,18.66511613,27.98111732,36.82077389,-1.27089529
-1.19322768,2.44290826

>  <Name>
ligand

>  <RI>
0

>  <Rbt.Current_Directory>
/home/itssahil/PROJECTS/Mol_Feturizer/New_Systems/rnas/3SKL

>  <Rbt.Executable>
rbdock ($Id: //depot/dev/client3/rdock/2013.1/src/exe/rbdock.cxx#4 $)

>  <Rbt.Library>
libRbt.so (2013.1, Build901 2013/11/27)

>  <Rbt.Parameter_File>
/export/apps/rDock/src/rDock_2013.1_src/data/scripts/dock_solv.prm

>  <Rbt.Receptor>
prm/pocket_docking_6.prm

>  <SCORE>
-16.7748

>  <SCORE.INTER>
-16.6203

>  <SCORE.INTER.CONST>
1

>  <SCORE.INTER.POLAR>
0

>  <SCORE.INTER.ROT>
2

>  <SCORE.INTER.SOLV>
17.3068

>  <SCORE.INTER.VDW>
-21.7824

>  <SCORE.INTER.norm>
-0.87475

>  <SCORE.INTRA>
-0.154538

>  <SCORE.INTRA.DIHEDRAL>
-0.181231

>  <SCORE.INTRA.DIHEDRAL.0>
1.50031

>  <SCORE.INTRA.POLAR>
0

>  <SCORE.INTRA.POLAR.0>
0

>  <SCORE.INTRA.REPUL>
0

>  <SCORE.INTRA.REPUL.0>
0

>  <SCORE.INTRA.SOLV>
-0.504668

>  <SCORE.INTRA.SOLV.lig_0>
-37.9941

>  <SCORE.INTRA.VDW>
0.188412

>  <SCORE.INTRA.VDW.0>
-0.964461

>  <SCORE.INTRA.norm>
-0.00813357

>  <SCORE.RESTR>
0

>  <SCORE.RESTR.CAVITY>
0

>  <SCORE.RESTR.norm>
0

>  <SCORE.SYSTEM>
0

>  <SCORE.SYSTEM.CONST>
0

>  <SCORE.SYSTEM.DIHEDRAL>
0

>  <SCORE.SYSTEM.SOLV>
0

>  <SCORE.SYSTEM.norm>
0

>  <SCORE.heavy>
19

>  <SCORE.norm>
-0.882884

>  <RMSD>
0.790

$$$$
ligand
 OpenBabel11021811483D
libRbt.so/2013.1/901 2013/11/27
 19 21  0  0  0  0  0  0  0  0999 V2000
   17.9986   28.6688   32.9452 C   0  0  0  0  0  0  0  0  0  0  0  0
   16.6577   28.1494   32.9746 O   0  0  0  0  0  0  0  0  0  0  0  0
   18.1991   29.7522   34.0100 C   0  0  1  0  0  0  0  0  0  0  0  0
   17.8939   29.2421   35.3077 O   0  0  0  0  0  0  0  0  0  0  0  0
   19.6338   30.2428   34.0540 C   0  0  1  0  0  0  0  0  0  0  0  0
   19.6200   31.6686   34.1360 O   0  0  0  0  0  0  0  0  0  0  0  0
   20.2425   29.6850   35.3206 C   0  0  0  0  0  0  0  0  0  0  0  0
   19.0587   29.2182   36.1480 C   0  0  2  0  0  0  0  0  0  0  0  0
   17.9335   26.0926   40.1131 N   0  0  0  0  0  0  0  0  0  0  0  0
   17.6254   27.3938   39.8951 C   0  0  2  0  0  0  0  0  0  0  0  0
   16.8981   28.0790   40.8025 N   0  0  0  0  0  0  0  0  0  0  0  0
   18.0279   28.0387   38.7798 N   0  0  0  0  0  0  0  0  0  0  0  0
   18.7565   27.4174   37.8305 C   0  0  1  0  0  0  0  0  0  0  0  0
   19.1108   26.0971   37.9865 C   0  0  1  0  0  0  0  0  0  0  0  0
   18.6612   25.3978   39.2154 C   0  0  0  0  0  0  0  0  0  0  0  0
   18.9538   24.1983   39.4160 O   0  0  0  0  0  0  0  0  0  0  0  0
   19.8234   25.7349   36.9060 N   0  0  0  0  0  0  0  0  0  0  0  0
   19.9034   26.8203   36.1021 C   0  0  0  0  0  0  0  0  0  0  0  0
   19.2469   27.8409   36.6768 N   0  0  1  0  0  0  0  0  0  0  0  0
  1  2  1  0  0  0  0
  3  1  1  6  0  0  0
  3  4  1  0  0  0  0
  3  5  1  0  0  0  0
  5  6  1  1  0  0  0
  5  7  1  0  0  0  0
  7  8  1  0  0  0  0
  8  4  1  6  0  0  0
  8 19  1  0  0  0  0
  9 15  1  0  0  0  0
  9 10  1  0  0  0  0
 10 11  1  6  0  0  0
 10 12  1  0  0  0  0
 13 12  1  6  0  0  0
 13 14  1  0  0  0  0
 13 19  1  0  0  0  0
 14 15  1  6  0  0  0
 14 17  1  0  0  0  0
 15 16  2  0  0  0  0
 17 18  1  0  0  0  0
 19 18  1  6  0  0  0
M  END
>  <CHROM.1>
57.05148338,-92.37142646,18.62348769,27.92126804,36.69723123,-1.30448920
-1.36733039,2.41482379

>  <Name>
ligand

>  <RI>
0

>  <Rbt.Current_Directory>
/home/itssahil/PROJECTS/Mol_Feturizer/New_Systems/rnas/3SKL

>  <Rbt.Executable>
rbdock ($Id: //depot/dev/client3/rdock/2013.1/src/exe/rbdock.cxx#4 $)

>  <Rbt.Library>
libRbt.so (2013.1, Build901 2013/11/27)

>  <Rbt.Parameter_File>
/export/apps/rDock/src/rDock_2013.1_src/data/scripts/dock_solv.prm

>  <Rbt.Receptor>
prm/pocket_docking_3.prm

>  <SCORE>
-16.7251

>  <SCORE.INTER>
-16.4248

>  <SCORE.INTER.CONST>
1

>  <SCORE.INTER.POLAR>
0

>  <SCORE.INTER.ROT>
2

>  <SCORE.INTER.SOLV>
17.1876

>  <SCORE.INTER.VDW>
-21.6124

>  <SCORE.INTER.norm>
-0.864461

>  <SCORE.INTRA>
-0.300287

>  <SCORE.INTRA.DIHEDRAL>
-0.292399

>  <SCORE.INTRA.DIHEDRAL.0>
1.50031

>  <SCORE.INTRA.POLAR>
0

>  <SCORE.INTRA.POLAR.0>
0

>  <SCORE.INTRA.REPUL>
0

>  <SCORE.INTRA.REPUL.0>
0

>  <SCORE.INTRA.SOLV>
-0.527539

>  <SCORE.INTRA.SOLV.lig_0>
-37.9941

>  <SCORE.INTRA.VDW>
0.109682

>  <SCORE.INTRA.VDW.0>
-0.964461

>  <SCORE.INTRA.norm>
-0.0158046

>  <SCORE.RESTR>
0

>  <SCORE.RESTR.CAVITY>
0

>  <SCORE.RESTR.norm>
0

>  <SCORE.SYSTEM>
0

>  <SCORE.SYSTEM.CONST>
0

>  <SCORE.SYSTEM.DIHEDRAL>
0

>  <SCORE.SYSTEM.SOLV>
0

>  <SCORE.SYSTEM.norm>
0

>  <SCORE.heavy>
19

>  <SCORE.norm>
-0.880266

>  <RMSD>
0.791

$$$$
ligand
 OpenBabel11021811483D
libRbt.so/2013.1/901 2013/11/27
 19 21  0  0  0  0  0  0  0  0999 V2000
   17.8734   29.2225   33.2685 C   0  0  0  0  0  0  0  0  0  0  0  0
   18.4855   27.9236   33.3512 O   0  0  0  0  0  0  0  0  0  0  0  0
   18.3912   30.1528   34.3705 C   0  0  1  0  0  0  0  0  0  0  0  0
   18.1627   29.5804   35.6580 O   0  0  0  0  0  0  0  0  0  0  0  0
   19.8843   30.3928   34.2520 C   0  0  1  0  0  0  0  0  0  0  0  0
   20.1324   31.7871   34.4369 O   0  0  0  0  0  0  0  0  0  0  0  0
   20.5361   29.6253   35.3799 C   0  0  0  0  0  0  0  0  0  0  0  0
   19.3994   29.2851   36.3265 C   0  0  2  0  0  0  0  0  0  0  0  0
   17.7178   25.9539   39.9088 N   0  0  0  0  0  0  0  0  0  0  0  0
   17.5672   27.2965   39.8068 C   0  0  2  0  0  0  0  0  0  0  0  0
   16.8701   27.9732   40.7437 N   0  0  0  0  0  0  0  0  0  0  0  0
   18.0998   27.9920   38.7798 N   0  0  0  0  0  0  0  0  0  0  0  0
   18.8075   27.3822   37.8075 C   0  0  1  0  0  0  0  0  0  0  0  0
   19.0053   26.0212   37.8482 C   0  0  1  0  0  0  0  0  0  0  0  0
   18.4136   25.2668   38.9805 C   0  0  0  0  0  0  0  0  0  0  0  0
   18.5610   24.0282   39.0746 O   0  0  0  0  0  0  0  0  0  0  0  0
   19.7330   25.6817   36.7704 N   0  0  0  0  0  0  0  0  0  0  0  0
   19.9766   26.8208   36.0820 C   0  0  0  0  0  0  0  0  0  0  0  0
   19.4051   27.8521   36.7246 N   0  0  1  0  0  0  0  0  0  0  0  0
  1  2  1  0  0  0  0
  3  1  1  6  0  0  0
  3  4  1  0  0  0  0
  3  5  1  0  0  0  0
  5  6  1  1  0  0  0
  5  7  1  0  0  0  0
  7  8  1  0  0  0  0
  8  4  1  6  0  0  0
  8 19  1  0  0  0  0
  9 15  1  0  0  0  0
  9 10  1  0  0  0  0
 10 11  1  6  0  0  0
 10 12  1  0  0  0  0
 13 12  1  6  0  0  0
 13 14  1  0  0  0  0
 13 19  1  0  0  0  0
 14 15  1  6  0  0  0
 14 17  1  0  0  0  0
 15 16  2  0  0  0  0
 17 18  1  0  0  0  0
 19 18  1  6  0  0  0
M  END
>  <CHROM.1>
-57.14150961,-81.38922822,18.78852475,27.94886501,36.75453541,-1.02466032
-1.24016314,2.76748250

>  <Name>
ligand

>  <RI>
0

>  <Rbt.Current_Directory>
/home/itssahil/PROJECTS/Mol_Feturizer/New_Systems/rnas/3SKL

>  <Rbt.Executable>
rbdock ($Id: //depot/dev/client3/rdock/2013.1/src/exe/rbdock.cxx#4 $)

>  <Rbt.Library>
libRbt.so (2013.1, Build901 2013/11/27)

>  <Rbt.Parameter_File>
/export/apps/rDock/src/rDock_2013.1_src/data/scripts/dock_solv.prm

>  <Rbt.Receptor>
prm/pocket_docking_4.prm

>  <SCORE>
-17.1349

>  <SCORE.INTER>
-16.9197

>  <SCORE.INTER.CONST>
1

>  <SCORE.INTER.POLAR>
0

>  <SCORE.INTER.ROT>
2

>  <SCORE.INTER.SOLV>
16.9792

>  <SCORE.INTER.VDW>
-21.8728

>  <SCORE.INTER.norm>
-0.890509

>  <SCORE.INTRA>
-0.215256

>  <SCORE.INTRA.DIHEDRAL>
-0.290517

>  <SCORE.INTRA.DIHEDRAL.0>
1.50031

>  <SCORE.INTRA.POLAR>
0

>  <SCORE.INTRA.POLAR.0>
0

>  <SCORE.INTRA.REPUL>
0

>  <SCORE.INTRA.REPUL.0>
0

>  <SCORE.INTRA.SOLV>
0.0250558

>  <SCORE.INTRA.SOLV.lig_0>
-37.9941

>  <SCORE.INTRA.VDW>
-0.0825256

>  <SCORE.INTRA.VDW.0>
-0.964461

>  <SCORE.INTRA.norm>
-0.0113293

>  <SCORE.RESTR>
0

>  <SCORE.RESTR.CAVITY>
0

>  <SCORE.RESTR.norm>
0

>  <SCORE.SYSTEM>
0

>  <SCORE.SYSTEM.CONST>
0

>  <SCORE.SYSTEM.DIHEDRAL>
0

>  <SCORE.SYSTEM.SOLV>
0

>  <SCORE.SYSTEM.norm>
0

>  <SCORE.heavy>
19

>  <SCORE.norm>
-0.901839

>  <RMSD>
0.795

$$$$
ligand
 OpenBabel11021811483D
libRbt.so/2013.1/901 2013/11/27
 19 21  0  0  0  0  0  0  0  0999 V2000
   17.8194   28.7772   33.1303 C   0  0  0  0  0  0  0  0  0  0  0  0
   17.9622   29.2142   31.7675 O   0  0  0  0  0  0  0  0  0  0  0  0
   18.4112   29.7988   34.1071 C   0  0  1  0  0  0  0  0  0  0  0  0
   18.2262   29.3686   35.4554 O   0  0  0  0  0  0  0  0  0  0  0  0
   19.9032   29.9789   33.9012 C   0  0  1  0  0  0  0  0  0  0  0  0
   20.1965   31.3763   33.9300 O   0  0  0  0  0  0  0  0  0  0  0  0
   20.5849   29.3109   35.0739 C   0  0  0  0  0  0  0  0  0  0  0  0
   19.4836   29.1049   36.0979 C   0  0  2  0  0  0  0  0  0  0  0  0
   17.6631   26.1625   39.9431 N   0  0  0  0  0  0  0  0  0  0  0  0
   17.5219   27.4874   39.6979 C   0  0  2  0  0  0  0  0  0  0  0  0
   16.7952   28.2577   40.5347 N   0  0  0  0  0  0  0  0  0  0  0  0
   18.0932   28.0728   38.6241 N   0  0  0  0  0  0  0  0  0  0  0  0
   18.8321   27.3654   37.7456 C   0  0  1  0  0  0  0  0  0  0  0  0
   19.0225   26.0158   37.9334 C   0  0  1  0  0  0  0  0  0  0  0  0
   18.3882   25.3827   39.1159 C   0  0  0  0  0  0  0  0  0  0  0  0
   18.5269   24.1604   39.3424 O   0  0  0  0  0  0  0  0  0  0  0  0
   19.7862   25.5664   36.9228 N   0  0  0  0  0  0  0  0  0  0  0  0
   20.0586   26.6282   36.1296 C   0  0  0  0  0  0  0  0  0  0  0  0
   19.4693   27.7207   36.6417 N   0  0  1  0  0  0  0  0  0  0  0  0
  1  2  1  0  0  0  0
  3  1  1  6  0  0  0
  3  4  1  0  0  0  0
  3  5  1  0  0  0  0
  5  6  1  1  0  0  0
  5  7  1  0  0  0  0
  7  8  1  0  0  0  0
  8  4  1  6  0  0  0
  8 19  1  0  0  0  0
  9 15  1  0  0  0  0
  9 10  1  0  0  0  0
 10 11  1  6  0  0  0
 10 12  1  0  0  0  0
 13 12  1  6  0  0  0
 13 14  1  0  0  0  0
 13 19  1  0  0  0  0
 14 15  1  6  0  0  0
 14 17  1  0  0  0  0
 15 16  2  0  0  0  0
 17 18  1  0  0  0  0
 19 18  1  6  0  0  0
M  END
>  <CHROM.1>
178.29781136,-76.60107180,18.76949563,27.93161257,36.55510456,-1.22773486
-1.15837763,2.45488531

>  <Name>
ligand

>  <RI>
0

>  <Rbt.Current_Directory>
/home/itssahil/PROJECTS/Mol_Feturizer/New_Systems/rnas/3SKL

>  <Rbt.Executable>
rbdock ($Id: //depot/dev/client3/rdock/2013.1/src/exe/rbdock.cxx#4 $)

>  <Rbt.Library>
libRbt.so (2013.1, Build901 2013/11/27)

>  <Rbt.Parameter_File>
/export/apps/rDock/src/rDock_2013.1_src/data/scripts/dock_solv.prm

>  <Rbt.Receptor>
prm/pocket_docking_4.prm

>  <SCORE>
-16.9942

>  <SCORE.INTER>
-16.9581

>  <SCORE.INTER.CONST>
1

>  <SCORE.INTER.POLAR>
0

>  <SCORE.INTER.ROT>
2

>  <SCORE.INTER.SOLV>
17.4527

>  <SCORE.INTER.VDW>
-22.0563

>  <SCORE.INTER.norm>
-0.892529

>  <SCORE.INTRA>
-0.0361208

>  <SCORE.INTRA.DIHEDRAL>
-0.307631

>  <SCORE.INTRA.DIHEDRAL.0>
1.50031

>  <SCORE.INTRA.POLAR>
0

>  <SCORE.INTRA.POLAR.0>
0

>  <SCORE.INTRA.REPUL>
0

>  <SCORE.INTRA.REPUL.0>
0

>  <SCORE.INTRA.SOLV>
-0.445507

>  <SCORE.INTRA.SOLV.lig_0>
-37.9941

>  <SCORE.INTRA.VDW>
0.340449

>  <SCORE.INTRA.VDW.0>
-0.964461

>  <SCORE.INTRA.norm>
-0.00190109

>  <SCORE.RESTR>
0

>  <SCORE.RESTR.CAVITY>
0

>  <SCORE.RESTR.norm>
0

>  <SCORE.SYSTEM>
0

>  <SCORE.SYSTEM.CONST>
0

>  <SCORE.SYSTEM.DIHEDRAL>
0

>  <SCORE.SYSTEM.SOLV>
0

>  <SCORE.SYSTEM.norm>
0

>  <SCORE.heavy>
19

>  <SCORE.norm>
-0.89443

>  <RMSD>
0.795

$$$$
ligand
 OpenBabel11021811483D
libRbt.so/2013.1/901 2013/11/27
 19 21  0  0  0  0  0  0  0  0999 V2000
   17.9492   28.7191   33.0321 C   0  0  0  0  0  0  0  0  0  0  0  0
   16.5984   28.2454   33.1712 O   0  0  0  0  0  0  0  0  0  0  0  0
   18.2758   29.7854   34.0829 C   0  0  1  0  0  0  0  0  0  0  0  0
   18.0057   29.2946   35.3958 O   0  0  0  0  0  0  0  0  0  0  0  0
   19.7400   30.1804   34.0511 C   0  0  1  0  0  0  0  0  0  0  0  0
   19.8245   31.6038   34.1309 O   0  0  0  0  0  0  0  0  0  0  0  0
   20.3759   29.5818   35.2854 C   0  0  0  0  0  0  0  0  0  0  0  0
   19.2086   29.1928   36.1743 C   0  0  2  0  0  0  0  0  0  0  0  0
   17.8719   26.0794   40.0829 N   0  0  0  0  0  0  0  0  0  0  0  0
   17.6173   27.3928   39.8691 C   0  0  2  0  0  0  0  0  0  0  0  0
   16.8935   28.0972   40.7645 N   0  0  0  0  0  0  0  0  0  0  0  0
   18.0705   28.0313   38.7696 N   0  0  0  0  0  0  0  0  0  0  0  0
   18.7991   27.3910   37.8329 C   0  0  1  0  0  0  0  0  0  0  0  0
   19.1007   26.0574   37.9857 C   0  0  1  0  0  0  0  0  0  0  0  0
   18.5955   25.3654   39.1971 C   0  0  0  0  0  0  0  0  0  0  0  0
   18.8388   24.1543   39.3941 O   0  0  0  0  0  0  0  0  0  0  0  0
   19.8260   25.6777   36.9198 N   0  0  0  0  0  0  0  0  0  0  0  0
   19.9656   26.7658   36.1277 C   0  0  0  0  0  0  0  0  0  0  0  0
   19.3330   27.8053   36.6953 N   0  0  1  0  0  0  0  0  0  0  0  0
  1  2  1  0  0  0  0
  3  1  1  6  0  0  0
  3  4  1  0  0  0  0
  3  5  1  0  0  0  0
  5  6  1  1  0  0  0
  5  7  1  0  0  0  0
  7  8  1  0  0  0  0
  8  4  1  6  0  0  0
  8 19  1  0  0  0  0
  9 15  1  0  0  0  0
  9 10  1  0  0  0  0
 10 11  1  6  0  0  0
 10 12  1  0  0  0  0
 13 12  1  6  0  0  0
 13 14  1  0  0  0  0
 13 19  1  0  0  0  0
 14 15  1  6  0  0  0
 14 17  1  0  0  0  0
 15 16  2  0  0  0  0
 17 18  1  0  0  0  0
 19 18  1  6  0  0  0
M  END
>  <CHROM.1>
54.43616388,-87.64697194,18.65772253,27.90596244,36.71732990,-1.27577701
-1.30779648,2.45400311

>  <Name>
ligand

>  <RI>
0

>  <Rbt.Current_Directory>
/home/itssahil/PROJECTS/Mol_Feturizer/New_Systems/rnas/3SKL

>  <Rbt.Executable>
rbdock ($Id: //depot/dev/client3/rdock/2013.1/src/exe/rbdock.cxx#4 $)

>  <Rbt.Library>
libRbt.so (2013.1, Build901 2013/11/27)

>  <Rbt.Parameter_File>
/export/apps/rDock/src/rDock_2013.1_src/data/scripts/dock_solv.prm

>  <Rbt.Receptor>
prm/pocket_docking_4.prm

>  <SCORE>
-16.8104

>  <SCORE.INTER>
-16.6062

>  <SCORE.INTER.CONST>
1

>  <SCORE.INTER.POLAR>
0

>  <SCORE.INTER.ROT>
2

>  <SCORE.INTER.SOLV>
17.0566

>  <SCORE.INTER.VDW>
-21.6897

>  <SCORE.INTER.norm>
-0.87401

>  <SCORE.INTRA>
-0.204178

>  <SCORE.INTRA.DIHEDRAL>
-0.21353

>  <SCORE.INTRA.DIHEDRAL.0>
1.50031

>  <SCORE.INTRA.POLAR>
0

>  <SCORE.INTRA.POLAR.0>
0

>  <SCORE.INTRA.REPUL>
0

>  <SCORE.INTRA.REPUL.0>
0

>  <SCORE.INTRA.SOLV>
-0.511014

>  <SCORE.INTRA.SOLV.lig_0>
-37.9941

>  <SCORE.INTRA.VDW>
0.158094

>  <SCORE.INTRA.VDW.0>
-0.964461

>  <SCORE.INTRA.norm>
-0.0107462

>  <SCORE.RESTR>
0

>  <SCORE.RESTR.CAVITY>
0

>  <SCORE.RESTR.norm>
0

>  <SCORE.SYSTEM>
0

>  <SCORE.SYSTEM.CONST>
0

>  <SCORE.SYSTEM.DIHEDRAL>
0

>  <SCORE.SYSTEM.SOLV>
0

>  <SCORE.SYSTEM.norm>
0

>  <SCORE.heavy>
19

>  <SCORE.norm>
-0.884756

>  <RMSD>
0.796

$$$$
ligand
 OpenBabel11021811483D
libRbt.so/2013.1/901 2013/11/27
 19 21  0  0  0  0  0  0  0  0999 V2000
   17.8428   29.2302   33.3220 C   0  0  0  0  0  0  0  0  0  0  0  0
   18.4302   27.9191   33.3890 O   0  0  0  0  0  0  0  0  0  0  0  0
   18.4261   30.1566   34.3942 C   0  0  1  0  0  0  0  0  0  0  0  0
   18.2338   29.6011   35.6949 O   0  0  0  0  0  0  0  0  0  0  0  0
   19.9188   30.3581   34.2157 C   0  0  1  0  0  0  0  0  0  0  0  0
   20.2084   31.7473   34.3775 O   0  0  0  0  0  0  0  0  0  0  0  0
   20.5950   29.5841   35.3247 C   0  0  0  0  0  0  0  0  0  0  0  0
   19.4880   29.2807   36.3178 C   0  0  2  0  0  0  0  0  0  0  0  0
   17.6048   25.9771   39.8247 N   0  0  0  0  0  0  0  0  0  0  0  0
   17.4571   27.3182   39.7013 C   0  0  2  0  0  0  0  0  0  0  0  0
   16.7036   28.0013   40.5887 N   0  0  0  0  0  0  0  0  0  0  0  0
   18.0480   28.0059   38.7014 N   0  0  0  0  0  0  0  0  0  0  0  0
   18.8140   27.3895   37.7787 C   0  0  1  0  0  0  0  0  0  0  0  0
   19.0127   26.0296   37.8438 C   0  0  1  0  0  0  0  0  0  0  0  0
   18.3566   25.2837   38.9460 C   0  0  0  0  0  0  0  0  0  0  0  0
   18.5014   24.0465   39.0602 O   0  0  0  0  0  0  0  0  0  0  0  0
   19.8042   25.6826   36.8145 N   0  0  0  0  0  0  0  0  0  0  0  0
   20.0853   26.8161   36.1312 C   0  0  0  0  0  0  0  0  0  0  0  0
   19.4739   27.8514   36.7289 N   0  0  1  0  0  0  0  0  0  0  0  0
  1  2  1  0  0  0  0
  3  1  1  6  0  0  0
  3  4  1  0  0  0  0
  3  5  1  0  0  0  0
  5  6  1  1  0  0  0
  5  7  1  0  0  0  0
  7  8  1  0  0  0  0
  8  4  1  6  0  0  0
  8 19  1  0  0  0  0
  9 15  1  0  0  0  0
  9 10  1  0  0  0  0
 10 11  1  6  0  0  0
 10 12  1  0  0  0  0
 13 12  1  6  0  0  0
 13 14  1  0  0  0  0
 13 19  1  0  0  0  0
 14 15  1  6  0  0  0
 14 17  1  0  0  0  0
 15 16  2  0  0  0  0
 17 18  1  0  0  0  0
 19 18  1  6  0  0  0
M  END
>  <CHROM.1>
-57.42179347,-75.52426177,18.78758861,27.95076589,36.73329999,-1.07212608
-1.16730011,2.71694906

>  <Name>
ligand

>  <RI>
0

>  <Rbt.Current_Directory>
/home/itssahil/PROJECTS/Mol_Feturizer/New_Systems/rnas/3SKL

>  <Rbt.Executable>
rbdock ($Id: //depot/dev/client3/rdock/2013.1/src/exe/rbdock.cxx#4 $)

>  <Rbt.Library>
libRbt.so (2013.1, Build901 2013/11/27)

>  <Rbt.Parameter_File>
/export/apps/rDock/src/rDock_2013.1_src/data/scripts/dock_solv.prm

>  <Rbt.Receptor>
prm/pocket_docking_5.prm

>  <SCORE>
-17.0763

>  <SCORE.INTER>
-16.9246

>  <SCORE.INTER.CONST>
1

>  <SCORE.INTER.POLAR>
0

>  <SCORE.INTER.ROT>
2

>  <SCORE.INTER.SOLV>
17.4995

>  <SCORE.INTER.VDW>
-22.0496

>  <SCORE.INTER.norm>
-0.89077

>  <SCORE.INTRA>
-0.15171

>  <SCORE.INTRA.DIHEDRAL>
-0.29189

>  <SCORE.INTRA.DIHEDRAL.0>
1.50031

>  <SCORE.INTRA.POLAR>
0

>  <SCORE.INTRA.POLAR.0>
0

>  <SCORE.INTRA.REPUL>
0

>  <SCORE.INTRA.REPUL.0>
0

>  <SCORE.INTRA.SOLV>
0.0195611

>  <SCORE.INTRA.SOLV.lig_0>
-37.9941

>  <SCORE.INTRA.VDW>
-0.0155455

>  <SCORE.INTRA.VDW.0>
-0.964461

>  <SCORE.INTRA.norm>
-0.00798474

>  <SCORE.RESTR>
0

>  <SCORE.RESTR.CAVITY>
0

>  <SCORE.RESTR.norm>
0

>  <SCORE.SYSTEM>
0

>  <SCORE.SYSTEM.CONST>
0

>  <SCORE.SYSTEM.DIHEDRAL>
0

>  <SCORE.SYSTEM.SOLV>
0

>  <SCORE.SYSTEM.norm>
0

>  <SCORE.heavy>
19

>  <SCORE.norm>
-0.898755

>  <RMSD>
0.796

$$$$
ligand
 OpenBabel11021811483D
libRbt.so/2013.1/901 2013/11/27
 19 21  0  0  0  0  0  0  0  0999 V2000
   17.8546   28.8202   33.0962 C   0  0  0  0  0  0  0  0  0  0  0  0
   18.0477   29.2496   31.7372 O   0  0  0  0  0  0  0  0  0  0  0  0
   18.4312   29.8360   34.0879 C   0  0  1  0  0  0  0  0  0  0  0  0
   18.2224   29.3995   35.4308 O   0  0  0  0  0  0  0  0  0  0  0  0
   19.9269   30.0144   33.9086 C   0  0  1  0  0  0  0  0  0  0  0  0
   20.2220   31.4112   33.9492 O   0  0  0  0  0  0  0  0  0  0  0  0
   20.5872   29.3396   35.0895 C   0  0  0  0  0  0  0  0  0  0  0  0
   19.4682   29.1306   36.0935 C   0  0  2  0  0  0  0  0  0  0  0  0
   17.6209   26.1835   39.9223 N   0  0  0  0  0  0  0  0  0  0  0  0
   17.4907   27.5107   39.6837 C   0  0  2  0  0  0  0  0  0  0  0  0
   16.7696   28.2826   40.5239 N   0  0  0  0  0  0  0  0  0  0  0  0
   18.0674   28.0969   38.6133 N   0  0  0  0  0  0  0  0  0  0  0  0
   18.8012   27.3881   37.7318 C   0  0  1  0  0  0  0  0  0  0  0  0
   18.9806   26.0360   37.9128 C   0  0  1  0  0  0  0  0  0  0  0  0
   18.3403   25.4020   39.0917 C   0  0  0  0  0  0  0  0  0  0  0  0
   18.4689   24.1775   39.3120 O   0  0  0  0  0  0  0  0  0  0  0  0
   19.7414   25.5856   36.9005 N   0  0  0  0  0  0  0  0  0  0  0  0
   20.0230   26.6492   36.1130 C   0  0  0  0  0  0  0  0  0  0  0  0
   19.4423   27.7437   36.6302 N   0  0  1  0  0  0  0  0  0  0  0  0
  1  2  1  0  0  0  0
  3  1  1  6  0  0  0
  3  4  1  0  0  0  0
  3  5  1  0  0  0  0
  5  6  1  1  0  0  0
  5  7  1  0  0  0  0
  7  8  1  0  0  0  0
  8  4  1  6  0  0  0
  8 19  1  0  0  0  0
  9 15  1  0  0  0  0
  9 10  1  0  0  0  0
 10 11  1  6  0  0  0
 10 12  1  0  0  0  0
 13 12  1  6  0  0  0
 13 14  1  0  0  0  0
 13 19  1  0  0  0  0
 14 15  1  6  0  0  0
 14 17  1  0  0  0  0
 15 16  2  0  0  0  0
 17 18  1  0  0  0  0
 19 18  1  6  0  0  0
M  END
>  <CHROM.1>
179.56885578,-77.61024780,18.75843372,27.95853194,36.54105374,-1.18308198
-1.17492482,2.50078393

>  <Name>
ligand

>  <RI>
0

>  <Rbt.Current_Directory>
/home/itssahil/PROJECTS/Mol_Feturizer/New_Systems/rnas/3SKL

>  <Rbt.Executable>
rbdock ($Id: //depot/dev/client3/rdock/2013.1/src/exe/rbdock.cxx#4 $)

>  <Rbt.Library>
libRbt.so (2013.1, Build901 2013/11/27)

>  <Rbt.Parameter_File>
/export/apps/rDock/src/rDock_2013.1_src/data/scripts/dock_solv.prm

>  <Rbt.Receptor>
prm/pocket_docking_4.prm

>  <SCORE>
-17.0465

>  <SCORE.INTER>
-17.0061

>  <SCORE.INTER.CONST>
1

>  <SCORE.INTER.POLAR>
0

>  <SCORE.INTER.ROT>
2

>  <SCORE.INTER.SOLV>
17.5515

>  <SCORE.INTER.VDW>
-22.1212

>  <SCORE.INTER.norm>
-0.895058

>  <SCORE.INTRA>
-0.0404091

>  <SCORE.INTRA.DIHEDRAL>
-0.317846

>  <SCORE.INTRA.DIHEDRAL.0>
1.50031

>  <SCORE.INTRA.POLAR>
0

>  <SCORE.INTRA.POLAR.0>
0

>  <SCORE.INTRA.REPUL>
0

>  <SCORE.INTRA.REPUL.0>
0

>  <SCORE.INTRA.SOLV>
-0.440123

>  <SCORE.INTRA.SOLV.lig_0>
-37.9941

>  <SCORE.INTRA.VDW>
0.338575

>  <SCORE.INTRA.VDW.0>
-0.964461

>  <SCORE.INTRA.norm>
-0.00212679

>  <SCORE.RESTR>
0

>  <SCORE.RESTR.CAVITY>
0

>  <SCORE.RESTR.norm>
0

>  <SCORE.SYSTEM>
0

>  <SCORE.SYSTEM.CONST>
0

>  <SCORE.SYSTEM.DIHEDRAL>
0

>  <SCORE.SYSTEM.SOLV>
0

>  <SCORE.SYSTEM.norm>
0

>  <SCORE.heavy>
19

>  <SCORE.norm>
-0.897185

>  <RMSD>
0.799

$$$$
ligand
 OpenBabel11021811483D
libRbt.so/2013.1/901 2013/11/27
 19 21  0  0  0  0  0  0  0  0999 V2000
   17.8911   28.8169   33.0972 C   0  0  0  0  0  0  0  0  0  0  0  0
   18.1037   29.2475   31.7414 O   0  0  0  0  0  0  0  0  0  0  0  0
   18.4543   29.8314   34.0979 C   0  0  1  0  0  0  0  0  0  0  0  0
   18.2322   29.3906   35.4372 O   0  0  0  0  0  0  0  0  0  0  0  0
   19.9513   30.0144   33.9352 C   0  0  1  0  0  0  0  0  0  0  0  0
   20.2422   31.4118   33.9829 O   0  0  0  0  0  0  0  0  0  0  0  0
   20.6007   29.3380   35.1213 C   0  0  0  0  0  0  0  0  0  0  0  0
   19.4715   29.1231   36.1125 C   0  0  2  0  0  0  0  0  0  0  0  0
   17.6196   26.1670   39.9322 N   0  0  0  0  0  0  0  0  0  0  0  0
   17.4913   27.4952   39.6976 C   0  0  2  0  0  0  0  0  0  0  0  0
   16.7712   28.2656   40.5400 N   0  0  0  0  0  0  0  0  0  0  0  0
   18.0690   28.0838   38.6291 N   0  0  0  0  0  0  0  0  0  0  0  0
   18.8020   27.3766   37.7455 C   0  0  1  0  0  0  0  0  0  0  0  0
   18.9794   26.0237   37.9225 C   0  0  1  0  0  0  0  0  0  0  0  0
   18.3380   25.3871   39.0993 C   0  0  0  0  0  0  0  0  0  0  0  0
   18.4649   24.1618   39.3159 O   0  0  0  0  0  0  0  0  0  0  0  0
   19.7397   25.5753   36.9089 N   0  0  0  0  0  0  0  0  0  0  0  0
   20.0229   26.6409   36.1246 C   0  0  0  0  0  0  0  0  0  0  0  0
   19.4436   27.7347   36.6451 N   0  0  1  0  0  0  0  0  0  0  0  0
  1  2  1  0  0  0  0
  3  1  1  6  0  0  0
  3  4  1  0  0  0  0
  3  5  1  0  0  0  0
  5  6  1  1  0  0  0
  5  7  1  0  0  0  0
  7  8  1  0  0  0  0
  8  4  1  6  0  0  0
  8 19  1  0  0  0  0
  9 15  1  0  0  0  0
  9 10  1  0  0  0  0
 10 11  1  6  0  0  0
 10 12  1  0  0  0  0
 13 12  1  6  0  0  0
 13 14  1  0  0  0  0
 13 19  1  0  0  0  0
 14 15  1  6  0  0  0
 14 17  1  0  0  0  0
 15 16  2  0  0  0  0
 17 18  1  0  0  0  0
 19 18  1  6  0  0  0
M  END
>  <CHROM.1>
179.85782780,-78.26305957,18.76866331,27.94965318,36.55462084,-1.16364651
-1.18199610,2.52167890

>  <Name>
ligand

>  <RI>
0

>  <Rbt.Current_Directory>
/home/itssahil/PROJECTS/Mol_Feturizer/New_Systems/rnas/3SKL

>  <Rbt.Executable>
rbdock ($Id: //depot/dev/client3/rdock/2013.1/src/exe/rbdock.cxx#4 $)

>  <Rbt.Library>
libRbt.so (2013.1, Build901 2013/11/27)

>  <Rbt.Parameter_File>
/export/apps/rDock/src/rDock_2013.1_src/data/scripts/dock_solv.prm

>  <Rbt.Receptor>
prm/pocket_docking_3.prm

>  <SCORE>
-17.0243

>  <SCORE.INTER>
-16.9791

>  <SCORE.INTER.CONST>
1

>  <SCORE.INTER.POLAR>
0

>  <SCORE.INTER.ROT>
2

>  <SCORE.INTER.SOLV>
17.5191

>  <SCORE.INTER.VDW>
-22.0924

>  <SCORE.INTER.norm>
-0.893638

>  <SCORE.INTRA>
-0.0451534

>  <SCORE.INTRA.DIHEDRAL>
-0.318846

>  <SCORE.INTRA.DIHEDRAL.0>
1.50031

>  <SCORE.INTRA.POLAR>
0

>  <SCORE.INTRA.POLAR.0>
0

>  <SCORE.INTRA.REPUL>
0

>  <SCORE.INTRA.REPUL.0>
0

>  <SCORE.INTRA.SOLV>
-0.439189

>  <SCORE.INTRA.SOLV.lig_0>
-37.9941

>  <SCORE.INTRA.VDW>
0.333864

>  <SCORE.INTRA.VDW.0>
-0.964461

>  <SCORE.INTRA.norm>
-0.00237649

>  <SCORE.RESTR>
0

>  <SCORE.RESTR.CAVITY>
0

>  <SCORE.RESTR.norm>
0

>  <SCORE.SYSTEM>
0

>  <SCORE.SYSTEM.CONST>
0

>  <SCORE.SYSTEM.DIHEDRAL>
0

>  <SCORE.SYSTEM.SOLV>
0

>  <SCORE.SYSTEM.norm>
0

>  <SCORE.heavy>
19

>  <SCORE.norm>
-0.896014

>  <RMSD>
0.800

$$$$
ligand
 OpenBabel11021811483D
libRbt.so/2013.1/901 2013/11/27
 19 21  0  0  0  0  0  0  0  0999 V2000
   18.0361   28.7840   33.0441 C   0  0  0  0  0  0  0  0  0  0  0  0
   16.6798   28.3233   33.1733 O   0  0  0  0  0  0  0  0  0  0  0  0
   18.3728   29.8292   34.1129 C   0  0  1  0  0  0  0  0  0  0  0  0
   18.0713   29.3293   35.4154 O   0  0  0  0  0  0  0  0  0  0  0  0
   19.8465   30.1885   34.1075 C   0  0  1  0  0  0  0  0  0  0  0  0
   19.9644   31.6084   34.2062 O   0  0  0  0  0  0  0  0  0  0  0  0
   20.4491   29.5596   35.3434 C   0  0  0  0  0  0  0  0  0  0  0  0
   19.2596   29.1886   36.2101 C   0  0  2  0  0  0  0  0  0  0  0  0
   17.8102   26.0677   40.0724 N   0  0  0  0  0  0  0  0  0  0  0  0
   17.5930   27.3900   39.8723 C   0  0  2  0  0  0  0  0  0  0  0  0
   16.8821   28.1034   40.7708 N   0  0  0  0  0  0  0  0  0  0  0  0
   18.0714   28.0286   38.7836 N   0  0  0  0  0  0  0  0  0  0  0  0
   18.7890   27.3796   37.8444 C   0  0  1  0  0  0  0  0  0  0  0  0
   19.0531   26.0365   37.9837 C   0  0  1  0  0  0  0  0  0  0  0  0
   18.5204   25.3445   39.1832 C   0  0  0  0  0  0  0  0  0  0  0  0
   18.7293   24.1251   39.3676 O   0  0  0  0  0  0  0  0  0  0  0  0
   19.7755   25.6495   36.9184 N   0  0  0  0  0  0  0  0  0  0  0  0
   19.9504   26.7425   36.1402 C   0  0  0  0  0  0  0  0  0  0  0  0
   19.3423   27.7923   36.7155 N   0  0  1  0  0  0  0  0  0  0  0  0
  1  2  1  0  0  0  0
  3  1  1  6  0  0  0
  3  4  1  0  0  0  0
  3  5  1  0  0  0  0
  5  6  1  1  0  0  0
  5  7  1  0  0  0  0
  7  8  1  0  0  0  0
  8  4  1  6  0  0  0
  8 19  1  0  0  0  0
  9 15  1  0  0  0  0
  9 10  1  0  0  0  0
 10 11  1  6  0  0  0
 10 12  1  0  0  0  0
 13 12  1  6  0  0  0
 13 14  1  0  0  0  0
 13 19  1  0  0  0  0
 14 15  1  6  0  0  0
 14 17  1  0  0  0  0
 15 16  2  0  0  0  0
 17 18  1  0  0  0  0
 19 18  1  6  0  0  0
M  END
>  <CHROM.1>
53.34020743,-88.11844008,18.67585533,27.90972552,36.73355301,-1.14467172
-1.32770201,2.59305923

>  <Name>
ligand

>  <RI>
0

>  <Rbt.Current_Directory>
/home/itssahil/PROJECTS/Mol_Feturizer/New_Systems/rnas/3SKL

>  <Rbt.Executable>
rbdock ($Id: //depot/dev/client3/rdock/2013.1/src/exe/rbdock.cxx#4 $)

>  <Rbt.Library>
libRbt.so (2013.1, Build901 2013/11/27)

>  <Rbt.Parameter_File>
/export/apps/rDock/src/rDock_2013.1_src/data/scripts/dock_solv.prm

>  <Rbt.Receptor>
prm/pocket_docking_4.prm

>  <SCORE>
-16.8024

>  <SCORE.INTER>
-16.62

>  <SCORE.INTER.CONST>
1

>  <SCORE.INTER.POLAR>
0

>  <SCORE.INTER.ROT>
2

>  <SCORE.INTER.SOLV>
16.985

>  <SCORE.INTER.VDW>
-21.675

>  <SCORE.INTER.norm>
-0.874737

>  <SCORE.INTRA>
-0.182401

>  <SCORE.INTRA.DIHEDRAL>
-0.166289

>  <SCORE.INTRA.DIHEDRAL.0>
1.50031

>  <SCORE.INTRA.POLAR>
0

>  <SCORE.INTRA.POLAR.0>
0

>  <SCORE.INTRA.REPUL>
0

>  <SCORE.INTRA.REPUL.0>
0

>  <SCORE.INTRA.SOLV>
-0.505616

>  <SCORE.INTRA.SOLV.lig_0>
-37.9941

>  <SCORE.INTRA.VDW>
0.153551

>  <SCORE.INTRA.VDW.0>
-0.964461

>  <SCORE.INTRA.norm>
-0.00960007

>  <SCORE.RESTR>
0

>  <SCORE.RESTR.CAVITY>
0

>  <SCORE.RESTR.norm>
0

>  <SCORE.SYSTEM>
0

>  <SCORE.SYSTEM.CONST>
0

>  <SCORE.SYSTEM.DIHEDRAL>
0

>  <SCORE.SYSTEM.SOLV>
0

>  <SCORE.SYSTEM.norm>
0

>  <SCORE.heavy>
19

>  <SCORE.norm>
-0.884337

>  <RMSD>
0.800

$$$$
ligand
 OpenBabel11021811483D
libRbt.so/2013.1/901 2013/11/27
 19 21  0  0  0  0  0  0  0  0999 V2000
   17.9189   28.8145   33.0518 C   0  0  0  0  0  0  0  0  0  0  0  0
   18.1181   29.2627   31.6998 O   0  0  0  0  0  0  0  0  0  0  0  0
   18.4605   29.8325   34.0609 C   0  0  1  0  0  0  0  0  0  0  0  0
   18.2216   29.3898   35.3967 O   0  0  0  0  0  0  0  0  0  0  0  0
   19.9585   30.0254   33.9203 C   0  0  1  0  0  0  0  0  0  0  0  0
   20.2393   31.4248   33.9725 O   0  0  0  0  0  0  0  0  0  0  0  0
   20.5948   29.3530   35.1157 C   0  0  0  0  0  0  0  0  0  0  0  0
   19.4526   29.1304   36.0902 C   0  0  2  0  0  0  0  0  0  0  0  0
   17.6443   26.1800   39.9351 N   0  0  0  0  0  0  0  0  0  0  0  0
   17.5188   27.5089   39.7034 C   0  0  2  0  0  0  0  0  0  0  0  0
   16.8152   28.2820   40.5572 N   0  0  0  0  0  0  0  0  0  0  0  0
   18.0832   28.0957   38.6268 N   0  0  0  0  0  0  0  0  0  0  0  0
   18.7993   27.3857   37.7317 C   0  0  1  0  0  0  0  0  0  0  0  0
   18.9729   26.0319   37.9049 C   0  0  1  0  0  0  0  0  0  0  0  0
   18.3464   25.3974   39.0908 C   0  0  0  0  0  0  0  0  0  0  0  0
   18.4706   24.1712   39.3046 O   0  0  0  0  0  0  0  0  0  0  0  0
   19.7157   25.5807   36.8797 N   0  0  0  0  0  0  0  0  0  0  0  0
   19.9922   26.6455   36.0921 C   0  0  0  0  0  0  0  0  0  0  0  0
   19.4260   27.7417   36.6220 N   0  0  1  0  0  0  0  0  0  0  0  0
  1  2  1  0  0  0  0
  3  1  1  6  0  0  0
  3  4  1  0  0  0  0
  3  5  1  0  0  0  0
  5  6  1  1  0  0  0
  5  7  1  0  0  0  0
  7  8  1  0  0  0  0
  8  4  1  6  0  0  0
  8 19  1  0  0  0  0
  9 15  1  0  0  0  0
  9 10  1  0  0  0  0
 10 11  1  6  0  0  0
 10 12  1  0  0  0  0
 13 12  1  6  0  0  0
 13 14  1  0  0  0  0
 13 19  1  0  0  0  0
 14 15  1  6  0  0  0
 14 17  1  0  0  0  0
 15 16  2  0  0  0  0
 17 18  1  0  0  0  0
 19 18  1  6  0  0  0
M  END
>  <CHROM.1>
178.38513403,-80.09400002,18.77199741,27.95853511,36.53691766,-1.13670836
-1.21110533,2.54763405

>  <Name>
ligand

>  <RI>
0

>  <Rbt.Current_Directory>
/home/itssahil/PROJECTS/Mol_Feturizer/New_Systems/rnas/3SKL

>  <Rbt.Executable>
rbdock ($Id: //depot/dev/client3/rdock/2013.1/src/exe/rbdock.cxx#4 $)

>  <Rbt.Library>
libRbt.so (2013.1, Build901 2013/11/27)

>  <Rbt.Parameter_File>
/export/apps/rDock/src/rDock_2013.1_src/data/scripts/dock_solv.prm

>  <Rbt.Receptor>
prm/pocket_docking_4.prm

>  <SCORE>
-17.0183

>  <SCORE.INTER>
-16.9439

>  <SCORE.INTER.CONST>
1

>  <SCORE.INTER.POLAR>
0

>  <SCORE.INTER.ROT>
2

>  <SCORE.INTER.SOLV>
17.4474

>  <SCORE.INTER.VDW>
-22.045

>  <SCORE.INTER.norm>
-0.891784

>  <SCORE.INTRA>
-0.074433

>  <SCORE.INTRA.DIHEDRAL>
-0.311182

>  <SCORE.INTRA.DIHEDRAL.0>
1.50031

>  <SCORE.INTRA.POLAR>
0

>  <SCORE.INTRA.POLAR.0>
0

>  <SCORE.INTRA.REPUL>
0

>  <SCORE.INTRA.REPUL.0>
0

>  <SCORE.INTRA.SOLV>
-0.447554

>  <SCORE.INTRA.SOLV.lig_0>
-37.9941

>  <SCORE.INTRA.VDW>
0.304935

>  <SCORE.INTRA.VDW.0>
-0.964461

>  <SCORE.INTRA.norm>
-0.00391753

>  <SCORE.RESTR>
0

>  <SCORE.RESTR.CAVITY>
0

>  <SCORE.RESTR.norm>
0

>  <SCORE.SYSTEM>
0

>  <SCORE.SYSTEM.CONST>
0

>  <SCORE.SYSTEM.DIHEDRAL>
0

>  <SCORE.SYSTEM.SOLV>
0

>  <SCORE.SYSTEM.norm>
0

>  <SCORE.heavy>
19

>  <SCORE.norm>
-0.895701

>  <RMSD>
0.801

$$$$
ligand
 OpenBabel11021811483D
libRbt.so/2013.1/901 2013/11/27
 19 21  0  0  0  0  0  0  0  0999 V2000
   18.0516   28.7553   32.9533 C   0  0  0  0  0  0  0  0  0  0  0  0
   16.7104   28.2370   32.9907 O   0  0  0  0  0  0  0  0  0  0  0  0
   18.2634   29.8285   34.0262 C   0  0  1  0  0  0  0  0  0  0  0  0
   17.9482   29.3134   35.3195 O   0  0  0  0  0  0  0  0  0  0  0  0
   19.7042   30.3000   34.0772 C   0  0  1  0  0  0  0  0  0  0  0  0
   19.7088   31.7253   34.1691 O   0  0  0  0  0  0  0  0  0  0  0  0
   20.3023   29.7255   35.3413 C   0  0  0  0  0  0  0  0  0  0  0  0
   19.1104   29.2685   36.1625 C   0  0  2  0  0  0  0  0  0  0  0  0
   17.8992   26.1184   40.0827 N   0  0  0  0  0  0  0  0  0  0  0  0
   17.6050   27.4239   39.8713 C   0  0  2  0  0  0  0  0  0  0  0  0
   16.8694   28.1073   40.7733 N   0  0  0  0  0  0  0  0  0  0  0  0
   18.0297   28.0750   38.7679 N   0  0  0  0  0  0  0  0  0  0  0  0
   18.7678   27.4559   37.8245 C   0  0  1  0  0  0  0  0  0  0  0  0
   19.1090   26.1314   37.9744 C   0  0  1  0  0  0  0  0  0  0  0  0
   18.6349   25.4253   39.1902 C   0  0  0  0  0  0  0  0  0  0  0  0
   18.9147   24.2218   39.3847 O   0  0  0  0  0  0  0  0  0  0  0  0
   19.8351   25.7726   36.9019 N   0  0  0  0  0  0  0  0  0  0  0  0
   19.9363   26.8642   36.1087 C   0  0  0  0  0  0  0  0  0  0  0  0
   19.2793   27.8852   36.6821 N   0  0  1  0  0  0  0  0  0  0  0  0
  1  2  1  0  0  0  0
  3  1  1  6  0  0  0
  3  4  1  0  0  0  0
  3  5  1  0  0  0  0
  5  6  1  1  0  0  0
  5  7  1  0  0  0  0
  7  8  1  0  0  0  0
  8  4  1  6  0  0  0
  8 19  1  0  0  0  0
  9 15  1  0  0  0  0
  9 10  1  0  0  0  0
 10 11  1  6  0  0  0
 10 12  1  0  0  0  0
 13 12  1  6  0  0  0
 13 14  1  0  0  0  0
 13 19  1  0  0  0  0
 14 15  1  6  0  0  0
 14 17  1  0  0  0  0
 15 16  2  0  0  0  0
 17 18  1  0  0  0  0
 19 18  1  6  0  0  0
M  END
>  <CHROM.1>
56.07191991,-91.58238920,18.64729139,27.96916781,36.69673118,-1.25192657
-1.35336544,2.47558302

>  <Name>
ligand

>  <RI>
0

>  <Rbt.Current_Directory>
/home/itssahil/PROJECTS/Mol_Feturizer/New_Systems/rnas/3SKL

>  <Rbt.Executable>
rbdock ($Id: //depot/dev/client3/rdock/2013.1/src/exe/rbdock.cxx#4 $)

>  <Rbt.Library>
libRbt.so (2013.1, Build901 2013/11/27)

>  <Rbt.Parameter_File>
/export/apps/rDock/src/rDock_2013.1_src/data/scripts/dock_solv.prm

>  <Rbt.Receptor>
prm/pocket_docking_5.prm

>  <SCORE>
-16.7591

>  <SCORE.INTER>
-16.4849

>  <SCORE.INTER.CONST>
1

>  <SCORE.INTER.POLAR>
0

>  <SCORE.INTER.ROT>
2

>  <SCORE.INTER.SOLV>
17.24

>  <SCORE.INTER.VDW>
-21.6699

>  <SCORE.INTER.norm>
-0.867626

>  <SCORE.INTRA>
-0.274214

>  <SCORE.INTRA.DIHEDRAL>
-0.268596

>  <SCORE.INTRA.DIHEDRAL.0>
1.50031

>  <SCORE.INTRA.POLAR>
0

>  <SCORE.INTRA.POLAR.0>
0

>  <SCORE.INTRA.REPUL>
0

>  <SCORE.INTRA.REPUL.0>
0

>  <SCORE.INTRA.SOLV>
-0.522017

>  <SCORE.INTRA.SOLV.lig_0>
-37.9941

>  <SCORE.INTRA.VDW>
0.121092

>  <SCORE.INTRA.VDW.0>
-0.964461

>  <SCORE.INTRA.norm>
-0.0144323

>  <SCORE.RESTR>
0

>  <SCORE.RESTR.CAVITY>
0

>  <SCORE.RESTR.norm>
0

>  <SCORE.SYSTEM>
0

>  <SCORE.SYSTEM.CONST>
0

>  <SCORE.SYSTEM.DIHEDRAL>
0

>  <SCORE.SYSTEM.SOLV>
0

>  <SCORE.SYSTEM.norm>
0

>  <SCORE.heavy>
19

>  <SCORE.norm>
-0.882059

>  <RMSD>
0.801

$$$$
ligand
 OpenBabel11021811483D
libRbt.so/2013.1/901 2013/11/27
 19 21  0  0  0  0  0  0  0  0999 V2000
   17.8357   28.8196   33.0959 C   0  0  0  0  0  0  0  0  0  0  0  0
   18.0009   29.2503   31.7336 O   0  0  0  0  0  0  0  0  0  0  0  0
   18.4314   29.8353   34.0765 C   0  0  1  0  0  0  0  0  0  0  0  0
   18.2377   29.4045   35.4235 O   0  0  0  0  0  0  0  0  0  0  0  0
   19.9255   30.0042   33.8769 C   0  0  1  0  0  0  0  0  0  0  0  0
   20.2294   31.3994   33.9089 O   0  0  0  0  0  0  0  0  0  0  0  0
   20.5974   29.3293   35.0513 C   0  0  0  0  0  0  0  0  0  0  0  0
   19.4904   29.1303   36.0706 C   0  0  2  0  0  0  0  0  0  0  0  0
   17.6343   26.1968   39.9056 N   0  0  0  0  0  0  0  0  0  0  0  0
   17.5044   27.5232   39.6618 C   0  0  2  0  0  0  0  0  0  0  0  0
   16.7812   28.2980   40.4975 N   0  0  0  0  0  0  0  0  0  0  0  0
   18.0837   28.1056   38.5908 N   0  0  0  0  0  0  0  0  0  0  0  0
   18.8198   27.3936   37.7136 C   0  0  1  0  0  0  0  0  0  0  0  0
   18.9989   26.0422   37.9000 C   0  0  1  0  0  0  0  0  0  0  0  0
   18.3558   25.4125   39.0795 C   0  0  0  0  0  0  0  0  0  0  0  0
   18.4841   24.1888   39.3046 O   0  0  0  0  0  0  0  0  0  0  0  0
   19.7622   25.5883   36.8912 N   0  0  0  0  0  0  0  0  0  0  0  0
   20.0456   26.6490   36.1005 C   0  0  0  0  0  0  0  0  0  0  0  0
   19.4634   27.7454   36.6123 N   0  0  1  0  0  0  0  0  0  0  0  0
  1  2  1  0  0  0  0
  3  1  1  6  0  0  0
  3  4  1  0  0  0  0
  3  5  1  0  0  0  0
  5  6  1  1  0  0  0
  5  7  1  0  0  0  0
  7  8  1  0  0  0  0
  8  4  1  6  0  0  0
  8 19  1  0  0  0  0
  9 15  1  0  0  0  0
  9 10  1  0  0  0  0
 10 11  1  6  0  0  0
 10 12  1  0  0  0  0
 13 12  1  6  0  0  0
 13 14  1  0  0  0  0
 13 19  1  0  0  0  0
 14 15  1  6  0  0  0
 14 17  1  0  0  0  0
 15 16  2  0  0  0  0
 17 18  1  0  0  0  0
 19 18  1  6  0  0  0
M  END
>  <CHROM.1>
178.95536282,-76.65104043,18.76700889,27.96151796,36.52356031,-1.20384723
-1.16232637,2.47818237

>  <Name>
ligand

>  <RI>
0

>  <Rbt.Current_Directory>
/home/itssahil/PROJECTS/Mol_Feturizer/New_Systems/rnas/3SKL

>  <Rbt.Executable>
rbdock ($Id: //depot/dev/client3/rdock/2013.1/src/exe/rbdock.cxx#4 $)

>  <Rbt.Library>
libRbt.so (2013.1, Build901 2013/11/27)

>  <Rbt.Parameter_File>
/export/apps/rDock/src/rDock_2013.1_src/data/scripts/dock_solv.prm

>  <Rbt.Receptor>
prm/pocket_docking_3.prm

>  <SCORE>
-17.0651

>  <SCORE.INTER>
-17.031

>  <SCORE.INTER.CONST>
1

>  <SCORE.INTER.POLAR>
0

>  <SCORE.INTER.ROT>
2

>  <SCORE.INTER.SOLV>
17.4941

>  <SCORE.INTER.VDW>
-22.1187

>  <SCORE.INTER.norm>
-0.89637

>  <SCORE.INTRA>
-0.0340901

>  <SCORE.INTRA.DIHEDRAL>
-0.313998

>  <SCORE.INTRA.DIHEDRAL.0>
1.50031

>  <SCORE.INTRA.POLAR>
0

>  <SCORE.INTRA.POLAR.0>
0

>  <SCORE.INTRA.REPUL>
0

>  <SCORE.INTRA.REPUL.0>
0

>  <SCORE.INTRA.SOLV>
-0.44236

>  <SCORE.INTRA.SOLV.lig_0>
-37.9941

>  <SCORE.INTRA.VDW>
0.344089

>  <SCORE.INTRA.VDW.0>
-0.964461

>  <SCORE.INTRA.norm>
-0.00179421

>  <SCORE.RESTR>
0

>  <SCORE.RESTR.CAVITY>
0

>  <SCORE.RESTR.norm>
0

>  <SCORE.SYSTEM>
0

>  <SCORE.SYSTEM.CONST>
0

>  <SCORE.SYSTEM.DIHEDRAL>
0

>  <SCORE.SYSTEM.SOLV>
0

>  <SCORE.SYSTEM.norm>
0

>  <SCORE.heavy>
19

>  <SCORE.norm>
-0.898164

>  <RMSD>
0.802

$$$$
ligand
 OpenBabel11021811483D
libRbt.so/2013.1/901 2013/11/27
 19 21  0  0  0  0  0  0  0  0999 V2000
   17.7828   28.8508   33.2001 C   0  0  0  0  0  0  0  0  0  0  0  0
   17.9662   29.2744   31.8379 O   0  0  0  0  0  0  0  0  0  0  0  0
   18.4055   29.8491   34.1818 C   0  0  1  0  0  0  0  0  0  0  0  0
   18.2214   29.4100   35.5274 O   0  0  0  0  0  0  0  0  0  0  0  0
   19.8996   29.9972   33.9655 C   0  0  1  0  0  0  0  0  0  0  0  0
   20.2249   31.3873   34.0053 O   0  0  0  0  0  0  0  0  0  0  0  0
   20.5750   29.3025   35.1262 C   0  0  0  0  0  0  0  0  0  0  0  0
   19.4775   29.1116   36.1571 C   0  0  2  0  0  0  0  0  0  0  0  0
   17.6368   26.1773   39.9990 N   0  0  0  0  0  0  0  0  0  0  0  0
   17.5256   27.5078   39.7684 C   0  0  2  0  0  0  0  0  0  0  0  0
   16.8300   28.2876   40.6228 N   0  0  0  0  0  0  0  0  0  0  0  0
   18.0965   28.0894   38.6925 N   0  0  0  0  0  0  0  0  0  0  0  0
   18.8052   27.3726   37.7969 C   0  0  1  0  0  0  0  0  0  0  0  0
   18.9643   26.0168   37.9690 C   0  0  1  0  0  0  0  0  0  0  0  0
   18.3306   25.3880   39.1542 C   0  0  0  0  0  0  0  0  0  0  0  0
   18.4417   24.1604   39.3669 O   0  0  0  0  0  0  0  0  0  0  0  0
   19.7024   25.5586   36.9436 N   0  0  0  0  0  0  0  0  0  0  0  0
   19.9905   26.6211   36.1569 C   0  0  0  0  0  0  0  0  0  0  0  0
   19.4359   27.7228   36.6877 N   0  0  1  0  0  0  0  0  0  0  0  0
  1  2  1  0  0  0  0
  3  1  1  6  0  0  0
  3  4  1  0  0  0  0
  3  5  1  0  0  0  0
  5  6  1  1  0  0  0
  5  7  1  0  0  0  0
  7  8  1  0  0  0  0
  8  4  1  6  0  0  0
  8 19  1  0  0  0  0
  9 15  1  0  0  0  0
  9 10  1  0  0  0  0
 10 11  1  6  0  0  0
 10 12  1  0  0  0  0
 13 12  1  6  0  0  0
 13 14  1  0  0  0  0
 13 19  1  0  0  0  0
 14 15  1  6  0  0  0
 14 17  1  0  0  0  0
 15 16  2  0  0  0  0
 17 18  1  0  0  0  0
 19 18  1  6  0  0  0
M  END
>  <CHROM.1>
-179.66843176,-76.96286026,18.74751709,27.94995698,36.61159686,-1.18321146
-1.19128975,2.50539675

>  <Name>
ligand

>  <RI>
0

>  <Rbt.Current_Directory>
/home/itssahil/PROJECTS/Mol_Feturizer/New_Systems/rnas/3SKL

>  <Rbt.Executable>
rbdock ($Id: //depot/dev/client3/rdock/2013.1/src/exe/rbdock.cxx#4 $)

>  <Rbt.Library>
libRbt.so (2013.1, Build901 2013/11/27)

>  <Rbt.Parameter_File>
/export/apps/rDock/src/rDock_2013.1_src/data/scripts/dock_solv.prm

>  <Rbt.Receptor>
prm/pocket_docking_4.prm

>  <SCORE>
-16.9561

>  <SCORE.INTER>
-16.9297

>  <SCORE.INTER.CONST>
1

>  <SCORE.INTER.POLAR>
0

>  <SCORE.INTER.ROT>
2

>  <SCORE.INTER.SOLV>
17.499

>  <SCORE.INTER.VDW>
-22.0528

>  <SCORE.INTER.norm>
-0.891035

>  <SCORE.INTRA>
-0.0263999

>  <SCORE.INTRA.DIHEDRAL>
-0.317381

>  <SCORE.INTRA.DIHEDRAL.0>
1.50031

>  <SCORE.INTRA.POLAR>
0

>  <SCORE.INTRA.POLAR.0>
0

>  <SCORE.INTRA.REPUL>
0

>  <SCORE.INTRA.REPUL.0>
0

>  <SCORE.INTRA.SOLV>
-0.435948

>  <SCORE.INTRA.SOLV.lig_0>
-37.9941

>  <SCORE.INTRA.VDW>
0.350264

>  <SCORE.INTRA.VDW.0>
-0.964461

>  <SCORE.INTRA.norm>
-0.00138947

>  <SCORE.RESTR>
0

>  <SCORE.RESTR.CAVITY>
0

>  <SCORE.RESTR.norm>
0

>  <SCORE.SYSTEM>
0

>  <SCORE.SYSTEM.CONST>
0

>  <SCORE.SYSTEM.DIHEDRAL>
0

>  <SCORE.SYSTEM.SOLV>
0

>  <SCORE.SYSTEM.norm>
0

>  <SCORE.heavy>
19

>  <SCORE.norm>
-0.892424

>  <RMSD>
0.802

$$$$
ligand
 OpenBabel11021811483D
libRbt.so/2013.1/901 2013/11/27
 19 21  0  0  0  0  0  0  0  0999 V2000
   18.0485   28.7102   32.9441 C   0  0  0  0  0  0  0  0  0  0  0  0
   16.7078   28.1894   32.9519 O   0  0  0  0  0  0  0  0  0  0  0  0
   18.2314   29.7917   34.0140 C   0  0  1  0  0  0  0  0  0  0  0  0
   17.9119   29.2772   35.3066 O   0  0  0  0  0  0  0  0  0  0  0  0
   19.6635   30.2877   34.0772 C   0  0  1  0  0  0  0  0  0  0  0  0
   19.6432   31.7132   34.1624 O   0  0  0  0  0  0  0  0  0  0  0  0
   20.2584   29.7291   35.3500 C   0  0  0  0  0  0  0  0  0  0  0  0
   19.0662   29.2558   36.1613 C   0  0  2  0  0  0  0  0  0  0  0  0
   18.0758   26.1749   40.1968 N   0  0  0  0  0  0  0  0  0  0  0  0
   17.7830   27.4807   39.9858 C   0  0  2  0  0  0  0  0  0  0  0  0
   17.1147   28.1852   40.9233 N   0  0  0  0  0  0  0  0  0  0  0  0
   18.1428   28.1114   38.8480 N   0  0  0  0  0  0  0  0  0  0  0  0
   18.8116   27.4705   37.8682 C   0  0  1  0  0  0  0  0  0  0  0  0
   19.1472   26.1443   38.0151 C   0  0  1  0  0  0  0  0  0  0  0  0
   18.7448   25.4608   39.2691 C   0  0  0  0  0  0  0  0  0  0  0  0
   19.0233   24.2568   39.4627 O   0  0  0  0  0  0  0  0  0  0  0  0
   19.7987   25.7621   36.9034 N   0  0  0  0  0  0  0  0  0  0  0  0
   19.8604   26.8413   36.0896 C   0  0  0  0  0  0  0  0  0  0  0  0
   19.2530   27.8779   36.6891 N   0  0  1  0  0  0  0  0  0  0  0  0
  1  2  1  0  0  0  0
  3  1  1  6  0  0  0
  3  4  1  0  0  0  0
  3  5  1  0  0  0  0
  5  6  1  1  0  0  0
  5  7  1  0  0  0  0
  7  8  1  0  0  0  0
  8  4  1  6  0  0  0
  8 19  1  0  0  0  0
  9 15  1  0  0  0  0
  9 10  1  0  0  0  0
 10 11  1  6  0  0  0
 10 12  1  0  0  0  0
 13 12  1  6  0  0  0
 13 14  1  0  0  0  0
 13 19  1  0  0  0  0
 14 15  1  6  0  0  0
 14 17  1  0  0  0  0
 15 16  2  0  0  0  0
 17 18  1  0  0  0  0
 19 18  1  6  0  0  0
M  END
>  <CHROM.1>
57.28408658,-96.18244856,18.67804598,27.97279077,36.72804851,-1.25737738
-1.44325600,2.45196680

>  <Name>
ligand

>  <RI>
0

>  <Rbt.Current_Directory>
/home/itssahil/PROJECTS/Mol_Feturizer/New_Systems/rnas/3SKL

>  <Rbt.Executable>
rbdock ($Id: //depot/dev/client3/rdock/2013.1/src/exe/rbdock.cxx#4 $)

>  <Rbt.Library>
libRbt.so (2013.1, Build901 2013/11/27)

>  <Rbt.Parameter_File>
/export/apps/rDock/src/rDock_2013.1_src/data/scripts/dock_solv.prm

>  <Rbt.Receptor>
prm/pocket_docking_4.prm

>  <SCORE>
-16.7645

>  <SCORE.INTER>
-16.4103

>  <SCORE.INTER.CONST>
1

>  <SCORE.INTER.POLAR>
0

>  <SCORE.INTER.ROT>
2

>  <SCORE.INTER.SOLV>
16.777

>  <SCORE.INTER.VDW>
-21.4659

>  <SCORE.INTER.norm>
-0.863703

>  <SCORE.INTRA>
-0.354183

>  <SCORE.INTRA.DIHEDRAL>
-0.295873

>  <SCORE.INTRA.DIHEDRAL.0>
1.50031

>  <SCORE.INTRA.POLAR>
0

>  <SCORE.INTRA.POLAR.0>
0

>  <SCORE.INTRA.REPUL>
0

>  <SCORE.INTRA.REPUL.0>
0

>  <SCORE.INTRA.SOLV>
-0.531201

>  <SCORE.INTRA.SOLV.lig_0>
-37.9941

>  <SCORE.INTRA.VDW>
0.0593542

>  <SCORE.INTRA.VDW.0>
-0.964461

>  <SCORE.INTRA.norm>
-0.0186412

>  <SCORE.RESTR>
0

>  <SCORE.RESTR.CAVITY>
0

>  <SCORE.RESTR.norm>
0

>  <SCORE.SYSTEM>
0

>  <SCORE.SYSTEM.CONST>
0

>  <SCORE.SYSTEM.DIHEDRAL>
0

>  <SCORE.SYSTEM.SOLV>
0

>  <SCORE.SYSTEM.norm>
0

>  <SCORE.heavy>
19

>  <SCORE.norm>
-0.882344

>  <RMSD>
0.802

$$$$
ligand
 OpenBabel11021811483D
libRbt.so/2013.1/901 2013/11/27
 19 21  0  0  0  0  0  0  0  0999 V2000
   18.0149   28.7309   32.9738 C   0  0  0  0  0  0  0  0  0  0  0  0
   16.6667   28.2311   33.0094 O   0  0  0  0  0  0  0  0  0  0  0  0
   18.2399   29.8014   34.0467 C   0  0  1  0  0  0  0  0  0  0  0  0
   17.9298   29.2864   35.3414 O   0  0  0  0  0  0  0  0  0  0  0  0
   19.6838   30.2642   34.0892 C   0  0  1  0  0  0  0  0  0  0  0  0
   19.6975   31.6893   34.1830 O   0  0  0  0  0  0  0  0  0  0  0  0
   20.2865   29.6844   35.3488 C   0  0  0  0  0  0  0  0  0  0  0  0
   19.0971   29.2334   36.1769 C   0  0  2  0  0  0  0  0  0  0  0  0
   17.9023   26.0888   40.1065 N   0  0  0  0  0  0  0  0  0  0  0  0
   17.6157   27.3966   39.8993 C   0  0  2  0  0  0  0  0  0  0  0  0
   16.8944   28.0846   40.8093 N   0  0  0  0  0  0  0  0  0  0  0  0
   18.0340   28.0456   38.7921 N   0  0  0  0  0  0  0  0  0  0  0  0
   18.7579   27.4218   37.8407 C   0  0  1  0  0  0  0  0  0  0  0  0
   19.0907   26.0948   37.9861 C   0  0  1  0  0  0  0  0  0  0  0  0
   18.6237   25.3911   39.2060 C   0  0  0  0  0  0  0  0  0  0  0  0
   18.8966   24.1853   39.3967 O   0  0  0  0  0  0  0  0  0  0  0  0
   19.8033   25.7316   36.9059 N   0  0  0  0  0  0  0  0  0  0  0  0
   19.9044   26.8231   36.1127 C   0  0  0  0  0  0  0  0  0  0  0  0
   19.2609   27.8484   36.6936 N   0  0  1  0  0  0  0  0  0  0  0  0
  1  2  1  0  0  0  0
  3  1  1  6  0  0  0
  3  4  1  0  0  0  0
  3  5  1  0  0  0  0
  5  6  1  1  0  0  0
  5  7  1  0  0  0  0
  7  8  1  0  0  0  0
  8  4  1  6  0  0  0
  8 19  1  0  0  0  0
  9 15  1  0  0  0  0
  9 10  1  0  0  0  0
 10 11  1  6  0  0  0
 10 12  1  0  0  0  0
 13 12  1  6  0  0  0
 13 14  1  0  0  0  0
 13 19  1  0  0  0  0
 14 15  1  6  0  0  0
 14 17  1  0  0  0  0
 15 16  2  0  0  0  0
 17 18  1  0  0  0  0
 19 18  1  6  0  0  0
M  END
>  <CHROM.1>
56.70528125,-91.81808011,18.63227679,27.93778430,36.71346747,-1.24749517
-1.36801653,2.48050365

>  <Name>
ligand

>  <RI>
0

>  <Rbt.Current_Directory>
/home/itssahil/PROJECTS/Mol_Feturizer/New_Systems/rnas/3SKL

>  <Rbt.Executable>
rbdock ($Id: //depot/dev/client3/rdock/2013.1/src/exe/rbdock.cxx#4 $)

>  <Rbt.Library>
libRbt.so (2013.1, Build901 2013/11/27)

>  <Rbt.Parameter_File>
/export/apps/rDock/src/rDock_2013.1_src/data/scripts/dock_solv.prm

>  <Rbt.Receptor>
prm/pocket_docking_7.prm

>  <SCORE>
-16.7781

>  <SCORE.INTER>
-16.4903

>  <SCORE.INTER.CONST>
1

>  <SCORE.INTER.POLAR>
0

>  <SCORE.INTER.ROT>
2

>  <SCORE.INTER.SOLV>
17.1743

>  <SCORE.INTER.VDW>
-21.6517

>  <SCORE.INTER.norm>
-0.867911

>  <SCORE.INTRA>
-0.287771

>  <SCORE.INTRA.DIHEDRAL>
-0.284816

>  <SCORE.INTRA.DIHEDRAL.0>
1.50031

>  <SCORE.INTRA.POLAR>
0

>  <SCORE.INTRA.POLAR.0>
0

>  <SCORE.INTRA.REPUL>
0

>  <SCORE.INTRA.REPUL.0>
0

>  <SCORE.INTRA.SOLV>
-0.525413

>  <SCORE.INTRA.SOLV.lig_0>
-37.9941

>  <SCORE.INTRA.VDW>
0.117343

>  <SCORE.INTRA.VDW.0>
-0.964461

>  <SCORE.INTRA.norm>
-0.0151459

>  <SCORE.RESTR>
0

>  <SCORE.RESTR.CAVITY>
0

>  <SCORE.RESTR.norm>
0

>  <SCORE.SYSTEM>
0

>  <SCORE.SYSTEM.CONST>
0

>  <SCORE.SYSTEM.DIHEDRAL>
0

>  <SCORE.SYSTEM.SOLV>
0

>  <SCORE.SYSTEM.norm>
0

>  <SCORE.heavy>
19

>  <SCORE.norm>
-0.883057

>  <RMSD>
0.802

$$$$
ligand
 OpenBabel11021811483D
libRbt.so/2013.1/901 2013/11/27
 19 21  0  0  0  0  0  0  0  0999 V2000
   17.8322   28.8259   33.0987 C   0  0  0  0  0  0  0  0  0  0  0  0
   17.9978   29.2562   31.7364 O   0  0  0  0  0  0  0  0  0  0  0  0
   18.4309   29.8400   34.0791 C   0  0  1  0  0  0  0  0  0  0  0  0
   18.2389   29.4085   35.4261 O   0  0  0  0  0  0  0  0  0  0  0  0
   19.9250   30.0070   33.8771 C   0  0  1  0  0  0  0  0  0  0  0  0
   20.2308   31.4017   33.9096 O   0  0  0  0  0  0  0  0  0  0  0  0
   20.5978   29.3303   35.0498 C   0  0  0  0  0  0  0  0  0  0  0  0
   19.4924   29.1321   36.0709 C   0  0  2  0  0  0  0  0  0  0  0  0
   17.6365   26.1978   39.9054 N   0  0  0  0  0  0  0  0  0  0  0  0
   17.5079   27.5245   39.6627 C   0  0  2  0  0  0  0  0  0  0  0  0
   16.7862   28.2994   40.4996 N   0  0  0  0  0  0  0  0  0  0  0  0
   18.0869   28.1070   38.5916 N   0  0  0  0  0  0  0  0  0  0  0  0
   18.8214   27.3949   37.7132 C   0  0  1  0  0  0  0  0  0  0  0  0
   18.9992   26.0432   37.8984 C   0  0  1  0  0  0  0  0  0  0  0  0
   18.3565   25.4133   39.0781 C   0  0  0  0  0  0  0  0  0  0  0  0
   18.4836   24.1893   39.3022 O   0  0  0  0  0  0  0  0  0  0  0  0
   19.7611   25.5892   36.8886 N   0  0  0  0  0  0  0  0  0  0  0  0
   20.0449   26.6502   36.0984 C   0  0  0  0  0  0  0  0  0  0  0  0
   19.4644   27.7468   36.6116 N   0  0  1  0  0  0  0  0  0  0  0  0
  1  2  1  0  0  0  0
  3  1  1  6  0  0  0
  3  4  1  0  0  0  0
  3  5  1  0  0  0  0
  5  6  1  1  0  0  0
  5  7  1  0  0  0  0
  7  8  1  0  0  0  0
  8  4  1  6  0  0  0
  8 19  1  0  0  0  0
  9 15  1  0  0  0  0
  9 10  1  0  0  0  0
 10 11  1  6  0  0  0
 10 12  1  0  0  0  0
 13 12  1  6  0  0  0
 13 14  1  0  0  0  0
 13 19  1  0  0  0  0
 14 15  1  6  0  0  0
 14 17  1  0  0  0  0
 15 16  2  0  0  0  0
 17 18  1  0  0  0  0
 19 18  1  6  0  0  0
M  END
>  <CHROM.1>
179.06051129,-76.60169761,18.76763723,27.96374873,36.52376223,-1.20389080
-1.16331644,2.47885637

>  <Name>
ligand

>  <RI>
0

>  <Rbt.Current_Directory>
/home/itssahil/PROJECTS/Mol_Feturizer/New_Systems/rnas/3SKL

>  <Rbt.Executable>
rbdock ($Id: //depot/dev/client3/rdock/2013.1/src/exe/rbdock.cxx#4 $)

>  <Rbt.Library>
libRbt.so (2013.1, Build901 2013/11/27)

>  <Rbt.Parameter_File>
/export/apps/rDock/src/rDock_2013.1_src/data/scripts/dock_solv.prm

>  <Rbt.Receptor>
prm/pocket_docking_3.prm

>  <SCORE>
-17.0671

>  <SCORE.INTER>
-17.0341

>  <SCORE.INTER.CONST>
1

>  <SCORE.INTER.POLAR>
0

>  <SCORE.INTER.ROT>
2

>  <SCORE.INTER.SOLV>
17.4904

>  <SCORE.INTER.VDW>
-22.1196

>  <SCORE.INTER.norm>
-0.896534

>  <SCORE.INTRA>
-0.0329988

>  <SCORE.INTRA.DIHEDRAL>
-0.31468

>  <SCORE.INTRA.DIHEDRAL.0>
1.50031

>  <SCORE.INTRA.POLAR>
0

>  <SCORE.INTRA.POLAR.0>
0

>  <SCORE.INTRA.REPUL>
0

>  <SCORE.INTRA.REPUL.0>
0

>  <SCORE.INTRA.SOLV>
-0.441813

>  <SCORE.INTRA.SOLV.lig_0>
-37.9941

>  <SCORE.INTRA.VDW>
0.345248

>  <SCORE.INTRA.VDW.0>
-0.964461

>  <SCORE.INTRA.norm>
-0.00173678

>  <SCORE.RESTR>
0

>  <SCORE.RESTR.CAVITY>
0

>  <SCORE.RESTR.norm>
0

>  <SCORE.SYSTEM>
0

>  <SCORE.SYSTEM.CONST>
0

>  <SCORE.SYSTEM.DIHEDRAL>
0

>  <SCORE.SYSTEM.SOLV>
0

>  <SCORE.SYSTEM.norm>
0

>  <SCORE.heavy>
19

>  <SCORE.norm>
-0.898271

>  <RMSD>
0.803

$$$$
ligand
 OpenBabel11021811483D
libRbt.so/2013.1/901 2013/11/27
 19 21  0  0  0  0  0  0  0  0999 V2000
   17.8948   28.8039   33.0566 C   0  0  0  0  0  0  0  0  0  0  0  0
   18.0825   29.2381   31.6983 O   0  0  0  0  0  0  0  0  0  0  0  0
   18.4521   29.8286   34.0502 C   0  0  1  0  0  0  0  0  0  0  0  0
   18.2381   29.3929   35.3925 O   0  0  0  0  0  0  0  0  0  0  0  0
   19.9469   30.0240   33.8818 C   0  0  1  0  0  0  0  0  0  0  0  0
   20.2255   31.4242   33.9213 O   0  0  0  0  0  0  0  0  0  0  0  0
   20.6060   29.3595   35.0693 C   0  0  0  0  0  0  0  0  0  0  0  0
   19.4818   29.1399   36.0653 C   0  0  2  0  0  0  0  0  0  0  0  0
   17.6635   26.1864   39.9030 N   0  0  0  0  0  0  0  0  0  0  0  0
   17.5222   27.5121   39.6616 C   0  0  2  0  0  0  0  0  0  0  0  0
   16.7960   28.2799   40.5011 N   0  0  0  0  0  0  0  0  0  0  0  0
   18.0928   28.1005   38.5892 N   0  0  0  0  0  0  0  0  0  0  0  0
   18.8312   27.3957   37.7083 C   0  0  1  0  0  0  0  0  0  0  0  0
   19.0218   26.0455   37.8921 C   0  0  1  0  0  0  0  0  0  0  0  0
   18.3881   25.4090   39.0732 C   0  0  0  0  0  0  0  0  0  0  0  0
   18.5270   24.1861   39.2961 O   0  0  0  0  0  0  0  0  0  0  0  0
   19.7849   25.5990   36.8798 N   0  0  0  0  0  0  0  0  0  0  0  0
   20.0568   26.6631   36.0895 C   0  0  0  0  0  0  0  0  0  0  0  0
   19.4679   27.7541   36.6051 N   0  0  1  0  0  0  0  0  0  0  0  0
  1  2  1  0  0  0  0
  3  1  1  6  0  0  0
  3  4  1  0  0  0  0
  3  5  1  0  0  0  0
  5  6  1  1  0  0  0
  5  7  1  0  0  0  0
  7  8  1  0  0  0  0
  8  4  1  6  0  0  0
  8 19  1  0  0  0  0
  9 15  1  0  0  0  0
  9 10  1  0  0  0  0
 10 11  1  6  0  0  0
 10 12  1  0  0  0  0
 13 12  1  6  0  0  0
 13 14  1  0  0  0  0
 13 19  1  0  0  0  0
 14 15  1  6  0  0  0
 14 17  1  0  0  0  0
 15 16  2  0  0  0  0
 17 18  1  0  0  0  0
 19 18  1  6  0  0  0
M  END
>  <CHROM.1>
179.04472442,-78.15767070,18.78842504,27.96280453,36.51482316,-1.19099141
-1.17575358,2.49130941

>  <Name>
ligand

>  <RI>
0

>  <Rbt.Current_Directory>
/home/itssahil/PROJECTS/Mol_Feturizer/New_Systems/rnas/3SKL

>  <Rbt.Executable>
rbdock ($Id: //depot/dev/client3/rdock/2013.1/src/exe/rbdock.cxx#4 $)

>  <Rbt.Library>
libRbt.so (2013.1, Build901 2013/11/27)

>  <Rbt.Parameter_File>
/export/apps/rDock/src/rDock_2013.1_src/data/scripts/dock_solv.prm

>  <Rbt.Receptor>
prm/pocket_docking_3.prm

>  <SCORE>
-17.0364

>  <SCORE.INTER>
-16.9865

>  <SCORE.INTER.CONST>
1

>  <SCORE.INTER.POLAR>
0

>  <SCORE.INTER.ROT>
2

>  <SCORE.INTER.SOLV>
17.4201

>  <SCORE.INTER.VDW>
-22.0643

>  <SCORE.INTER.norm>
-0.894026

>  <SCORE.INTRA>
-0.0498612

>  <SCORE.INTRA.DIHEDRAL>
-0.315789

>  <SCORE.INTRA.DIHEDRAL.0>
1.50031

>  <SCORE.INTRA.POLAR>
0

>  <SCORE.INTRA.POLAR.0>
0

>  <SCORE.INTRA.REPUL>
0

>  <SCORE.INTRA.REPUL.0>
0

>  <SCORE.INTRA.SOLV>
-0.443049

>  <SCORE.INTRA.SOLV.lig_0>
-37.9941

>  <SCORE.INTRA.VDW>
0.329558

>  <SCORE.INTRA.VDW.0>
-0.964461

>  <SCORE.INTRA.norm>
-0.00262427

>  <SCORE.RESTR>
0

>  <SCORE.RESTR.CAVITY>
0

>  <SCORE.RESTR.norm>
0

>  <SCORE.SYSTEM>
0

>  <SCORE.SYSTEM.CONST>
0

>  <SCORE.SYSTEM.DIHEDRAL>
0

>  <SCORE.SYSTEM.SOLV>
0

>  <SCORE.SYSTEM.norm>
0

>  <SCORE.heavy>
19

>  <SCORE.norm>
-0.89665

>  <RMSD>
0.804

$$$$
ligand
 OpenBabel11021811483D
libRbt.so/2013.1/901 2013/11/27
 19 21  0  0  0  0  0  0  0  0999 V2000
   17.8982   28.8133   33.0608 C   0  0  0  0  0  0  0  0  0  0  0  0
   18.1088   29.2451   31.7051 O   0  0  0  0  0  0  0  0  0  0  0  0
   18.4486   29.8346   34.0618 C   0  0  1  0  0  0  0  0  0  0  0  0
   18.2275   29.3931   35.4010 O   0  0  0  0  0  0  0  0  0  0  0  0
   19.9440   30.0325   33.9026 C   0  0  1  0  0  0  0  0  0  0  0  0
   20.2206   31.4330   33.9495 O   0  0  0  0  0  0  0  0  0  0  0  0
   20.5972   29.3641   35.0911 C   0  0  0  0  0  0  0  0  0  0  0  0
   19.4678   29.1389   36.0798 C   0  0  2  0  0  0  0  0  0  0  0  0
   17.6557   26.1732   39.9111 N   0  0  0  0  0  0  0  0  0  0  0  0
   17.5165   27.5002   39.6757 C   0  0  2  0  0  0  0  0  0  0  0  0
   16.7947   28.2660   40.5208 N   0  0  0  0  0  0  0  0  0  0  0  0
   18.0848   28.0919   38.6039 N   0  0  0  0  0  0  0  0  0  0  0  0
   18.8188   27.3892   37.7176 C   0  0  1  0  0  0  0  0  0  0  0  0
   19.0070   26.0378   37.8951 C   0  0  1  0  0  0  0  0  0  0  0  0
   18.3759   25.3977   39.0755 C   0  0  0  0  0  0  0  0  0  0  0  0
   18.5128   24.1736   39.2928 O   0  0  0  0  0  0  0  0  0  0  0  0
   19.7657   25.5940   36.8784 N   0  0  0  0  0  0  0  0  0  0  0  0
   20.0374   26.6608   36.0917 C   0  0  0  0  0  0  0  0  0  0  0  0
   19.4526   27.7508   36.6138 N   0  0  1  0  0  0  0  0  0  0  0  0
  1  2  1  0  0  0  0
  3  1  1  6  0  0  0
  3  4  1  0  0  0  0
  3  5  1  0  0  0  0
  5  6  1  1  0  0  0
  5  7  1  0  0  0  0
  7  8  1  0  0  0  0
  8  4  1  6  0  0  0
  8 19  1  0  0  0  0
  9 15  1  0  0  0  0
  9 10  1  0  0  0  0
 10 11  1  6  0  0  0
 10 12  1  0  0  0  0
 13 12  1  6  0  0  0
 13 14  1  0  0  0  0
 13 19  1  0  0  0  0
 14 15  1  6  0  0  0
 14 17  1  0  0  0  0
 15 16  2  0  0  0  0
 17 18  1  0  0  0  0
 19 18  1  6  0  0  0
M  END
>  <CHROM.1>
179.80554510,-78.70862665,18.78117374,27.96025193,36.52510077,-1.17646073
-1.18538521,2.50877968

>  <Name>
ligand

>  <RI>
0

>  <Rbt.Current_Directory>
/home/itssahil/PROJECTS/Mol_Feturizer/New_Systems/rnas/3SKL

>  <Rbt.Executable>
rbdock ($Id: //depot/dev/client3/rdock/2013.1/src/exe/rbdock.cxx#4 $)

>  <Rbt.Library>
libRbt.so (2013.1, Build901 2013/11/27)

>  <Rbt.Parameter_File>
/export/apps/rDock/src/rDock_2013.1_src/data/scripts/dock_solv.prm

>  <Rbt.Receptor>
prm/pocket_docking_7.prm

>  <SCORE>
-17.021

>  <SCORE.INTER>
-16.9705

>  <SCORE.INTER.CONST>
1

>  <SCORE.INTER.POLAR>
0

>  <SCORE.INTER.ROT>
2

>  <SCORE.INTER.SOLV>
17.4543

>  <SCORE.INTER.VDW>
-22.0651

>  <SCORE.INTER.norm>
-0.893183

>  <SCORE.INTRA>
-0.0505442

>  <SCORE.INTRA.DIHEDRAL>
-0.319118

>  <SCORE.INTRA.DIHEDRAL.0>
1.50031

>  <SCORE.INTRA.POLAR>
0

>  <SCORE.INTRA.POLAR.0>
0

>  <SCORE.INTRA.REPUL>
0

>  <SCORE.INTRA.REPUL.0>
0

>  <SCORE.INTRA.SOLV>
-0.439743

>  <SCORE.INTRA.SOLV.lig_0>
-37.9941

>  <SCORE.INTRA.VDW>
0.328886

>  <SCORE.INTRA.VDW.0>
-0.964461

>  <SCORE.INTRA.norm>
-0.00266022

>  <SCORE.RESTR>
0

>  <SCORE.RESTR.CAVITY>
0

>  <SCORE.RESTR.norm>
0

>  <SCORE.SYSTEM>
0

>  <SCORE.SYSTEM.CONST>
0

>  <SCORE.SYSTEM.DIHEDRAL>
0

>  <SCORE.SYSTEM.SOLV>
0

>  <SCORE.SYSTEM.norm>
0

>  <SCORE.heavy>
19

>  <SCORE.norm>
-0.895843

>  <RMSD>
0.805

$$$$
ligand
 OpenBabel11021811483D
libRbt.so/2013.1/901 2013/11/27
 19 21  0  0  0  0  0  0  0  0999 V2000
   17.8629   28.8164   33.0917 C   0  0  0  0  0  0  0  0  0  0  0  0
   18.0478   29.2463   31.7317 O   0  0  0  0  0  0  0  0  0  0  0  0
   18.4418   29.8339   34.0804 C   0  0  1  0  0  0  0  0  0  0  0  0
   18.2406   29.3973   35.4244 O   0  0  0  0  0  0  0  0  0  0  0  0
   19.9360   30.0162   33.8937 C   0  0  1  0  0  0  0  0  0  0  0  0
   20.2277   31.4138   33.9325 O   0  0  0  0  0  0  0  0  0  0  0  0
   20.6039   29.3434   35.0715 C   0  0  0  0  0  0  0  0  0  0  0  0
   19.4904   29.1317   36.0810 C   0  0  2  0  0  0  0  0  0  0  0  0
   17.6577   26.1779   39.9116 N   0  0  0  0  0  0  0  0  0  0  0  0
   17.5216   27.5045   39.6727 C   0  0  2  0  0  0  0  0  0  0  0  0
   16.7976   28.2735   40.5130 N   0  0  0  0  0  0  0  0  0  0  0  0
   18.0953   28.0928   38.6019 N   0  0  0  0  0  0  0  0  0  0  0  0
   18.8318   27.3869   37.7202 C   0  0  1  0  0  0  0  0  0  0  0  0
   19.0171   26.0356   37.9016 C   0  0  1  0  0  0  0  0  0  0  0  0
   18.3801   25.3993   39.0809 C   0  0  0  0  0  0  0  0  0  0  0  0
   18.5141   24.1754   39.3016 O   0  0  0  0  0  0  0  0  0  0  0  0
   19.7793   25.5882   36.8891 N   0  0  0  0  0  0  0  0  0  0  0  0
   20.0560   26.6528   36.1010 C   0  0  0  0  0  0  0  0  0  0  0  0
   19.4707   27.7450   36.6182 N   0  0  1  0  0  0  0  0  0  0  0  0
  1  2  1  0  0  0  0
  3  1  1  6  0  0  0
  3  4  1  0  0  0  0
  3  5  1  0  0  0  0
  5  6  1  1  0  0  0
  5  7  1  0  0  0  0
  7  8  1  0  0  0  0
  8  4  1  6  0  0  0
  8 19  1  0  0  0  0
  9 15  1  0  0  0  0
  9 10  1  0  0  0  0
 10 11  1  6  0  0  0
 10 12  1  0  0  0  0
 13 12  1  6  0  0  0
 13 14  1  0  0  0  0
 13 19  1  0  0  0  0
 14 15  1  6  0  0  0
 14 17  1  0  0  0  0
 15 16  2  0  0  0  0
 17 18  1  0  0  0  0
 19 18  1  6  0  0  0
M  END
>  <CHROM.1>
179.54284134,-77.33862085,18.78247745,27.95713616,36.53007694,-1.19908914
-1.16998187,2.48573259

>  <Name>
ligand

>  <RI>
0

>  <Rbt.Current_Directory>
/home/itssahil/PROJECTS/Mol_Feturizer/New_Systems/rnas/3SKL

>  <Rbt.Executable>
rbdock ($Id: //depot/dev/client3/rdock/2013.1/src/exe/rbdock.cxx#4 $)

>  <Rbt.Library>
libRbt.so (2013.1, Build901 2013/11/27)

>  <Rbt.Parameter_File>
/export/apps/rDock/src/rDock_2013.1_src/data/scripts/dock_solv.prm

>  <Rbt.Receptor>
prm/blind_docking_100.prm

>  <SCORE>
-17.0346

>  <SCORE.INTER>
-16.997

>  <SCORE.INTER.CONST>
1

>  <SCORE.INTER.POLAR>
0

>  <SCORE.INTER.ROT>
2

>  <SCORE.INTER.SOLV>
17.4456

>  <SCORE.INTER.VDW>
-22.0798

>  <SCORE.INTER.norm>
-0.894577

>  <SCORE.INTRA>
-0.0376687

>  <SCORE.INTRA.DIHEDRAL>
-0.31756

>  <SCORE.INTRA.DIHEDRAL.0>
1.50031

>  <SCORE.INTRA.POLAR>
0

>  <SCORE.INTRA.POLAR.0>
0

>  <SCORE.INTRA.REPUL>
0

>  <SCORE.INTRA.REPUL.0>
0

>  <SCORE.INTRA.SOLV>
-0.440042

>  <SCORE.INTRA.SOLV.lig_0>
-37.9941

>  <SCORE.INTRA.VDW>
0.341132

>  <SCORE.INTRA.VDW.0>
-0.964461

>  <SCORE.INTRA.norm>
-0.00198256

>  <SCORE.RESTR>
0

>  <SCORE.RESTR.CAVITY>
0

>  <SCORE.RESTR.norm>
0

>  <SCORE.SYSTEM>
0

>  <SCORE.SYSTEM.CONST>
0

>  <SCORE.SYSTEM.DIHEDRAL>
0

>  <SCORE.SYSTEM.SOLV>
0

>  <SCORE.SYSTEM.norm>
0

>  <SCORE.heavy>
19

>  <SCORE.norm>
-0.89656

>  <RMSD>
0.806

$$$$
ligand
 OpenBabel11021811483D
libRbt.so/2013.1/901 2013/11/27
 19 21  0  0  0  0  0  0  0  0999 V2000
   17.9782   28.7626   32.9823 C   0  0  0  0  0  0  0  0  0  0  0  0
   16.6293   28.2680   33.0512 O   0  0  0  0  0  0  0  0  0  0  0  0
   18.2354   29.8282   34.0528 C   0  0  1  0  0  0  0  0  0  0  0  0
   17.9359   29.3167   35.3513 O   0  0  0  0  0  0  0  0  0  0  0  0
   19.6869   30.2682   34.0749 C   0  0  1  0  0  0  0  0  0  0  0  0
   19.7245   31.6927   34.1698 O   0  0  0  0  0  0  0  0  0  0  0  0
   20.2984   29.6776   35.3252 C   0  0  0  0  0  0  0  0  0  0  0  0
   19.1141   29.2444   36.1699 C   0  0  2  0  0  0  0  0  0  0  0  0
   17.8902   26.1033   40.0934 N   0  0  0  0  0  0  0  0  0  0  0  0
   17.6176   27.4147   39.8897 C   0  0  2  0  0  0  0  0  0  0  0  0
   16.9051   28.1083   40.8024 N   0  0  0  0  0  0  0  0  0  0  0  0
   18.0416   28.0618   38.7836 N   0  0  0  0  0  0  0  0  0  0  0  0
   18.7573   27.4325   37.8298 C   0  0  1  0  0  0  0  0  0  0  0  0
   19.0758   26.1016   37.9714 C   0  0  1  0  0  0  0  0  0  0  0  0
   18.6028   25.4000   39.1902 C   0  0  0  0  0  0  0  0  0  0  0  0
   18.8626   24.1909   39.3776 O   0  0  0  0  0  0  0  0  0  0  0  0
   19.7829   25.7333   36.8894 N   0  0  0  0  0  0  0  0  0  0  0  0
   19.8950   26.8256   36.0987 C   0  0  0  0  0  0  0  0  0  0  0  0
   19.2634   27.8564   36.6830 N   0  0  1  0  0  0  0  0  0  0  0  0
  1  2  1  0  0  0  0
  3  1  1  6  0  0  0
  3  4  1  0  0  0  0
  3  5  1  0  0  0  0
  5  6  1  1  0  0  0
  5  7  1  0  0  0  0
  7  8  1  0  0  0  0
  8  4  1  6  0  0  0
  8 19  1  0  0  0  0
  9 15  1  0  0  0  0
  9 10  1  0  0  0  0
 10 11  1  6  0  0  0
 10 12  1  0  0  0  0
 13 12  1  6  0  0  0
 13 14  1  0  0  0  0
 13 19  1  0  0  0  0
 14 15  1  6  0  0  0
 14 17  1  0  0  0  0
 15 16  2  0  0  0  0
 17 18  1  0  0  0  0
 19 18  1  6  0  0  0
M  END
>  <CHROM.1>
55.74203252,-91.01632679,18.62673952,27.95148555,36.70712672,-1.23672528
-1.36762247,2.49423553

>  <Name>
ligand

>  <RI>
0

>  <Rbt.Current_Directory>
/home/itssahil/PROJECTS/Mol_Feturizer/New_Systems/rnas/3SKL

>  <Rbt.Executable>
rbdock ($Id: //depot/dev/client3/rdock/2013.1/src/exe/rbdock.cxx#4 $)

>  <Rbt.Library>
libRbt.so (2013.1, Build901 2013/11/27)

>  <Rbt.Parameter_File>
/export/apps/rDock/src/rDock_2013.1_src/data/scripts/dock_solv.prm

>  <Rbt.Receptor>
prm/pocket_docking_3.prm

>  <SCORE>
-16.734

>  <SCORE.INTER>
-16.4735

>  <SCORE.INTER.CONST>
1

>  <SCORE.INTER.POLAR>
0

>  <SCORE.INTER.ROT>
2

>  <SCORE.INTER.SOLV>
17.1857

>  <SCORE.INTER.VDW>
-21.6442

>  <SCORE.INTER.norm>
-0.867027

>  <SCORE.INTRA>
-0.260534

>  <SCORE.INTRA.DIHEDRAL>
-0.25907

>  <SCORE.INTRA.DIHEDRAL.0>
1.50031

>  <SCORE.INTRA.POLAR>
0

>  <SCORE.INTRA.POLAR.0>
0

>  <SCORE.INTRA.REPUL>
0

>  <SCORE.INTRA.REPUL.0>
0

>  <SCORE.INTRA.SOLV>
-0.519953

>  <SCORE.INTRA.SOLV.lig_0>
-37.9941

>  <SCORE.INTRA.VDW>
0.128978

>  <SCORE.INTRA.VDW.0>
-0.964461

>  <SCORE.INTRA.norm>
-0.0137123

>  <SCORE.RESTR>
0

>  <SCORE.RESTR.CAVITY>
0

>  <SCORE.RESTR.norm>
0

>  <SCORE.SYSTEM>
0

>  <SCORE.SYSTEM.CONST>
0

>  <SCORE.SYSTEM.DIHEDRAL>
0

>  <SCORE.SYSTEM.SOLV>
0

>  <SCORE.SYSTEM.norm>
0

>  <SCORE.heavy>
19

>  <SCORE.norm>
-0.880739

>  <RMSD>
0.806

$$$$
ligand
 OpenBabel11021811483D
libRbt.so/2013.1/901 2013/11/27
 19 21  0  0  0  0  0  0  0  0999 V2000
   17.9672   28.6791   32.9563 C   0  0  0  0  0  0  0  0  0  0  0  0
   16.6205   28.1744   32.9788 O   0  0  0  0  0  0  0  0  0  0  0  0
   18.1738   29.7607   34.0218 C   0  0  1  0  0  0  0  0  0  0  0  0
   17.8734   29.2493   35.3201 O   0  0  0  0  0  0  0  0  0  0  0  0
   19.6094   30.2491   34.0603 C   0  0  1  0  0  0  0  0  0  0  0  0
   19.5981   31.6748   34.1442 O   0  0  0  0  0  0  0  0  0  0  0  0
   20.2227   29.6887   35.3235 C   0  0  0  0  0  0  0  0  0  0  0  0
   19.0417   29.2225   36.1553 C   0  0  2  0  0  0  0  0  0  0  0  0
   18.0667   26.1395   40.1929 N   0  0  0  0  0  0  0  0  0  0  0  0
   17.7736   27.4456   39.9839 C   0  0  2  0  0  0  0  0  0  0  0  0
   17.1095   28.1498   40.9246 N   0  0  0  0  0  0  0  0  0  0  0  0
   18.1289   28.0769   38.8450 N   0  0  0  0  0  0  0  0  0  0  0  0
   18.7934   27.4363   37.8620 C   0  0  1  0  0  0  0  0  0  0  0  0
   19.1289   26.1098   38.0067 C   0  0  1  0  0  0  0  0  0  0  0  0
   18.7314   25.4257   39.2619 C   0  0  0  0  0  0  0  0  0  0  0  0
   19.0102   24.2215   39.4536 O   0  0  0  0  0  0  0  0  0  0  0  0
   19.7756   25.7280   36.8921 N   0  0  0  0  0  0  0  0  0  0  0  0
   19.8345   26.8077   36.0787 C   0  0  0  0  0  0  0  0  0  0  0  0
   19.2301   27.8442   36.6814 N   0  0  1  0  0  0  0  0  0  0  0  0
  1  2  1  0  0  0  0
  3  1  1  6  0  0  0
  3  4  1  0  0  0  0
  3  5  1  0  0  0  0
  5  6  1  1  0  0  0
  5  7  1  0  0  0  0
  7  8  1  0  0  0  0
  8  4  1  6  0  0  0
  8 19  1  0  0  0  0
  9 15  1  0  0  0  0
  9 10  1  0  0  0  0
 10 11  1  6  0  0  0
 10 12  1  0  0  0  0
 13 12  1  6  0  0  0
 13 14  1  0  0  0  0
 13 19  1  0  0  0  0
 14 15  1  6  0  0  0
 14 17  1  0  0  0  0
 15 16  2  0  0  0  0
 17 18  1  0  0  0  0
 19 18  1  6  0  0  0
M  END
>  <CHROM.1>
57.83289185,-95.39838441,18.64580253,27.93946628,36.72441451,-1.31538886
-1.44271316,2.39577607

>  <Name>
ligand

>  <RI>
0

>  <Rbt.Current_Directory>
/home/itssahil/PROJECTS/Mol_Feturizer/New_Systems/rnas/3SKL

>  <Rbt.Executable>
rbdock ($Id: //depot/dev/client3/rdock/2013.1/src/exe/rbdock.cxx#4 $)

>  <Rbt.Library>
libRbt.so (2013.1, Build901 2013/11/27)

>  <Rbt.Parameter_File>
/export/apps/rDock/src/rDock_2013.1_src/data/scripts/dock_solv.prm

>  <Rbt.Receptor>
prm/pocket_docking_5.prm

>  <SCORE>
-16.697

>  <SCORE.INTER>
-16.3465

>  <SCORE.INTER.CONST>
1

>  <SCORE.INTER.POLAR>
0

>  <SCORE.INTER.ROT>
2

>  <SCORE.INTER.SOLV>
16.8083

>  <SCORE.INTER.VDW>
-21.4338

>  <SCORE.INTER.norm>
-0.860343

>  <SCORE.INTRA>
-0.350429

>  <SCORE.INTRA.DIHEDRAL>
-0.305697

>  <SCORE.INTRA.DIHEDRAL.0>
1.50031

>  <SCORE.INTRA.POLAR>
0

>  <SCORE.INTRA.POLAR.0>
0

>  <SCORE.INTRA.REPUL>
0

>  <SCORE.INTRA.REPUL.0>
0

>  <SCORE.INTRA.SOLV>
-0.533479

>  <SCORE.INTRA.SOLV.lig_0>
-37.9941

>  <SCORE.INTRA.VDW>
0.0691593

>  <SCORE.INTRA.VDW.0>
-0.964461

>  <SCORE.INTRA.norm>
-0.0184436

>  <SCORE.RESTR>
0

>  <SCORE.RESTR.CAVITY>
0

>  <SCORE.RESTR.norm>
0

>  <SCORE.SYSTEM>
0

>  <SCORE.SYSTEM.CONST>
0

>  <SCORE.SYSTEM.DIHEDRAL>
0

>  <SCORE.SYSTEM.SOLV>
0

>  <SCORE.SYSTEM.norm>
0

>  <SCORE.heavy>
19

>  <SCORE.norm>
-0.878787

>  <RMSD>
0.807

$$$$
ligand
 OpenBabel11021811483D
libRbt.so/2013.1/901 2013/11/27
 19 21  0  0  0  0  0  0  0  0999 V2000
   17.8642   28.7935   33.0551 C   0  0  0  0  0  0  0  0  0  0  0  0
   18.0379   29.2344   31.6971 O   0  0  0  0  0  0  0  0  0  0  0  0
   18.4244   29.8170   34.0483 C   0  0  1  0  0  0  0  0  0  0  0  0
   18.2200   29.3766   35.3906 O   0  0  0  0  0  0  0  0  0  0  0  0
   19.9175   30.0175   33.8713 C   0  0  1  0  0  0  0  0  0  0  0  0
   20.1919   31.4185   33.9132 O   0  0  0  0  0  0  0  0  0  0  0  0
   20.5859   29.3517   35.0528 C   0  0  0  0  0  0  0  0  0  0  0  0
   19.4686   29.1256   36.0550 C   0  0  2  0  0  0  0  0  0  0  0  0
   17.7012   26.1596   39.9068 N   0  0  0  0  0  0  0  0  0  0  0  0
   17.5561   27.4859   39.6713 C   0  0  2  0  0  0  0  0  0  0  0  0
   16.8403   28.2508   40.5223 N   0  0  0  0  0  0  0  0  0  0  0  0
   18.1126   28.0779   38.5934 N   0  0  0  0  0  0  0  0  0  0  0  0
   18.8400   27.3761   37.7010 C   0  0  1  0  0  0  0  0  0  0  0  0
   19.0337   26.0255   37.8783 C   0  0  1  0  0  0  0  0  0  0  0  0
   18.4156   25.3851   39.0654 C   0  0  0  0  0  0  0  0  0  0  0  0
   18.5580   24.1616   39.2829 O   0  0  0  0  0  0  0  0  0  0  0  0
   19.7840   25.5825   36.8549 N   0  0  0  0  0  0  0  0  0  0  0  0
   20.0452   26.6491   36.0645 C   0  0  0  0  0  0  0  0  0  0  0  0
   19.4623   27.7382   36.5908 N   0  0  1  0  0  0  0  0  0  0  0  0
  1  2  1  0  0  0  0
  3  1  1  6  0  0  0
  3  4  1  0  0  0  0
  3  5  1  0  0  0  0
  5  6  1  1  0  0  0
  5  7  1  0  0  0  0
  7  8  1  0  0  0  0
  8  4  1  6  0  0  0
  8 19  1  0  0  0  0
  9 15  1  0  0  0  0
  9 10  1  0  0  0  0
 10 11  1  6  0  0  0
 10 12  1  0  0  0  0
 13 12  1  6  0  0  0
 13 14  1  0  0  0  0
 13 19  1  0  0  0  0
 14 15  1  6  0  0  0
 14 17  1  0  0  0  0
 15 16  2  0  0  0  0
 17 18  1  0  0  0  0
 19 18  1  6  0  0  0
M  END
>  <CHROM.1>
178.84063894,-78.56734872,18.78655399,27.94641143,36.50865718,-1.20399627
-1.18918814,2.48223959

>  <Name>
ligand

>  <RI>
0

>  <Rbt.Current_Directory>
/home/itssahil/PROJECTS/Mol_Feturizer/New_Systems/rnas/3SKL

>  <Rbt.Executable>
rbdock ($Id: //depot/dev/client3/rdock/2013.1/src/exe/rbdock.cxx#4 $)

>  <Rbt.Library>
libRbt.so (2013.1, Build901 2013/11/27)

>  <Rbt.Parameter_File>
/export/apps/rDock/src/rDock_2013.1_src/data/scripts/dock_solv.prm

>  <Rbt.Receptor>
prm/pocket_docking_4.prm

>  <SCORE>
-17.0305

>  <SCORE.INTER>
-16.9751

>  <SCORE.INTER.CONST>
1

>  <SCORE.INTER.POLAR>
0

>  <SCORE.INTER.ROT>
2

>  <SCORE.INTER.SOLV>
17.3615

>  <SCORE.INTER.VDW>
-22.0372

>  <SCORE.INTER.norm>
-0.893424

>  <SCORE.INTRA>
-0.0554362

>  <SCORE.INTRA.DIHEDRAL>
-0.314588

>  <SCORE.INTRA.DIHEDRAL.0>
1.50031

>  <SCORE.INTRA.POLAR>
0

>  <SCORE.INTRA.POLAR.0>
0

>  <SCORE.INTRA.REPUL>
0

>  <SCORE.INTRA.REPUL.0>
0

>  <SCORE.INTRA.SOLV>
-0.444314

>  <SCORE.INTRA.SOLV.lig_0>
-37.9941

>  <SCORE.INTRA.VDW>
0.324015

>  <SCORE.INTRA.VDW.0>
-0.964461

>  <SCORE.INTRA.norm>
-0.0029177

>  <SCORE.RESTR>
0

>  <SCORE.RESTR.CAVITY>
0

>  <SCORE.RESTR.norm>
0

>  <SCORE.SYSTEM>
0

>  <SCORE.SYSTEM.CONST>
0

>  <SCORE.SYSTEM.DIHEDRAL>
0

>  <SCORE.SYSTEM.SOLV>
0

>  <SCORE.SYSTEM.norm>
0

>  <SCORE.heavy>
19

>  <SCORE.norm>
-0.896341

>  <RMSD>
0.808

$$$$
ligand
 OpenBabel11021811483D
libRbt.so/2013.1/901 2013/11/27
 19 21  0  0  0  0  0  0  0  0999 V2000
   18.0354   28.7261   32.9472 C   0  0  0  0  0  0  0  0  0  0  0  0
   16.6904   28.2184   32.9886 O   0  0  0  0  0  0  0  0  0  0  0  0
   18.2581   29.7996   34.0177 C   0  0  1  0  0  0  0  0  0  0  0  0
   17.9525   29.2858   35.3139 O   0  0  0  0  0  0  0  0  0  0  0  0
   19.7002   30.2683   34.0566 C   0  0  1  0  0  0  0  0  0  0  0  0
   19.7084   31.6936   34.1476 O   0  0  0  0  0  0  0  0  0  0  0  0
   20.3076   29.6933   35.3162 C   0  0  0  0  0  0  0  0  0  0  0  0
   19.1215   29.2391   36.1473 C   0  0  2  0  0  0  0  0  0  0  0  0
   18.0693   26.1369   40.1507 N   0  0  0  0  0  0  0  0  0  0  0  0
   17.7895   27.4468   39.9470 C   0  0  2  0  0  0  0  0  0  0  0  0
   17.1190   28.1500   40.8838 N   0  0  0  0  0  0  0  0  0  0  0  0
   18.1647   28.0828   38.8171 N   0  0  0  0  0  0  0  0  0  0  0  0
   18.8367   27.4434   37.8384 C   0  0  1  0  0  0  0  0  0  0  0  0
   19.1596   26.1133   37.9783 C   0  0  1  0  0  0  0  0  0  0  0  0
   18.7403   25.4240   39.2235 C   0  0  0  0  0  0  0  0  0  0  0  0
   19.0068   24.2163   39.4105 O   0  0  0  0  0  0  0  0  0  0  0  0
   19.8175   25.7338   36.8695 N   0  0  0  0  0  0  0  0  0  0  0  0
   19.8957   26.8184   36.0644 C   0  0  0  0  0  0  0  0  0  0  0  0
   19.2919   27.8557   36.6664 N   0  0  1  0  0  0  0  0  0  0  0  0
  1  2  1  0  0  0  0
  3  1  1  6  0  0  0
  3  4  1  0  0  0  0
  3  5  1  0  0  0  0
  5  6  1  1  0  0  0
  5  7  1  0  0  0  0
  7  8  1  0  0  0  0
  8  4  1  6  0  0  0
  8 19  1  0  0  0  0
  9 15  1  0  0  0  0
  9 10  1  0  0  0  0
 10 11  1  6  0  0  0
 10 12  1  0  0  0  0
 13 12  1  6  0  0  0
 13 14  1  0  0  0  0
 13 19  1  0  0  0  0
 14 15  1  6  0  0  0
 14 17  1  0  0  0  0
 15 16  2  0  0  0  0
 17 18  1  0  0  0  0
 19 18  1  6  0  0  0
M  END
>  <CHROM.1>
56.54850676,-94.51496010,18.69790419,27.95378595,36.70605165,-1.24016466
-1.43333888,2.47835094

>  <Name>
ligand

>  <RI>
0

>  <Rbt.Current_Directory>
/home/itssahil/PROJECTS/Mol_Feturizer/New_Systems/rnas/3SKL

>  <Rbt.Executable>
rbdock ($Id: //depot/dev/client3/rdock/2013.1/src/exe/rbdock.cxx#4 $)

>  <Rbt.Library>
libRbt.so (2013.1, Build901 2013/11/27)

>  <Rbt.Parameter_File>
/export/apps/rDock/src/rDock_2013.1_src/data/scripts/dock_solv.prm

>  <Rbt.Receptor>
prm/pocket_docking_3.prm

>  <SCORE>
-16.7705

>  <SCORE.INTER>
-16.4489

>  <SCORE.INTER.CONST>
1

>  <SCORE.INTER.POLAR>
0

>  <SCORE.INTER.ROT>
2

>  <SCORE.INTER.SOLV>
16.6746

>  <SCORE.INTER.VDW>
-21.4575

>  <SCORE.INTER.norm>
-0.865733

>  <SCORE.INTRA>
-0.321615

>  <SCORE.INTRA.DIHEDRAL>
-0.280406

>  <SCORE.INTRA.DIHEDRAL.0>
1.50031

>  <SCORE.INTRA.POLAR>
0

>  <SCORE.INTRA.POLAR.0>
0

>  <SCORE.INTRA.REPUL>
0

>  <SCORE.INTRA.REPUL.0>
0

>  <SCORE.INTRA.SOLV>
-0.526366

>  <SCORE.INTRA.SOLV.lig_0>
-37.9941

>  <SCORE.INTRA.VDW>
0.0817714

>  <SCORE.INTRA.VDW.0>
-0.964461

>  <SCORE.INTRA.norm>
-0.0169271

>  <SCORE.RESTR>
0

>  <SCORE.RESTR.CAVITY>
0

>  <SCORE.RESTR.norm>
0

>  <SCORE.SYSTEM>
0

>  <SCORE.SYSTEM.CONST>
0

>  <SCORE.SYSTEM.DIHEDRAL>
0

>  <SCORE.SYSTEM.SOLV>
0

>  <SCORE.SYSTEM.norm>
0

>  <SCORE.heavy>
19

>  <SCORE.norm>
-0.88266

>  <RMSD>
0.809

$$$$
ligand
 OpenBabel11021811483D
libRbt.so/2013.1/901 2013/11/27
 19 21  0  0  0  0  0  0  0  0999 V2000
   17.7683   28.8104   33.1775 C   0  0  0  0  0  0  0  0  0  0  0  0
   17.9350   29.2369   31.8141 O   0  0  0  0  0  0  0  0  0  0  0  0
   18.3671   29.8266   34.1556 C   0  0  1  0  0  0  0  0  0  0  0  0
   18.1984   29.3853   35.5025 O   0  0  0  0  0  0  0  0  0  0  0  0
   19.8562   30.0136   33.9348 C   0  0  1  0  0  0  0  0  0  0  0  0
   20.1448   31.4119   33.9711 O   0  0  0  0  0  0  0  0  0  0  0  0
   20.5530   29.3392   35.0948 C   0  0  0  0  0  0  0  0  0  0  0  0
   19.4638   29.1213   36.1292 C   0  0  2  0  0  0  0  0  0  0  0  0
   17.6647   26.1350   39.9506 N   0  0  0  0  0  0  0  0  0  0  0  0
   17.5129   27.4606   39.7153 C   0  0  2  0  0  0  0  0  0  0  0  0
   16.7794   28.2186   40.5575 N   0  0  0  0  0  0  0  0  0  0  0  0
   18.0801   28.0588   38.6464 N   0  0  0  0  0  0  0  0  0  0  0  0
   18.8253   27.3641   37.7631 C   0  0  1  0  0  0  0  0  0  0  0  0
   19.0265   26.0147   37.9408 C   0  0  1  0  0  0  0  0  0  0  0  0
   18.3966   25.3675   39.1180 C   0  0  0  0  0  0  0  0  0  0  0  0
   18.5451   24.1446   39.3353 O   0  0  0  0  0  0  0  0  0  0  0  0
   19.7945   25.5792   36.9273 N   0  0  0  0  0  0  0  0  0  0  0  0
   20.0588   26.6492   36.1425 C   0  0  0  0  0  0  0  0  0  0  0  0
   19.4604   27.7329   36.6624 N   0  0  1  0  0  0  0  0  0  0  0  0
  1  2  1  0  0  0  0
  3  1  1  6  0  0  0
  3  4  1  0  0  0  0
  3  5  1  0  0  0  0
  5  6  1  1  0  0  0
  5  7  1  0  0  0  0
  7  8  1  0  0  0  0
  8  4  1  6  0  0  0
  8 19  1  0  0  0  0
  9 15  1  0  0  0  0
  9 10  1  0  0  0  0
 10 11  1  6  0  0  0
 10 12  1  0  0  0  0
 13 12  1  6  0  0  0
 13 14  1  0  0  0  0
 13 19  1  0  0  0  0
 14 15  1  6  0  0  0
 14 17  1  0  0  0  0
 15 16  2  0  0  0  0
 17 18  1  0  0  0  0
 19 18  1  6  0  0  0
M  END
>  <CHROM.1>
-179.74320783,-75.88529588,18.75244301,27.93840893,36.57903644,-1.25120677
-1.14749979,2.44086966

>  <Name>
ligand

>  <RI>
0

>  <Rbt.Current_Directory>
/home/itssahil/PROJECTS/Mol_Feturizer/New_Systems/rnas/3SKL

>  <Rbt.Executable>
rbdock ($Id: //depot/dev/client3/rdock/2013.1/src/exe/rbdock.cxx#4 $)

>  <Rbt.Library>
libRbt.so (2013.1, Build901 2013/11/27)

>  <Rbt.Parameter_File>
/export/apps/rDock/src/rDock_2013.1_src/data/scripts/dock_solv.prm

>  <Rbt.Receptor>
prm/pocket_docking_4.prm

>  <SCORE>
-17.0332

>  <SCORE.INTER>
-17.0173

>  <SCORE.INTER.CONST>
1

>  <SCORE.INTER.POLAR>
0

>  <SCORE.INTER.ROT>
2

>  <SCORE.INTER.SOLV>
17.6185

>  <SCORE.INTER.VDW>
-22.151

>  <SCORE.INTER.norm>
-0.895647

>  <SCORE.INTRA>
-0.0158932

>  <SCORE.INTRA.DIHEDRAL>
-0.316667

>  <SCORE.INTRA.DIHEDRAL.0>
1.50031

>  <SCORE.INTRA.POLAR>
0

>  <SCORE.INTRA.POLAR.0>
0

>  <SCORE.INTRA.REPUL>
0

>  <SCORE.INTRA.REPUL.0>
0

>  <SCORE.INTRA.SOLV>
-0.435488

>  <SCORE.INTRA.SOLV.lig_0>
-37.9941

>  <SCORE.INTRA.VDW>
0.360185

>  <SCORE.INTRA.VDW.0>
-0.964461

>  <SCORE.INTRA.norm>
-0.000836483

>  <SCORE.RESTR>
0

>  <SCORE.RESTR.CAVITY>
0

>  <SCORE.RESTR.norm>
0

>  <SCORE.SYSTEM>
0

>  <SCORE.SYSTEM.CONST>
0

>  <SCORE.SYSTEM.DIHEDRAL>
0

>  <SCORE.SYSTEM.SOLV>
0

>  <SCORE.SYSTEM.norm>
0

>  <SCORE.heavy>
19

>  <SCORE.norm>
-0.896484

>  <RMSD>
0.809

$$$$
ligand
 OpenBabel11021811483D
libRbt.so/2013.1/901 2013/11/27
 19 21  0  0  0  0  0  0  0  0999 V2000
   17.8568   28.8250   33.0869 C   0  0  0  0  0  0  0  0  0  0  0  0
   18.0273   29.2567   31.7256 O   0  0  0  0  0  0  0  0  0  0  0  0
   18.4452   29.8416   34.0708 C   0  0  1  0  0  0  0  0  0  0  0  0
   18.2494   29.4079   35.4166 O   0  0  0  0  0  0  0  0  0  0  0  0
   19.9392   30.0172   33.8759 C   0  0  1  0  0  0  0  0  0  0  0  0
   20.2370   31.4136   33.9110 O   0  0  0  0  0  0  0  0  0  0  0  0
   20.6104   29.3434   35.0513 C   0  0  0  0  0  0  0  0  0  0  0  0
   19.5014   29.1381   36.0670 C   0  0  2  0  0  0  0  0  0  0  0  0
   17.6571   26.1934   39.8991 N   0  0  0  0  0  0  0  0  0  0  0  0
   17.5234   27.5198   39.6576 C   0  0  2  0  0  0  0  0  0  0  0  0
   16.7989   28.2913   40.4953 N   0  0  0  0  0  0  0  0  0  0  0  0
   18.1000   28.1055   38.5869 N   0  0  0  0  0  0  0  0  0  0  0  0
   18.8371   27.3970   37.7079 C   0  0  1  0  0  0  0  0  0  0  0  0
   19.0201   26.0458   37.8919 C   0  0  1  0  0  0  0  0  0  0  0  0
   18.3799   25.4124   39.0711 C   0  0  0  0  0  0  0  0  0  0  0  0
   18.5117   24.1887   39.2941 O   0  0  0  0  0  0  0  0  0  0  0  0
   19.7836   25.5955   36.8816 N   0  0  0  0  0  0  0  0  0  0  0  0
   20.0634   26.6583   36.0923 C   0  0  0  0  0  0  0  0  0  0  0  0
   19.4787   27.7523   36.6065 N   0  0  1  0  0  0  0  0  0  0  0  0
  1  2  1  0  0  0  0
  3  1  1  6  0  0  0
  3  4  1  0  0  0  0
  3  5  1  0  0  0  0
  5  6  1  1  0  0  0
  5  7  1  0  0  0  0
  7  8  1  0  0  0  0
  8  4  1  6  0  0  0
  8 19  1  0  0  0  0
  9 15  1  0  0  0  0
  9 10  1  0  0  0  0
 10 11  1  6  0  0  0
 10 12  1  0  0  0  0
 13 12  1  6  0  0  0
 13 14  1  0  0  0  0
 13 19  1  0  0  0  0
 14 15  1  6  0  0  0
 14 17  1  0  0  0  0
 15 16  2  0  0  0  0
 17 18  1  0  0  0  0
 19 18  1  6  0  0  0
M  END
>  <CHROM.1>
179.10950935,-76.89433205,18.78483875,27.96620158,36.51803973,-1.20474135
-1.16424591,2.47892630

>  <Name>
ligand

>  <RI>
0

>  <Rbt.Current_Directory>
/home/itssahil/PROJECTS/Mol_Feturizer/New_Systems/rnas/3SKL

>  <Rbt.Executable>
rbdock ($Id: //depot/dev/client3/rdock/2013.1/src/exe/rbdock.cxx#4 $)

>  <Rbt.Library>
libRbt.so (2013.1, Build901 2013/11/27)

>  <Rbt.Parameter_File>
/export/apps/rDock/src/rDock_2013.1_src/data/scripts/dock_solv.prm

>  <Rbt.Receptor>
prm/pocket_docking_7.prm

>  <SCORE>
-17.0386

>  <SCORE.INTER>
-17.0028

>  <SCORE.INTER.CONST>
1

>  <SCORE.INTER.POLAR>
0

>  <SCORE.INTER.ROT>
2

>  <SCORE.INTER.SOLV>
17.441

>  <SCORE.INTER.VDW>
-22.0822

>  <SCORE.INTER.norm>
-0.894884

>  <SCORE.INTRA>
-0.0358178

>  <SCORE.INTRA.DIHEDRAL>
-0.315227

>  <SCORE.INTRA.DIHEDRAL.0>
1.50031

>  <SCORE.INTRA.POLAR>
0

>  <SCORE.INTRA.POLAR.0>
0

>  <SCORE.INTRA.REPUL>
0

>  <SCORE.INTRA.REPUL.0>
0

>  <SCORE.INTRA.SOLV>
-0.441799

>  <SCORE.INTRA.SOLV.lig_0>
-37.9941

>  <SCORE.INTRA.VDW>
0.342695

>  <SCORE.INTRA.VDW.0>
-0.964461

>  <SCORE.INTRA.norm>
-0.00188515

>  <SCORE.RESTR>
0

>  <SCORE.RESTR.CAVITY>
0

>  <SCORE.RESTR.norm>
0

>  <SCORE.SYSTEM>
0

>  <SCORE.SYSTEM.CONST>
0

>  <SCORE.SYSTEM.DIHEDRAL>
0

>  <SCORE.SYSTEM.SOLV>
0

>  <SCORE.SYSTEM.norm>
0

>  <SCORE.heavy>
19

>  <SCORE.norm>
-0.896769

>  <RMSD>
0.809

$$$$
ligand
 OpenBabel11021811483D
libRbt.so/2013.1/901 2013/11/27
 19 21  0  0  0  0  0  0  0  0999 V2000
   17.8435   28.7998   33.0844 C   0  0  0  0  0  0  0  0  0  0  0  0
   18.0011   29.2365   31.7231 O   0  0  0  0  0  0  0  0  0  0  0  0
   18.4259   29.8210   34.0672 C   0  0  1  0  0  0  0  0  0  0  0  0
   18.2376   29.3850   35.4132 O   0  0  0  0  0  0  0  0  0  0  0  0
   19.9178   30.0097   33.8681 C   0  0  1  0  0  0  0  0  0  0  0  0
   20.2035   31.4086   33.9031 O   0  0  0  0  0  0  0  0  0  0  0  0
   20.5981   29.3412   35.0412 C   0  0  0  0  0  0  0  0  0  0  0  0
   19.4938   29.1257   36.0600 C   0  0  2  0  0  0  0  0  0  0  0  0
   17.7050   26.1680   39.9083 N   0  0  0  0  0  0  0  0  0  0  0  0
   17.5610   27.4937   39.6690 C   0  0  2  0  0  0  0  0  0  0  0  0
   16.8403   28.2604   40.5142 N   0  0  0  0  0  0  0  0  0  0  0  0
   18.1236   28.0834   38.5930 N   0  0  0  0  0  0  0  0  0  0  0  0
   18.8561   27.3798   37.7062 C   0  0  1  0  0  0  0  0  0  0  0  0
   19.0489   26.0296   37.8876 C   0  0  1  0  0  0  0  0  0  0  0  0
   18.4242   25.3917   39.0727 C   0  0  0  0  0  0  0  0  0  0  0  0
   18.5655   24.1687   39.2936 O   0  0  0  0  0  0  0  0  0  0  0  0
   19.8051   25.5844   36.8695 N   0  0  0  0  0  0  0  0  0  0  0  0
   20.0707   26.6493   36.0782 C   0  0  0  0  0  0  0  0  0  0  0  0
   19.4847   27.7395   36.5988 N   0  0  1  0  0  0  0  0  0  0  0  0
  1  2  1  0  0  0  0
  3  1  1  6  0  0  0
  3  4  1  0  0  0  0
  3  5  1  0  0  0  0
  5  6  1  1  0  0  0
  5  7  1  0  0  0  0
  7  8  1  0  0  0  0
  8  4  1  6  0  0  0
  8 19  1  0  0  0  0
  9 15  1  0  0  0  0
  9 10  1  0  0  0  0
 10 11  1  6  0  0  0
 10 12  1  0  0  0  0
 13 12  1  6  0  0  0
 13 14  1  0  0  0  0
 13 19  1  0  0  0  0
 14 15  1  6  0  0  0
 14 17  1  0  0  0  0
 15 16  2  0  0  0  0
 17 18  1  0  0  0  0
 19 18  1  6  0  0  0
M  END
>  <CHROM.1>
178.84885922,-77.32907972,18.79380311,27.94894050,36.51601042,-1.22332224
-1.17252297,2.46241566

>  <Name>
ligand

>  <RI>
0

>  <Rbt.Current_Directory>
/home/itssahil/PROJECTS/Mol_Feturizer/New_Systems/rnas/3SKL

>  <Rbt.Executable>
rbdock ($Id: //depot/dev/client3/rdock/2013.1/src/exe/rbdock.cxx#4 $)

>  <Rbt.Library>
libRbt.so (2013.1, Build901 2013/11/27)

>  <Rbt.Parameter_File>
/export/apps/rDock/src/rDock_2013.1_src/data/scripts/dock_solv.prm

>  <Rbt.Receptor>
prm/pocket_docking_3.prm

>  <SCORE>
-17.0306

>  <SCORE.INTER>
-16.9887

>  <SCORE.INTER.CONST>
1

>  <SCORE.INTER.POLAR>
0

>  <SCORE.INTER.ROT>
2

>  <SCORE.INTER.SOLV>
17.3513

>  <SCORE.INTER.VDW>
-22.0429

>  <SCORE.INTER.norm>
-0.894144

>  <SCORE.INTRA>
-0.041857

>  <SCORE.INTRA.DIHEDRAL>
-0.313728

>  <SCORE.INTRA.DIHEDRAL.0>
1.50031

>  <SCORE.INTRA.POLAR>
0

>  <SCORE.INTRA.POLAR.0>
0

>  <SCORE.INTRA.REPUL>
0

>  <SCORE.INTRA.REPUL.0>
0

>  <SCORE.INTRA.SOLV>
-0.443392

>  <SCORE.INTRA.SOLV.lig_0>
-37.9941

>  <SCORE.INTRA.VDW>
0.336703

>  <SCORE.INTRA.VDW.0>
-0.964461

>  <SCORE.INTRA.norm>
-0.002203

>  <SCORE.RESTR>
0

>  <SCORE.RESTR.CAVITY>
0

>  <SCORE.RESTR.norm>
0

>  <SCORE.SYSTEM>
0

>  <SCORE.SYSTEM.CONST>
0

>  <SCORE.SYSTEM.DIHEDRAL>
0

>  <SCORE.SYSTEM.SOLV>
0

>  <SCORE.SYSTEM.norm>
0

>  <SCORE.heavy>
19

>  <SCORE.norm>
-0.896347

>  <RMSD>
0.810

$$$$
ligand
 OpenBabel11021811483D
libRbt.so/2013.1/901 2013/11/27
 19 21  0  0  0  0  0  0  0  0999 V2000
   18.0373   28.7269   32.9602 C   0  0  0  0  0  0  0  0  0  0  0  0
   16.6968   28.2070   32.9973 O   0  0  0  0  0  0  0  0  0  0  0  0
   18.2456   29.8048   34.0291 C   0  0  1  0  0  0  0  0  0  0  0  0
   17.9378   29.2918   35.3250 O   0  0  0  0  0  0  0  0  0  0  0  0
   19.6836   30.2856   34.0740 C   0  0  1  0  0  0  0  0  0  0  0  0
   19.6795   31.7111   34.1615 O   0  0  0  0  0  0  0  0  0  0  0  0
   20.2893   29.7188   35.3381 C   0  0  0  0  0  0  0  0  0  0  0  0
   19.1029   29.2568   36.1645 C   0  0  2  0  0  0  0  0  0  0  0  0
   18.0801   26.1637   40.1824 N   0  0  0  0  0  0  0  0  0  0  0  0
   17.7929   27.4714   39.9750 C   0  0  2  0  0  0  0  0  0  0  0  0
   17.1220   28.1746   40.9116 N   0  0  0  0  0  0  0  0  0  0  0  0
   18.1610   28.1053   38.8416 N   0  0  0  0  0  0  0  0  0  0  0  0
   18.8329   27.4658   37.8629 C   0  0  1  0  0  0  0  0  0  0  0  0
   19.1631   26.1379   38.0064 C   0  0  1  0  0  0  0  0  0  0  0  0
   18.7516   25.4509   39.2555 C   0  0  0  0  0  0  0  0  0  0  0  0
   19.0249   24.2452   39.4459 O   0  0  0  0  0  0  0  0  0  0  0  0
   19.8192   25.7577   36.8968 N   0  0  0  0  0  0  0  0  0  0  0  0
   19.8891   26.8399   36.0875 C   0  0  0  0  0  0  0  0  0  0  0  0
   19.2821   27.8762   36.6879 N   0  0  1  0  0  0  0  0  0  0  0  0
  1  2  1  0  0  0  0
  3  1  1  6  0  0  0
  3  4  1  0  0  0  0
  3  5  1  0  0  0  0
  5  6  1  1  0  0  0
  5  7  1  0  0  0  0
  7  8  1  0  0  0  0
  8  4  1  6  0  0  0
  8 19  1  0  0  0  0
  9 15  1  0  0  0  0
  9 10  1  0  0  0  0
 10 11  1  6  0  0  0
 10 12  1  0  0  0  0
 13 12  1  6  0  0  0
 13 14  1  0  0  0  0
 13 19  1  0  0  0  0
 14 15  1  6  0  0  0
 14 17  1  0  0  0  0
 15 16  2  0  0  0  0
 17 18  1  0  0  0  0
 19 18  1  6  0  0  0
M  END
>  <CHROM.1>
56.47509686,-95.03493624,18.69394446,27.97158368,36.72782607,-1.26001528
-1.43582850,2.45459499

>  <Name>
ligand

>  <RI>
0

>  <Rbt.Current_Directory>
/home/itssahil/PROJECTS/Mol_Feturizer/New_Systems/rnas/3SKL

>  <Rbt.Executable>
rbdock ($Id: //depot/dev/client3/rdock/2013.1/src/exe/rbdock.cxx#4 $)

>  <Rbt.Library>
libRbt.so (2013.1, Build901 2013/11/27)

>  <Rbt.Parameter_File>
/export/apps/rDock/src/rDock_2013.1_src/data/scripts/dock_solv.prm

>  <Rbt.Receptor>
prm/pocket_docking_4.prm

>  <SCORE>
-16.7852

>  <SCORE.INTER>
-16.4579

>  <SCORE.INTER.CONST>
1

>  <SCORE.INTER.POLAR>
0

>  <SCORE.INTER.ROT>
2

>  <SCORE.INTER.SOLV>
16.7341

>  <SCORE.INTER.VDW>
-21.4833

>  <SCORE.INTER.norm>
-0.866203

>  <SCORE.INTRA>
-0.327358

>  <SCORE.INTRA.DIHEDRAL>
-0.278405

>  <SCORE.INTRA.DIHEDRAL.0>
1.50031

>  <SCORE.INTRA.POLAR>
0

>  <SCORE.INTRA.POLAR.0>
0

>  <SCORE.INTRA.REPUL>
0

>  <SCORE.INTRA.REPUL.0>
0

>  <SCORE.INTRA.SOLV>
-0.526328

>  <SCORE.INTRA.SOLV.lig_0>
-37.9941

>  <SCORE.INTRA.VDW>
0.0750085

>  <SCORE.INTRA.VDW.0>
-0.964461

>  <SCORE.INTRA.norm>
-0.0172294

>  <SCORE.RESTR>
0

>  <SCORE.RESTR.CAVITY>
0

>  <SCORE.RESTR.norm>
0

>  <SCORE.SYSTEM>
0

>  <SCORE.SYSTEM.CONST>
0

>  <SCORE.SYSTEM.DIHEDRAL>
0

>  <SCORE.SYSTEM.SOLV>
0

>  <SCORE.SYSTEM.norm>
0

>  <SCORE.heavy>
19

>  <SCORE.norm>
-0.883433

>  <RMSD>
0.810

$$$$
ligand
 OpenBabel11021811483D
libRbt.so/2013.1/901 2013/11/27
 19 21  0  0  0  0  0  0  0  0999 V2000
   17.8544   28.7973   33.0658 C   0  0  0  0  0  0  0  0  0  0  0  0
   18.0122   29.2371   31.7055 O   0  0  0  0  0  0  0  0  0  0  0  0
   18.4298   29.8199   34.0513 C   0  0  1  0  0  0  0  0  0  0  0  0
   18.2355   29.3838   35.3965 O   0  0  0  0  0  0  0  0  0  0  0  0
   19.9223   30.0114   33.8598 C   0  0  1  0  0  0  0  0  0  0  0  0
   20.2051   31.4109   33.8959 O   0  0  0  0  0  0  0  0  0  0  0  0
   20.5979   29.3444   35.0366 C   0  0  0  0  0  0  0  0  0  0  0  0
   19.4888   29.1270   36.0497 C   0  0  2  0  0  0  0  0  0  0  0  0
   17.7044   26.1712   39.9015 N   0  0  0  0  0  0  0  0  0  0  0  0
   17.5610   27.4970   39.6622 C   0  0  2  0  0  0  0  0  0  0  0  0
   16.8422   28.2644   40.5085 N   0  0  0  0  0  0  0  0  0  0  0  0
   18.1221   28.0861   38.5852 N   0  0  0  0  0  0  0  0  0  0  0  0
   18.8527   27.3818   37.6973 C   0  0  1  0  0  0  0  0  0  0  0  0
   19.0448   26.0315   37.8786 C   0  0  1  0  0  0  0  0  0  0  0  0
   18.4216   25.3943   39.0648 C   0  0  0  0  0  0  0  0  0  0  0  0
   18.5624   24.1712   39.2857 O   0  0  0  0  0  0  0  0  0  0  0  0
   19.7989   25.5857   36.8593 N   0  0  0  0  0  0  0  0  0  0  0  0
   20.0640   26.6502   36.0674 C   0  0  0  0  0  0  0  0  0  0  0  0
   19.4796   27.7409   36.5888 N   0  0  1  0  0  0  0  0  0  0  0  0
  1  2  1  0  0  0  0
  3  1  1  6  0  0  0
  3  4  1  0  0  0  0
  3  5  1  0  0  0  0
  5  6  1  1  0  0  0
  5  7  1  0  0  0  0
  7  8  1  0  0  0  0
  8  4  1  6  0  0  0
  8 19  1  0  0  0  0
  9 15  1  0  0  0  0
  9 10  1  0  0  0  0
 10 11  1  6  0  0  0
 10 12  1  0  0  0  0
 13 12  1  6  0  0  0
 13 14  1  0  0  0  0
 13 19  1  0  0  0  0
 14 15  1  6  0  0  0
 14 17  1  0  0  0  0
 15 16  2  0  0  0  0
 17 18  1  0  0  0  0
 19 18  1  6  0  0  0
M  END
>  <CHROM.1>
178.56607157,-77.74643966,18.79360903,27.95050298,36.50585743,-1.21602974
-1.17821981,2.46894291

>  <Name>
ligand

>  <RI>
0

>  <Rbt.Current_Directory>
/home/itssahil/PROJECTS/Mol_Feturizer/New_Systems/rnas/3SKL

>  <Rbt.Executable>
rbdock ($Id: //depot/dev/client3/rdock/2013.1/src/exe/rbdock.cxx#4 $)

>  <Rbt.Library>
libRbt.so (2013.1, Build901 2013/11/27)

>  <Rbt.Parameter_File>
/export/apps/rDock/src/rDock_2013.1_src/data/scripts/dock_solv.prm

>  <Rbt.Receptor>
prm/pocket_docking_8.prm

>  <SCORE>
-17.0329

>  <SCORE.INTER>
-16.9853

>  <SCORE.INTER.CONST>
1

>  <SCORE.INTER.POLAR>
0

>  <SCORE.INTER.ROT>
2

>  <SCORE.INTER.SOLV>
17.342

>  <SCORE.INTER.VDW>
-22.0375

>  <SCORE.INTER.norm>
-0.893965

>  <SCORE.INTRA>
-0.0475729

>  <SCORE.INTRA.DIHEDRAL>
-0.311494

>  <SCORE.INTRA.DIHEDRAL.0>
1.50031

>  <SCORE.INTRA.POLAR>
0

>  <SCORE.INTRA.POLAR.0>
0

>  <SCORE.INTRA.REPUL>
0

>  <SCORE.INTRA.REPUL.0>
0

>  <SCORE.INTRA.SOLV>
-0.44508

>  <SCORE.INTRA.SOLV.lig_0>
-37.9941

>  <SCORE.INTRA.VDW>
0.330714

>  <SCORE.INTRA.VDW.0>
-0.964461

>  <SCORE.INTRA.norm>
-0.00250384

>  <SCORE.RESTR>
0

>  <SCORE.RESTR.CAVITY>
0

>  <SCORE.RESTR.norm>
0

>  <SCORE.SYSTEM>
0

>  <SCORE.SYSTEM.CONST>
0

>  <SCORE.SYSTEM.DIHEDRAL>
0

>  <SCORE.SYSTEM.SOLV>
0

>  <SCORE.SYSTEM.norm>
0

>  <SCORE.heavy>
19

>  <SCORE.norm>
-0.896469

>  <RMSD>
0.810

$$$$
ligand
 OpenBabel11021811483D
libRbt.so/2013.1/901 2013/11/27
 19 21  0  0  0  0  0  0  0  0999 V2000
   17.8341   28.7996   33.0849 C   0  0  0  0  0  0  0  0  0  0  0  0
   17.9905   29.2399   31.7246 O   0  0  0  0  0  0  0  0  0  0  0  0
   18.4120   29.8208   34.0702 C   0  0  1  0  0  0  0  0  0  0  0  0
   18.2228   29.3821   35.4153 O   0  0  0  0  0  0  0  0  0  0  0  0
   19.9036   30.0141   33.8739 C   0  0  1  0  0  0  0  0  0  0  0  0
   20.1853   31.4137   33.9115 O   0  0  0  0  0  0  0  0  0  0  0  0
   20.5840   29.3456   35.0470 C   0  0  0  0  0  0  0  0  0  0  0  0
   19.4786   29.1254   36.0636 C   0  0  2  0  0  0  0  0  0  0  0  0
   17.7043   26.1595   39.9124 N   0  0  0  0  0  0  0  0  0  0  0  0
   17.5582   27.4855   39.6756 C   0  0  2  0  0  0  0  0  0  0  0  0
   16.8391   28.2500   40.5242 N   0  0  0  0  0  0  0  0  0  0  0  0
   18.1169   28.0775   38.5990 N   0  0  0  0  0  0  0  0  0  0  0  0
   18.8477   27.3761   37.7089 C   0  0  1  0  0  0  0  0  0  0  0  0
   19.0424   26.0258   37.8875 C   0  0  1  0  0  0  0  0  0  0  0  0
   18.4219   25.3854   39.0734 C   0  0  0  0  0  0  0  0  0  0  0  0
   18.5651   24.1622   39.2919 O   0  0  0  0  0  0  0  0  0  0  0  0
   19.7961   25.5831   36.8665 N   0  0  0  0  0  0  0  0  0  0  0  0
   20.0582   26.6496   36.0761 C   0  0  0  0  0  0  0  0  0  0  0  0
   19.4725   27.7383   36.6002 N   0  0  1  0  0  0  0  0  0  0  0  0
  1  2  1  0  0  0  0
  3  1  1  6  0  0  0
  3  4  1  0  0  0  0
  3  5  1  0  0  0  0
  5  6  1  1  0  0  0
  5  7  1  0  0  0  0
  7  8  1  0  0  0  0
  8  4  1  6  0  0  0
  8 19  1  0  0  0  0
  9 15  1  0  0  0  0
  9 10  1  0  0  0  0
 10 11  1  6  0  0  0
 10 12  1  0  0  0  0
 13 12  1  6  0  0  0
 13 14  1  0  0  0  0
 13 19  1  0  0  0  0
 14 15  1  6  0  0  0
 14 17  1  0  0  0  0
 15 16  2  0  0  0  0
 17 18  1  0  0  0  0
 19 18  1  6  0  0  0
M  END
>  <CHROM.1>
178.75207591,-77.60787633,18.78459659,27.94685025,36.51895583,-1.22426578
-1.17689558,2.46311742

>  <Name>
ligand

>  <RI>
0

>  <Rbt.Current_Directory>
/home/itssahil/PROJECTS/Mol_Feturizer/New_Systems/rnas/3SKL

>  <Rbt.Executable>
rbdock ($Id: //depot/dev/client3/rdock/2013.1/src/exe/rbdock.cxx#4 $)

>  <Rbt.Library>
libRbt.so (2013.1, Build901 2013/11/27)

>  <Rbt.Parameter_File>
/export/apps/rDock/src/rDock_2013.1_src/data/scripts/dock_solv.prm

>  <Rbt.Receptor>
prm/pocket_docking_3.prm

>  <SCORE>
-17.0306

>  <SCORE.INTER>
-16.9853

>  <SCORE.INTER.CONST>
1

>  <SCORE.INTER.POLAR>
0

>  <SCORE.INTER.ROT>
2

>  <SCORE.INTER.SOLV>
17.3867

>  <SCORE.INTER.VDW>
-22.0524

>  <SCORE.INTER.norm>
-0.893962

>  <SCORE.INTRA>
-0.0453173

>  <SCORE.INTRA.DIHEDRAL>
-0.313135

>  <SCORE.INTRA.DIHEDRAL.0>
1.50031

>  <SCORE.INTRA.POLAR>
0

>  <SCORE.INTRA.POLAR.0>
0

>  <SCORE.INTRA.REPUL>
0

>  <SCORE.INTRA.REPUL.0>
0

>  <SCORE.INTRA.SOLV>
-0.444073

>  <SCORE.INTRA.SOLV.lig_0>
-37.9941

>  <SCORE.INTRA.VDW>
0.333287

>  <SCORE.INTRA.VDW.0>
-0.964461

>  <SCORE.INTRA.norm>
-0.00238512

>  <SCORE.RESTR>
0

>  <SCORE.RESTR.CAVITY>
0

>  <SCORE.RESTR.norm>
0

>  <SCORE.SYSTEM>
0

>  <SCORE.SYSTEM.CONST>
0

>  <SCORE.SYSTEM.DIHEDRAL>
0

>  <SCORE.SYSTEM.SOLV>
0

>  <SCORE.SYSTEM.norm>
0

>  <SCORE.heavy>
19

>  <SCORE.norm>
-0.896347

>  <RMSD>
0.811

$$$$
ligand
 OpenBabel11021811483D
libRbt.so/2013.1/901 2013/11/27
 19 21  0  0  0  0  0  0  0  0999 V2000
   17.8700   28.8055   33.0541 C   0  0  0  0  0  0  0  0  0  0  0  0
   18.0346   29.2483   31.6956 O   0  0  0  0  0  0  0  0  0  0  0  0
   18.4329   29.8297   34.0451 C   0  0  1  0  0  0  0  0  0  0  0  0
   18.2296   29.3916   35.3883 O   0  0  0  0  0  0  0  0  0  0  0  0
   19.9261   30.0278   33.8659 C   0  0  1  0  0  0  0  0  0  0  0  0
   20.2026   31.4285   33.9055 O   0  0  0  0  0  0  0  0  0  0  0  0
   20.5950   29.3628   35.0476 C   0  0  0  0  0  0  0  0  0  0  0  0
   19.4786   29.1398   36.0514 C   0  0  2  0  0  0  0  0  0  0  0  0
   17.6973   26.1784   39.9005 N   0  0  0  0  0  0  0  0  0  0  0  0
   17.5523   27.5042   39.6623 C   0  0  2  0  0  0  0  0  0  0  0  0
   16.8325   28.2699   40.5092 N   0  0  0  0  0  0  0  0  0  0  0  0
   18.1129   28.0950   38.5859 N   0  0  0  0  0  0  0  0  0  0  0  0
   18.8444   27.3923   37.6975 C   0  0  1  0  0  0  0  0  0  0  0  0
   19.0382   26.0421   37.8776 C   0  0  1  0  0  0  0  0  0  0  0  0
   18.4156   25.4031   39.0632 C   0  0  0  0  0  0  0  0  0  0  0  0
   18.5579   24.1800   39.2830 O   0  0  0  0  0  0  0  0  0  0  0  0
   19.7930   25.5980   36.8580 N   0  0  0  0  0  0  0  0  0  0  0  0
   20.0568   26.6636   36.0670 C   0  0  0  0  0  0  0  0  0  0  0  0
   19.4710   27.7531   36.5893 N   0  0  1  0  0  0  0  0  0  0  0  0
  1  2  1  0  0  0  0
  3  1  1  6  0  0  0
  3  4  1  0  0  0  0
  3  5  1  0  0  0  0
  5  6  1  1  0  0  0
  5  7  1  0  0  0  0
  7  8  1  0  0  0  0
  8  4  1  6  0  0  0
  8 19  1  0  0  0  0
  9 15  1  0  0  0  0
  9 10  1  0  0  0  0
 10 11  1  6  0  0  0
 10 12  1  0  0  0  0
 13 12  1  6  0  0  0
 13 14  1  0  0  0  0
 13 19  1  0  0  0  0
 14 15  1  6  0  0  0
 14 17  1  0  0  0  0
 15 16  2  0  0  0  0
 17 18  1  0  0  0  0
 19 18  1  6  0  0  0
M  END
>  <CHROM.1>
178.45366552,-78.23943261,18.79085917,27.96143838,36.50505135,-1.20741177
-1.18209695,2.47772227

>  <Name>
ligand

>  <RI>
0

>  <Rbt.Current_Directory>
/home/itssahil/PROJECTS/Mol_Feturizer/New_Systems/rnas/3SKL

>  <Rbt.Executable>
rbdock ($Id: //depot/dev/client3/rdock/2013.1/src/exe/rbdock.cxx#4 $)

>  <Rbt.Library>
libRbt.so (2013.1, Build901 2013/11/27)

>  <Rbt.Parameter_File>
/export/apps/rDock/src/rDock_2013.1_src/data/scripts/dock_solv.prm

>  <Rbt.Receptor>
prm/pocket_docking_4.prm

>  <SCORE>
-17.0333

>  <SCORE.INTER>
-16.9799

>  <SCORE.INTER.CONST>
1

>  <SCORE.INTER.POLAR>
0

>  <SCORE.INTER.ROT>
2

>  <SCORE.INTER.SOLV>
17.3843

>  <SCORE.INTER.VDW>
-22.048

>  <SCORE.INTER.norm>
-0.893679

>  <SCORE.INTRA>
-0.0533506

>  <SCORE.INTRA.DIHEDRAL>
-0.310686

>  <SCORE.INTRA.DIHEDRAL.0>
1.50031

>  <SCORE.INTRA.POLAR>
0

>  <SCORE.INTRA.POLAR.0>
0

>  <SCORE.INTRA.REPUL>
0

>  <SCORE.INTRA.REPUL.0>
0

>  <SCORE.INTRA.SOLV>
-0.445967

>  <SCORE.INTRA.SOLV.lig_0>
-37.9941

>  <SCORE.INTRA.VDW>
0.324976

>  <SCORE.INTRA.VDW.0>
-0.964461

>  <SCORE.INTRA.norm>
-0.00280792

>  <SCORE.RESTR>
0

>  <SCORE.RESTR.CAVITY>
0

>  <SCORE.RESTR.norm>
0

>  <SCORE.SYSTEM>
0

>  <SCORE.SYSTEM.CONST>
0

>  <SCORE.SYSTEM.DIHEDRAL>
0

>  <SCORE.SYSTEM.SOLV>
0

>  <SCORE.SYSTEM.norm>
0

>  <SCORE.heavy>
19

>  <SCORE.norm>
-0.896487

>  <RMSD>
0.811

$$$$
ligand
 OpenBabel11021811483D
libRbt.so/2013.1/901 2013/11/27
 19 21  0  0  0  0  0  0  0  0999 V2000
   17.9503   28.7435   33.0262 C   0  0  0  0  0  0  0  0  0  0  0  0
   16.5968   28.2749   33.1565 O   0  0  0  0  0  0  0  0  0  0  0  0
   18.2774   29.8011   34.0857 C   0  0  1  0  0  0  0  0  0  0  0  0
   18.0060   29.3001   35.3944 O   0  0  0  0  0  0  0  0  0  0  0  0
   19.7420   30.1948   34.0579 C   0  0  1  0  0  0  0  0  0  0  0  0
   19.8279   31.6175   34.1491 O   0  0  0  0  0  0  0  0  0  0  0  0
   20.3765   29.5857   35.2877 C   0  0  0  0  0  0  0  0  0  0  0  0
   19.2083   29.1909   36.1728 C   0  0  2  0  0  0  0  0  0  0  0  0
   17.8533   26.0438   40.0481 N   0  0  0  0  0  0  0  0  0  0  0  0
   17.5988   27.3588   39.8439 C   0  0  2  0  0  0  0  0  0  0  0  0
   16.8698   28.0551   40.7413 N   0  0  0  0  0  0  0  0  0  0  0  0
   18.0574   28.0068   38.7522 N   0  0  0  0  0  0  0  0  0  0  0  0
   18.7913   27.3749   37.8140 C   0  0  1  0  0  0  0  0  0  0  0  0
   19.0931   26.0402   37.9573 C   0  0  1  0  0  0  0  0  0  0  0  0
   18.5821   25.3377   39.1601 C   0  0  0  0  0  0  0  0  0  0  0  0
   18.8252   24.1253   39.3482 O   0  0  0  0  0  0  0  0  0  0  0  0
   19.8243   25.6700   36.8920 N   0  0  0  0  0  0  0  0  0  0  0  0
   19.9673   26.7648   36.1099 C   0  0  0  0  0  0  0  0  0  0  0  0
   19.3310   27.7991   36.6828 N   0  0  1  0  0  0  0  0  0  0  0  0
  1  2  1  0  0  0  0
  3  1  1  6  0  0  0
  3  4  1  0  0  0  0
  3  5  1  0  0  0  0
  5  6  1  1  0  0  0
  5  7  1  0  0  0  0
  7  8  1  0  0  0  0
  8  4  1  6  0  0  0
  8 19  1  0  0  0  0
  9 15  1  0  0  0  0
  9 10  1  0  0  0  0
 10 11  1  6  0  0  0
 10 12  1  0  0  0  0
 13 12  1  6  0  0  0
 13 14  1  0  0  0  0
 13 19  1  0  0  0  0
 14 15  1  6  0  0  0
 14 17  1  0  0  0  0
 15 16  2  0  0  0  0
 17 18  1  0  0  0  0
 19 18  1  6  0  0  0
M  END
>  <CHROM.1>
54.72178880,-87.35937782,18.65200707,27.89946418,36.70279569,-1.27748744
-1.29709681,2.46065139

>  <Name>
ligand

>  <RI>
0

>  <Rbt.Current_Directory>
/home/itssahil/PROJECTS/Mol_Feturizer/New_Systems/rnas/3SKL

>  <Rbt.Executable>
rbdock ($Id: //depot/dev/client3/rdock/2013.1/src/exe/rbdock.cxx#4 $)

>  <Rbt.Library>
libRbt.so (2013.1, Build901 2013/11/27)

>  <Rbt.Parameter_File>
/export/apps/rDock/src/rDock_2013.1_src/data/scripts/dock_solv.prm

>  <Rbt.Receptor>
prm/pocket_docking_5.prm

>  <SCORE>
-16.8123

>  <SCORE.INTER>
-16.6054

>  <SCORE.INTER.CONST>
1

>  <SCORE.INTER.POLAR>
0

>  <SCORE.INTER.ROT>
2

>  <SCORE.INTER.SOLV>
17.1452

>  <SCORE.INTER.VDW>
-21.7186

>  <SCORE.INTER.norm>
-0.873966

>  <SCORE.INTRA>
-0.206944

>  <SCORE.INTRA.DIHEDRAL>
-0.224454

>  <SCORE.INTRA.DIHEDRAL.0>
1.50031

>  <SCORE.INTRA.POLAR>
0

>  <SCORE.INTRA.POLAR.0>
0

>  <SCORE.INTRA.REPUL>
0

>  <SCORE.INTRA.REPUL.0>
0

>  <SCORE.INTRA.SOLV>
-0.512307

>  <SCORE.INTRA.SOLV.lig_0>
-37.9941

>  <SCORE.INTRA.VDW>
0.161436

>  <SCORE.INTRA.VDW.0>
-0.964461

>  <SCORE.INTRA.norm>
-0.0108918

>  <SCORE.RESTR>
0

>  <SCORE.RESTR.CAVITY>
0

>  <SCORE.RESTR.norm>
0

>  <SCORE.SYSTEM>
0

>  <SCORE.SYSTEM.CONST>
0

>  <SCORE.SYSTEM.DIHEDRAL>
0

>  <SCORE.SYSTEM.SOLV>
0

>  <SCORE.SYSTEM.norm>
0

>  <SCORE.heavy>
19

>  <SCORE.norm>
-0.884858

>  <RMSD>
0.811

$$$$
ligand
 OpenBabel11021811483D
libRbt.so/2013.1/901 2013/11/27
 19 21  0  0  0  0  0  0  0  0999 V2000
   17.8658   28.7957   33.0680 C   0  0  0  0  0  0  0  0  0  0  0  0
   18.0270   29.2448   31.7112 O   0  0  0  0  0  0  0  0  0  0  0  0
   18.4211   29.8204   34.0629 C   0  0  1  0  0  0  0  0  0  0  0  0
   18.2162   29.3783   35.4045 O   0  0  0  0  0  0  0  0  0  0  0  0
   19.9137   30.0260   33.8882 C   0  0  1  0  0  0  0  0  0  0  0  0
   20.1834   31.4279   33.9316 O   0  0  0  0  0  0  0  0  0  0  0  0
   20.5827   29.3616   35.0702 C   0  0  0  0  0  0  0  0  0  0  0  0
   19.4647   29.1309   36.0705 C   0  0  2  0  0  0  0  0  0  0  0  0
   17.7020   26.1561   39.9178 N   0  0  0  0  0  0  0  0  0  0  0  0
   17.5528   27.4821   39.6830 C   0  0  2  0  0  0  0  0  0  0  0  0
   16.8334   28.2440   40.5337 N   0  0  0  0  0  0  0  0  0  0  0  0
   18.1088   28.0768   38.6064 N   0  0  0  0  0  0  0  0  0  0  0  0
   18.8397   27.3781   37.7143 C   0  0  1  0  0  0  0  0  0  0  0  0
   19.0375   26.0280   37.8908 C   0  0  1  0  0  0  0  0  0  0  0  0
   18.4200   25.3847   39.0767 C   0  0  0  0  0  0  0  0  0  0  0  0
   18.5661   24.1614   39.2934 O   0  0  0  0  0  0  0  0  0  0  0  0
   19.7906   25.5883   36.8681 N   0  0  0  0  0  0  0  0  0  0  0  0
   20.0494   26.6563   36.0788 C   0  0  0  0  0  0  0  0  0  0  0  0
   19.4622   27.7431   36.6052 N   0  0  1  0  0  0  0  0  0  0  0  0
  1  2  1  0  0  0  0
  3  1  1  6  0  0  0
  3  4  1  0  0  0  0
  3  5  1  0  0  0  0
  5  6  1  1  0  0  0
  5  7  1  0  0  0  0
  7  8  1  0  0  0  0
  8  4  1  6  0  0  0
  8 19  1  0  0  0  0
  9 15  1  0  0  0  0
  9 10  1  0  0  0  0
 10 11  1  6  0  0  0
 10 12  1  0  0  0  0
 13 12  1  6  0  0  0
 13 14  1  0  0  0  0
 13 19  1  0  0  0  0
 14 15  1  6  0  0  0
 14 17  1  0  0  0  0
 15 16  2  0  0  0  0
 17 18  1  0  0  0  0
 19 18  1  6  0  0  0
M  END
>  <CHROM.1>
178.21627449,-78.57832523,18.78522229,27.94953485,36.52238673,-1.21051093
-1.18565280,2.47708905

>  <Name>
ligand

>  <RI>
0

>  <Rbt.Current_Directory>
/home/itssahil/PROJECTS/Mol_Feturizer/New_Systems/rnas/3SKL

>  <Rbt.Executable>
rbdock ($Id: //depot/dev/client3/rdock/2013.1/src/exe/rbdock.cxx#4 $)

>  <Rbt.Library>
libRbt.so (2013.1, Build901 2013/11/27)

>  <Rbt.Parameter_File>
/export/apps/rDock/src/rDock_2013.1_src/data/scripts/dock_solv.prm

>  <Rbt.Receptor>
prm/pocket_docking_7.prm

>  <SCORE>
-17.0326

>  <SCORE.INTER>
-16.9748

>  <SCORE.INTER.CONST>
1

>  <SCORE.INTER.POLAR>
0

>  <SCORE.INTER.ROT>
2

>  <SCORE.INTER.SOLV>
17.4069

>  <SCORE.INTER.VDW>
-22.0522

>  <SCORE.INTER.norm>
-0.893412

>  <SCORE.INTRA>
-0.0577407

>  <SCORE.INTRA.DIHEDRAL>
-0.308147

>  <SCORE.INTRA.DIHEDRAL.0>
1.50031

>  <SCORE.INTRA.POLAR>
0

>  <SCORE.INTRA.POLAR.0>
0

>  <SCORE.INTRA.REPUL>
0

>  <SCORE.INTRA.REPUL.0>
0

>  <SCORE.INTRA.SOLV>
-0.447347

>  <SCORE.INTRA.SOLV.lig_0>
-37.9941

>  <SCORE.INTRA.VDW>
0.320006

>  <SCORE.INTRA.VDW.0>
-0.964461

>  <SCORE.INTRA.norm>
-0.00303898

>  <SCORE.RESTR>
0

>  <SCORE.RESTR.CAVITY>
0

>  <SCORE.RESTR.norm>
0

>  <SCORE.SYSTEM>
0

>  <SCORE.SYSTEM.CONST>
0

>  <SCORE.SYSTEM.DIHEDRAL>
0

>  <SCORE.SYSTEM.SOLV>
0

>  <SCORE.SYSTEM.norm>
0

>  <SCORE.heavy>
19

>  <SCORE.norm>
-0.896451

>  <RMSD>
0.811

$$$$
ligand
 OpenBabel11021811483D
libRbt.so/2013.1/901 2013/11/27
 19 21  0  0  0  0  0  0  0  0999 V2000
   17.8628   28.8035   33.0674 C   0  0  0  0  0  0  0  0  0  0  0  0
   18.0304   29.2500   31.7105 O   0  0  0  0  0  0  0  0  0  0  0  0
   18.4200   29.8268   34.0626 C   0  0  1  0  0  0  0  0  0  0  0  0
   18.2159   29.3838   35.4040 O   0  0  0  0  0  0  0  0  0  0  0  0
   19.9128   30.0310   33.8868 C   0  0  1  0  0  0  0  0  0  0  0  0
   20.1840   31.4325   33.9311 O   0  0  0  0  0  0  0  0  0  0  0  0
   20.5820   29.3649   35.0676 C   0  0  0  0  0  0  0  0  0  0  0  0
   19.4647   29.1346   36.0687 C   0  0  2  0  0  0  0  0  0  0  0  0
   17.6989   26.1578   39.9130 N   0  0  0  0  0  0  0  0  0  0  0  0
   17.5506   27.4841   39.6793 C   0  0  2  0  0  0  0  0  0  0  0  0
   16.8313   28.2457   40.5303 N   0  0  0  0  0  0  0  0  0  0  0  0
   18.1073   28.0793   38.6033 N   0  0  0  0  0  0  0  0  0  0  0  0
   18.8381   27.3808   37.7109 C   0  0  1  0  0  0  0  0  0  0  0  0
   19.0351   26.0305   37.8865 C   0  0  1  0  0  0  0  0  0  0  0  0
   18.4167   25.3866   39.0716 C   0  0  0  0  0  0  0  0  0  0  0  0
   18.5620   24.1631   39.2873 O   0  0  0  0  0  0  0  0  0  0  0  0
   19.7883   25.5911   36.8637 N   0  0  0  0  0  0  0  0  0  0  0  0
   20.0479   26.6597   36.0753 C   0  0  0  0  0  0  0  0  0  0  0  0
   19.4612   27.7463   36.6024 N   0  0  1  0  0  0  0  0  0  0  0  0
  1  2  1  0  0  0  0
  3  1  1  6  0  0  0
  3  4  1  0  0  0  0
  3  5  1  0  0  0  0
  5  6  1  1  0  0  0
  5  7  1  0  0  0  0
  7  8  1  0  0  0  0
  8  4  1  6  0  0  0
  8 19  1  0  0  0  0
  9 15  1  0  0  0  0
  9 10  1  0  0  0  0
 10 11  1  6  0  0  0
 10 12  1  0  0  0  0
 13 12  1  6  0  0  0
 13 14  1  0  0  0  0
 13 19  1  0  0  0  0
 14 15  1  6  0  0  0
 14 17  1  0  0  0  0
 15 16  2  0  0  0  0
 17 18  1  0  0  0  0
 19 18  1  6  0  0  0
M  END
>  <CHROM.1>
178.55656574,-78.50310727,18.78385169,27.95312614,36.51964783,-1.20934031
-1.18535661,2.47892085

>  <Name>
ligand

>  <RI>
0

>  <Rbt.Current_Directory>
/home/itssahil/PROJECTS/Mol_Feturizer/New_Systems/rnas/3SKL

>  <Rbt.Executable>
rbdock ($Id: //depot/dev/client3/rdock/2013.1/src/exe/rbdock.cxx#4 $)

>  <Rbt.Library>
libRbt.so (2013.1, Build901 2013/11/27)

>  <Rbt.Parameter_File>
/export/apps/rDock/src/rDock_2013.1_src/data/scripts/dock_solv.prm

>  <Rbt.Receptor>
prm/pocket_docking_3.prm

>  <SCORE>
-17.0321

>  <SCORE.INTER>
-16.9762

>  <SCORE.INTER.CONST>
1

>  <SCORE.INTER.POLAR>
0

>  <SCORE.INTER.ROT>
2

>  <SCORE.INTER.SOLV>
17.4191

>  <SCORE.INTER.VDW>
-22.0572

>  <SCORE.INTER.norm>
-0.893482

>  <SCORE.INTRA>
-0.0559113

>  <SCORE.INTRA.DIHEDRAL>
-0.311957

>  <SCORE.INTRA.DIHEDRAL.0>
1.50031

>  <SCORE.INTRA.POLAR>
0

>  <SCORE.INTRA.POLAR.0>
0

>  <SCORE.INTRA.REPUL>
0

>  <SCORE.INTRA.REPUL.0>
0

>  <SCORE.INTRA.SOLV>
-0.445646

>  <SCORE.INTRA.SOLV.lig_0>
-37.9941

>  <SCORE.INTRA.VDW>
0.32289

>  <SCORE.INTRA.VDW.0>
-0.964461

>  <SCORE.INTRA.norm>
-0.0029427

>  <SCORE.RESTR>
0

>  <SCORE.RESTR.CAVITY>
0

>  <SCORE.RESTR.norm>
0

>  <SCORE.SYSTEM>
0

>  <SCORE.SYSTEM.CONST>
0

>  <SCORE.SYSTEM.DIHEDRAL>
0

>  <SCORE.SYSTEM.SOLV>
0

>  <SCORE.SYSTEM.norm>
0

>  <SCORE.heavy>
19

>  <SCORE.norm>
-0.896425

>  <RMSD>
0.812

$$$$
ligand
 OpenBabel11021811483D
libRbt.so/2013.1/901 2013/11/27
 19 21  0  0  0  0  0  0  0  0999 V2000
   17.9070   28.7992   33.0402 C   0  0  0  0  0  0  0  0  0  0  0  0
   18.0894   29.2444   31.6848 O   0  0  0  0  0  0  0  0  0  0  0  0
   18.4555   29.8222   34.0404 C   0  0  1  0  0  0  0  0  0  0  0  0
   18.2376   29.3801   35.3800 O   0  0  0  0  0  0  0  0  0  0  0  0
   19.9502   30.0248   33.8793 C   0  0  1  0  0  0  0  0  0  0  0  0
   20.2224   31.4261   33.9257 O   0  0  0  0  0  0  0  0  0  0  0  0
   20.6070   29.3584   35.0670 C   0  0  0  0  0  0  0  0  0  0  0  0
   19.4795   29.1298   36.0571 C   0  0  2  0  0  0  0  0  0  0  0  0
   17.6994   26.1632   39.9026 N   0  0  0  0  0  0  0  0  0  0  0  0
   17.5576   27.4900   39.6684 C   0  0  2  0  0  0  0  0  0  0  0  0
   16.8421   28.2555   40.5192 N   0  0  0  0  0  0  0  0  0  0  0  0
   18.1171   28.0821   38.5921 N   0  0  0  0  0  0  0  0  0  0  0  0
   18.8444   27.3798   37.7000 C   0  0  1  0  0  0  0  0  0  0  0  0
   19.0348   26.0285   37.8760 C   0  0  1  0  0  0  0  0  0  0  0  0
   18.4134   25.3881   39.0614 C   0  0  0  0  0  0  0  0  0  0  0  0
   18.5527   24.1640   39.2776 O   0  0  0  0  0  0  0  0  0  0  0  0
   19.7857   25.5851   36.8533 N   0  0  0  0  0  0  0  0  0  0  0  0
   20.0506   26.6520   36.0645 C   0  0  0  0  0  0  0  0  0  0  0  0
   19.4693   27.7418   36.5912 N   0  0  1  0  0  0  0  0  0  0  0  0
  1  2  1  0  0  0  0
  3  1  1  6  0  0  0
  3  4  1  0  0  0  0
  3  5  1  0  0  0  0
  5  6  1  1  0  0  0
  5  7  1  0  0  0  0
  7  8  1  0  0  0  0
  8  4  1  6  0  0  0
  8 19  1  0  0  0  0
  9 15  1  0  0  0  0
  9 10  1  0  0  0  0
 10 11  1  6  0  0  0
 10 12  1  0  0  0  0
 13 12  1  6  0  0  0
 13 14  1  0  0  0  0
 13 19  1  0  0  0  0
 14 15  1  6  0  0  0
 14 17  1  0  0  0  0
 15 16  2  0  0  0  0
 17 18  1  0  0  0  0
 19 18  1  6  0  0  0
M  END
>  <CHROM.1>
178.59992534,-79.11470608,18.80065761,27.95112626,36.50677073,-1.18459521
-1.19395303,2.50138971

>  <Name>
ligand

>  <RI>
0

>  <Rbt.Current_Directory>
/home/itssahil/PROJECTS/Mol_Feturizer/New_Systems/rnas/3SKL

>  <Rbt.Executable>
rbdock ($Id: //depot/dev/client3/rdock/2013.1/src/exe/rbdock.cxx#4 $)

>  <Rbt.Library>
libRbt.so (2013.1, Build901 2013/11/27)

>  <Rbt.Parameter_File>
/export/apps/rDock/src/rDock_2013.1_src/data/scripts/dock_solv.prm

>  <Rbt.Receptor>
prm/pocket_docking_3.prm

>  <SCORE>
-17.0223

>  <SCORE.INTER>
-16.9597

>  <SCORE.INTER.CONST>
1

>  <SCORE.INTER.POLAR>
0

>  <SCORE.INTER.ROT>
2

>  <SCORE.INTER.SOLV>
17.3288

>  <SCORE.INTER.VDW>
-22.0161

>  <SCORE.INTER.norm>
-0.892615

>  <SCORE.INTRA>
-0.0625773

>  <SCORE.INTRA.DIHEDRAL>
-0.312817

>  <SCORE.INTRA.DIHEDRAL.0>
1.50031

>  <SCORE.INTRA.POLAR>
0

>  <SCORE.INTRA.POLAR.0>
0

>  <SCORE.INTRA.REPUL>
0

>  <SCORE.INTRA.REPUL.0>
0

>  <SCORE.INTRA.SOLV>
-0.44585

>  <SCORE.INTRA.SOLV.lig_0>
-37.9941

>  <SCORE.INTRA.VDW>
0.316756

>  <SCORE.INTRA.VDW.0>
-0.964461

>  <SCORE.INTRA.norm>
-0.00329354

>  <SCORE.RESTR>
0

>  <SCORE.RESTR.CAVITY>
0

>  <SCORE.RESTR.norm>
0

>  <SCORE.SYSTEM>
0

>  <SCORE.SYSTEM.CONST>
0

>  <SCORE.SYSTEM.DIHEDRAL>
0

>  <SCORE.SYSTEM.SOLV>
0

>  <SCORE.SYSTEM.norm>
0

>  <SCORE.heavy>
19

>  <SCORE.norm>
-0.895908

>  <RMSD>
0.812

$$$$
ligand
 OpenBabel11021811483D
libRbt.so/2013.1/901 2013/11/27
 19 21  0  0  0  0  0  0  0  0999 V2000
   17.8618   28.8037   33.0694 C   0  0  0  0  0  0  0  0  0  0  0  0
   18.0296   29.2442   31.7106 O   0  0  0  0  0  0  0  0  0  0  0  0
   18.4282   29.8266   34.0598 C   0  0  1  0  0  0  0  0  0  0  0  0
   18.2290   29.3870   35.4031 O   0  0  0  0  0  0  0  0  0  0  0  0
   19.9208   30.0244   33.8761 C   0  0  1  0  0  0  0  0  0  0  0  0
   20.1979   31.4250   33.9164 O   0  0  0  0  0  0  0  0  0  0  0  0
   20.5933   29.3578   35.0549 C   0  0  0  0  0  0  0  0  0  0  0  0
   19.4801   29.1340   36.0620 C   0  0  2  0  0  0  0  0  0  0  0  0
   17.6997   26.1661   39.9065 N   0  0  0  0  0  0  0  0  0  0  0  0
   17.5533   27.4921   39.6697 C   0  0  2  0  0  0  0  0  0  0  0  0
   16.8320   28.2560   40.5170 N   0  0  0  0  0  0  0  0  0  0  0  0
   18.1138   28.0847   38.5943 N   0  0  0  0  0  0  0  0  0  0  0  0
   18.8468   27.3839   37.7056 C   0  0  1  0  0  0  0  0  0  0  0  0
   19.0420   26.0337   37.8843 C   0  0  1  0  0  0  0  0  0  0  0  0
   18.4194   25.3926   39.0688 C   0  0  0  0  0  0  0  0  0  0  0  0
   18.5630   24.1694   39.2873 O   0  0  0  0  0  0  0  0  0  0  0  0
   19.7980   25.5917   36.8648 N   0  0  0  0  0  0  0  0  0  0  0  0
   20.0611   26.6585   36.0752 C   0  0  0  0  0  0  0  0  0  0  0  0
   19.4737   27.7467   36.5983 N   0  0  1  0  0  0  0  0  0  0  0  0
  1  2  1  0  0  0  0
  3  1  1  6  0  0  0
  3  4  1  0  0  0  0
  3  5  1  0  0  0  0
  5  6  1  1  0  0  0
  5  7  1  0  0  0  0
  7  8  1  0  0  0  0
  8  4  1  6  0  0  0
  8 19  1  0  0  0  0
  9 15  1  0  0  0  0
  9 10  1  0  0  0  0
 10 11  1  6  0  0  0
 10 12  1  0  0  0  0
 13 12  1  6  0  0  0
 13 14  1  0  0  0  0
 13 19  1  0  0  0  0
 14 15  1  6  0  0  0
 14 17  1  0  0  0  0
 15 16  2  0  0  0  0
 17 18  1  0  0  0  0
 19 18  1  6  0  0  0
M  END
>  <CHROM.1>
178.80980850,-78.00269555,18.79084120,27.95438506,36.51451330,-1.21302163
-1.17892521,2.47365035

>  <Name>
ligand

>  <RI>
0

>  <Rbt.Current_Directory>
/home/itssahil/PROJECTS/Mol_Feturizer/New_Systems/rnas/3SKL

>  <Rbt.Executable>
rbdock ($Id: //depot/dev/client3/rdock/2013.1/src/exe/rbdock.cxx#4 $)

>  <Rbt.Library>
libRbt.so (2013.1, Build901 2013/11/27)

>  <Rbt.Parameter_File>
/export/apps/rDock/src/rDock_2013.1_src/data/scripts/dock_solv.prm

>  <Rbt.Receptor>
prm/pocket_docking_4.prm

>  <SCORE>
-17.0323

>  <SCORE.INTER>
-16.9829

>  <SCORE.INTER.CONST>
1

>  <SCORE.INTER.POLAR>
0

>  <SCORE.INTER.ROT>
2

>  <SCORE.INTER.SOLV>
17.3867

>  <SCORE.INTER.VDW>
-22.0508

>  <SCORE.INTER.norm>
-0.893839

>  <SCORE.INTRA>
-0.0493614

>  <SCORE.INTRA.DIHEDRAL>
-0.313924

>  <SCORE.INTRA.DIHEDRAL.0>
1.50031

>  <SCORE.INTRA.POLAR>
0

>  <SCORE.INTRA.POLAR.0>
0

>  <SCORE.INTRA.REPUL>
0

>  <SCORE.INTRA.REPUL.0>
0

>  <SCORE.INTRA.SOLV>
-0.444082

>  <SCORE.INTRA.SOLV.lig_0>
-37.9941

>  <SCORE.INTRA.VDW>
0.329642

>  <SCORE.INTRA.VDW.0>
-0.964461

>  <SCORE.INTRA.norm>
-0.00259797

>  <SCORE.RESTR>
0

>  <SCORE.RESTR.CAVITY>
0

>  <SCORE.RESTR.norm>
0

>  <SCORE.SYSTEM>
0

>  <SCORE.SYSTEM.CONST>
0

>  <SCORE.SYSTEM.DIHEDRAL>
0

>  <SCORE.SYSTEM.SOLV>
0

>  <SCORE.SYSTEM.norm>
0

>  <SCORE.heavy>
19

>  <SCORE.norm>
-0.896437

>  <RMSD>
0.812

$$$$
ligand
 OpenBabel11021811483D
libRbt.so/2013.1/901 2013/11/27
 19 21  0  0  0  0  0  0  0  0999 V2000
   18.0321   28.7365   32.9014 C   0  0  0  0  0  0  0  0  0  0  0  0
   16.6965   28.2037   32.9314 O   0  0  0  0  0  0  0  0  0  0  0  0
   18.2237   29.8184   33.9695 C   0  0  1  0  0  0  0  0  0  0  0  0
   17.9174   29.3034   35.2650 O   0  0  0  0  0  0  0  0  0  0  0  0
   19.6555   30.3165   34.0188 C   0  0  1  0  0  0  0  0  0  0  0  0
   19.6339   31.7420   34.1043 O   0  0  0  0  0  0  0  0  0  0  0  0
   20.2636   29.7589   35.2859 C   0  0  0  0  0  0  0  0  0  0  0  0
   19.0799   29.2837   36.1087 C   0  0  2  0  0  0  0  0  0  0  0  0
   18.0907   26.1875   40.1326 N   0  0  0  0  0  0  0  0  0  0  0  0
   17.7895   27.4916   39.9227 C   0  0  2  0  0  0  0  0  0  0  0  0
   17.1112   28.1893   40.8581 N   0  0  0  0  0  0  0  0  0  0  0  0
   18.1507   28.1272   38.7881 N   0  0  0  0  0  0  0  0  0  0  0  0
   18.8293   27.4932   37.8105 C   0  0  1  0  0  0  0  0  0  0  0  0
   19.1737   26.1691   37.9566 C   0  0  1  0  0  0  0  0  0  0  0  0
   18.7696   25.4802   39.2070 C   0  0  0  0  0  0  0  0  0  0  0  0
   19.0559   24.2779   39.3997 O   0  0  0  0  0  0  0  0  0  0  0  0
   19.8337   25.7939   36.8475 N   0  0  0  0  0  0  0  0  0  0  0  0
   19.8919   26.8752   36.0362 C   0  0  0  0  0  0  0  0  0  0  0  0
   19.2739   27.9061   36.6347 N   0  0  1  0  0  0  0  0  0  0  0  0
  1  2  1  0  0  0  0
  3  1  1  6  0  0  0
  3  4  1  0  0  0  0
  3  5  1  0  0  0  0
  5  6  1  1  0  0  0
  5  7  1  0  0  0  0
  7  8  1  0  0  0  0
  8  4  1  6  0  0  0
  8 19  1  0  0  0  0
  9 15  1  0  0  0  0
  9 10  1  0  0  0  0
 10 11  1  6  0  0  0
 10 12  1  0  0  0  0
 13 12  1  6  0  0  0
 13 14  1  0  0  0  0
 13 19  1  0  0  0  0
 14 15  1  6  0  0  0
 14 17  1  0  0  0  0
 15 16  2  0  0  0  0
 17 18  1  0  0  0  0
 19 18  1  6  0  0  0
M  END
>  <CHROM.1>
56.67665690,-95.26152388,18.68737070,27.99560242,36.67371959,-1.31046183
-1.43011986,2.40244971

>  <Name>
ligand

>  <RI>
0

>  <Rbt.Current_Directory>
/home/itssahil/PROJECTS/Mol_Feturizer/New_Systems/rnas/3SKL

>  <Rbt.Executable>
rbdock ($Id: //depot/dev/client3/rdock/2013.1/src/exe/rbdock.cxx#4 $)

>  <Rbt.Library>
libRbt.so (2013.1, Build901 2013/11/27)

>  <Rbt.Parameter_File>
/export/apps/rDock/src/rDock_2013.1_src/data/scripts/dock_solv.prm

>  <Rbt.Receptor>
prm/pocket_docking_6.prm

>  <SCORE>
-16.7279

>  <SCORE.INTER>
-16.3944

>  <SCORE.INTER.CONST>
1

>  <SCORE.INTER.POLAR>
0

>  <SCORE.INTER.ROT>
2

>  <SCORE.INTER.SOLV>
16.8487

>  <SCORE.INTER.VDW>
-21.4791

>  <SCORE.INTER.norm>
-0.862861

>  <SCORE.INTRA>
-0.333506

>  <SCORE.INTRA.DIHEDRAL>
-0.283225

>  <SCORE.INTRA.DIHEDRAL.0>
1.50031

>  <SCORE.INTRA.POLAR>
0

>  <SCORE.INTRA.POLAR.0>
0

>  <SCORE.INTRA.REPUL>
0

>  <SCORE.INTRA.REPUL.0>
0

>  <SCORE.INTRA.SOLV>
-0.527506

>  <SCORE.INTRA.SOLV.lig_0>
-37.9941

>  <SCORE.INTRA.VDW>
0.0718595

>  <SCORE.INTRA.VDW.0>
-0.964461

>  <SCORE.INTRA.norm>
-0.0175529

>  <SCORE.RESTR>
0

>  <SCORE.RESTR.CAVITY>
0

>  <SCORE.RESTR.norm>
0

>  <SCORE.SYSTEM>
0

>  <SCORE.SYSTEM.CONST>
0

>  <SCORE.SYSTEM.DIHEDRAL>
0

>  <SCORE.SYSTEM.SOLV>
0

>  <SCORE.SYSTEM.norm>
0

>  <SCORE.heavy>
19

>  <SCORE.norm>
-0.880414

>  <RMSD>
0.812

$$$$
ligand
 OpenBabel11021811483D
libRbt.so/2013.1/901 2013/11/27
 19 21  0  0  0  0  0  0  0  0999 V2000
   17.9269   28.8049   33.0336 C   0  0  0  0  0  0  0  0  0  0  0  0
   18.1217   29.2475   31.6791 O   0  0  0  0  0  0  0  0  0  0  0  0
   18.4664   29.8298   34.0369 C   0  0  1  0  0  0  0  0  0  0  0  0
   18.2422   29.3871   35.3752 O   0  0  0  0  0  0  0  0  0  0  0  0
   19.9613   30.0371   33.8843 C   0  0  1  0  0  0  0  0  0  0  0  0
   20.2288   31.4392   33.9321 O   0  0  0  0  0  0  0  0  0  0  0  0
   20.6134   29.3730   35.0758 C   0  0  0  0  0  0  0  0  0  0  0  0
   19.4810   29.1409   36.0595 C   0  0  2  0  0  0  0  0  0  0  0  0
   17.6936   26.1703   39.8986 N   0  0  0  0  0  0  0  0  0  0  0  0
   17.5495   27.4968   39.6637 C   0  0  2  0  0  0  0  0  0  0  0  0
   16.8289   28.2607   40.5117 N   0  0  0  0  0  0  0  0  0  0  0  0
   18.1116   28.0901   38.5895 N   0  0  0  0  0  0  0  0  0  0  0  0
   18.8440   27.3895   37.7002 C   0  0  1  0  0  0  0  0  0  0  0  0
   19.0369   26.0387   37.8771 C   0  0  1  0  0  0  0  0  0  0  0  0
   18.4126   25.3969   39.0602 C   0  0  0  0  0  0  0  0  0  0  0  0
   18.5541   24.1732   39.2770 O   0  0  0  0  0  0  0  0  0  0  0  0
   19.7928   25.5970   36.8573 N   0  0  0  0  0  0  0  0  0  0  0  0
   20.0581   26.6645   36.0694 C   0  0  0  0  0  0  0  0  0  0  0  0
   19.4721   27.7529   36.5937 N   0  0  1  0  0  0  0  0  0  0  0  0
  1  2  1  0  0  0  0
  3  1  1  6  0  0  0
  3  4  1  0  0  0  0
  3  5  1  0  0  0  0
  5  6  1  1  0  0  0
  5  7  1  0  0  0  0
  7  8  1  0  0  0  0
  8  4  1  6  0  0  0
  8 19  1  0  0  0  0
  9 15  1  0  0  0  0
  9 10  1  0  0  0  0
 10 11  1  6  0  0  0
 10 12  1  0  0  0  0
 13 12  1  6  0  0  0
 13 14  1  0  0  0  0
 13 19  1  0  0  0  0
 14 15  1  6  0  0  0
 14 17  1  0  0  0  0
 15 16  2  0  0  0  0
 17 18  1  0  0  0  0
 19 18  1  6  0  0  0
M  END
>  <CHROM.1>
178.88901792,-79.23509996,18.80522115,27.96027791,36.50640576,-1.18005252
-1.19073774,2.50542561

>  <Name>
ligand

>  <RI>
0

>  <Rbt.Current_Directory>
/home/itssahil/PROJECTS/Mol_Feturizer/New_Systems/rnas/3SKL

>  <Rbt.Executable>
rbdock ($Id: //depot/dev/client3/rdock/2013.1/src/exe/rbdock.cxx#4 $)

>  <Rbt.Library>
libRbt.so (2013.1, Build901 2013/11/27)

>  <Rbt.Parameter_File>
/export/apps/rDock/src/rDock_2013.1_src/data/scripts/dock_solv.prm

>  <Rbt.Receptor>
prm/blind_docking_60.prm

>  <SCORE>
-17.0375

>  <SCORE.INTER>
-16.9748

>  <SCORE.INTER.CONST>
1

>  <SCORE.INTER.POLAR>
0

>  <SCORE.INTER.ROT>
2

>  <SCORE.INTER.SOLV>
17.3455

>  <SCORE.INTER.VDW>
-22.0317

>  <SCORE.INTER.norm>
-0.893411

>  <SCORE.INTRA>
-0.0626714

>  <SCORE.INTRA.DIHEDRAL>
-0.315434

>  <SCORE.INTRA.DIHEDRAL.0>
1.50031

>  <SCORE.INTRA.POLAR>
0

>  <SCORE.INTRA.POLAR.0>
0

>  <SCORE.INTRA.REPUL>
0

>  <SCORE.INTRA.REPUL.0>
0

>  <SCORE.INTRA.SOLV>
-0.444531

>  <SCORE.INTRA.SOLV.lig_0>
-37.9941

>  <SCORE.INTRA.VDW>
0.317311

>  <SCORE.INTRA.VDW.0>
-0.964461

>  <SCORE.INTRA.norm>
-0.00329849

>  <SCORE.RESTR>
0

>  <SCORE.RESTR.CAVITY>
0

>  <SCORE.RESTR.norm>
0

>  <SCORE.SYSTEM>
0

>  <SCORE.SYSTEM.CONST>
0

>  <SCORE.SYSTEM.DIHEDRAL>
0

>  <SCORE.SYSTEM.SOLV>
0

>  <SCORE.SYSTEM.norm>
0

>  <SCORE.heavy>
19

>  <SCORE.norm>
-0.89671

>  <RMSD>
0.813

$$$$
ligand
 OpenBabel11021811483D
libRbt.so/2013.1/901 2013/11/27
 19 21  0  0  0  0  0  0  0  0999 V2000
   17.8097   28.8487   33.1322 C   0  0  0  0  0  0  0  0  0  0  0  0
   17.9600   29.2888   31.7712 O   0  0  0  0  0  0  0  0  0  0  0  0
   18.4185   29.8561   34.1132 C   0  0  1  0  0  0  0  0  0  0  0  0
   18.2341   29.4191   35.4594 O   0  0  0  0  0  0  0  0  0  0  0  0
   19.9117   30.0190   33.9019 C   0  0  1  0  0  0  0  0  0  0  0  0
   20.2225   31.4125   33.9388 O   0  0  0  0  0  0  0  0  0  0  0  0
   20.5902   29.3347   35.0670 C   0  0  0  0  0  0  0  0  0  0  0  0
   19.4909   29.1355   36.0945 C   0  0  2  0  0  0  0  0  0  0  0  0
   17.6306   26.1851   39.9145 N   0  0  0  0  0  0  0  0  0  0  0  0
   17.5028   27.5129   39.6776 C   0  0  2  0  0  0  0  0  0  0  0  0
   16.7808   28.2845   40.5173 N   0  0  0  0  0  0  0  0  0  0  0  0
   18.0829   28.0999   38.6095 N   0  0  0  0  0  0  0  0  0  0  0  0
   18.8177   27.3914   37.7285 C   0  0  1  0  0  0  0  0  0  0  0  0
   18.9948   26.0388   37.9079 C   0  0  1  0  0  0  0  0  0  0  0  0
   18.3508   25.4039   39.0843 C   0  0  0  0  0  0  0  0  0  0  0  0
   18.4772   24.1789   39.3030 O   0  0  0  0  0  0  0  0  0  0  0  0
   19.7573   25.5888   36.8967 N   0  0  0  0  0  0  0  0  0  0  0  0
   20.0422   26.6532   36.1115 C   0  0  0  0  0  0  0  0  0  0  0  0
   19.4618   27.7478   36.6290 N   0  0  1  0  0  0  0  0  0  0  0  0
  1  2  1  0  0  0  0
  3  1  1  6  0  0  0
  3  4  1  0  0  0  0
  3  5  1  0  0  0  0
  5  6  1  1  0  0  0
  5  7  1  0  0  0  0
  7  8  1  0  0  0  0
  8  4  1  6  0  0  0
  8 19  1  0  0  0  0
  9 15  1  0  0  0  0
  9 10  1  0  0  0  0
 10 11  1  6  0  0  0
 10 12  1  0  0  0  0
 13 12  1  6  0  0  0
 13 14  1  0  0  0  0
 13 19  1  0  0  0  0
 14 15  1  6  0  0  0
 14 17  1  0  0  0  0
 15 16  2  0  0  0  0
 17 18  1  0  0  0  0
 19 18  1  6  0  0  0
M  END
>  <CHROM.1>
178.68604249,-76.13951223,18.75900147,27.96642775,36.54308918,-1.21354228
-1.15731484,2.47451805

>  <Name>
ligand

>  <RI>
0

>  <Rbt.Current_Directory>
/home/itssahil/PROJECTS/Mol_Feturizer/New_Systems/rnas/3SKL

>  <Rbt.Executable>
rbdock ($Id: //depot/dev/client3/rdock/2013.1/src/exe/rbdock.cxx#4 $)

>  <Rbt.Library>
libRbt.so (2013.1, Build901 2013/11/27)

>  <Rbt.Parameter_File>
/export/apps/rDock/src/rDock_2013.1_src/data/scripts/dock_solv.prm

>  <Rbt.Receptor>
prm/pocket_docking_3.prm

>  <SCORE>
-17.0491

>  <SCORE.INTER>
-17.0191

>  <SCORE.INTER.CONST>
1

>  <SCORE.INTER.POLAR>
0

>  <SCORE.INTER.ROT>
2

>  <SCORE.INTER.SOLV>
17.5842

>  <SCORE.INTER.VDW>
-22.1408

>  <SCORE.INTER.norm>
-0.895744

>  <SCORE.INTRA>
-0.0299877

>  <SCORE.INTRA.DIHEDRAL>
-0.311358

>  <SCORE.INTRA.DIHEDRAL.0>
1.50031

>  <SCORE.INTRA.POLAR>
0

>  <SCORE.INTRA.POLAR.0>
0

>  <SCORE.INTRA.REPUL>
0

>  <SCORE.INTRA.REPUL.0>
0

>  <SCORE.INTRA.SOLV>
-0.443275

>  <SCORE.INTRA.SOLV.lig_0>
-37.9941

>  <SCORE.INTRA.VDW>
0.347329

>  <SCORE.INTRA.VDW.0>
-0.964461

>  <SCORE.INTRA.norm>
-0.0015783

>  <SCORE.RESTR>
0

>  <SCORE.RESTR.CAVITY>
0

>  <SCORE.RESTR.norm>
0

>  <SCORE.SYSTEM>
0

>  <SCORE.SYSTEM.CONST>
0

>  <SCORE.SYSTEM.DIHEDRAL>
0

>  <SCORE.SYSTEM.SOLV>
0

>  <SCORE.SYSTEM.norm>
0

>  <SCORE.heavy>
19

>  <SCORE.norm>
-0.897322

>  <RMSD>
0.813

$$$$
ligand
 OpenBabel11021811483D
libRbt.so/2013.1/901 2013/11/27
 19 21  0  0  0  0  0  0  0  0999 V2000
   17.9844   28.7616   33.0400 C   0  0  0  0  0  0  0  0  0  0  0  0
   16.6254   28.3059   33.1586 O   0  0  0  0  0  0  0  0  0  0  0  0
   18.3133   29.8135   34.1046 C   0  0  1  0  0  0  0  0  0  0  0  0
   18.0315   29.3104   35.4103 O   0  0  0  0  0  0  0  0  0  0  0  0
   19.7808   30.1969   34.0857 C   0  0  1  0  0  0  0  0  0  0  0  0
   19.8763   31.6187   34.1818 O   0  0  0  0  0  0  0  0  0  0  0  0
   20.4045   29.5796   35.3169 C   0  0  0  0  0  0  0  0  0  0  0  0
   19.2290   29.1902   36.1946 C   0  0  2  0  0  0  0  0  0  0  0  0
   17.8295   26.0402   40.0516 N   0  0  0  0  0  0  0  0  0  0  0  0
   17.5853   27.3575   39.8502 C   0  0  2  0  0  0  0  0  0  0  0  0
   16.8557   28.0560   40.7455 N   0  0  0  0  0  0  0  0  0  0  0  0
   18.0547   28.0059   38.7633 N   0  0  0  0  0  0  0  0  0  0  0  0
   18.7898   27.3720   37.8275 C   0  0  1  0  0  0  0  0  0  0  0  0
   19.0817   26.0348   37.9682 C   0  0  1  0  0  0  0  0  0  0  0  0
   18.5587   25.3320   39.1657 C   0  0  0  0  0  0  0  0  0  0  0  0
   18.7925   24.1173   39.3513 O   0  0  0  0  0  0  0  0  0  0  0  0
   19.8166   25.6630   36.9061 N   0  0  0  0  0  0  0  0  0  0  0  0
   19.9717   26.7592   36.1284 C   0  0  0  0  0  0  0  0  0  0  0  0
   19.3391   27.7960   36.7008 N   0  0  1  0  0  0  0  0  0  0  0  0
  1  2  1  0  0  0  0
  3  1  1  6  0  0  0
  3  4  1  0  0  0  0
  3  5  1  0  0  0  0
  5  6  1  1  0  0  0
  5  7  1  0  0  0  0
  7  8  1  0  0  0  0
  8  4  1  6  0  0  0
  8 19  1  0  0  0  0
  9 15  1  0  0  0  0
  9 10  1  0  0  0  0
 10 11  1  6  0  0  0
 10 12  1  0  0  0  0
 13 12  1  6  0  0  0
 13 14  1  0  0  0  0
 13 19  1  0  0  0  0
 14 15  1  6  0  0  0
 14 17  1  0  0  0  0
 15 16  2  0  0  0  0
 17 18  1  0  0  0  0
 19 18  1  6  0  0  0
M  END
>  <CHROM.1>
54.93983805,-87.31780467,18.66012226,27.90120100,36.71707556,-1.24673276
-1.29547970,2.49337738

>  <Name>
ligand

>  <RI>
0

>  <Rbt.Current_Directory>
/home/itssahil/PROJECTS/Mol_Feturizer/New_Systems/rnas/3SKL

>  <Rbt.Executable>
rbdock ($Id: //depot/dev/client3/rdock/2013.1/src/exe/rbdock.cxx#4 $)

>  <Rbt.Library>
libRbt.so (2013.1, Build901 2013/11/27)

>  <Rbt.Parameter_File>
/export/apps/rDock/src/rDock_2013.1_src/data/scripts/dock_solv.prm

>  <Rbt.Receptor>
prm/pocket_docking_5.prm

>  <SCORE>
-16.8034

>  <SCORE.INTER>
-16.5922

>  <SCORE.INTER.CONST>
1

>  <SCORE.INTER.POLAR>
0

>  <SCORE.INTER.ROT>
2

>  <SCORE.INTER.SOLV>
17.1555

>  <SCORE.INTER.VDW>
-21.7133

>  <SCORE.INTER.norm>
-0.873271

>  <SCORE.INTRA>
-0.211227

>  <SCORE.INTRA.DIHEDRAL>
-0.232436

>  <SCORE.INTRA.DIHEDRAL.0>
1.50031

>  <SCORE.INTRA.POLAR>
0

>  <SCORE.INTRA.POLAR.0>
0

>  <SCORE.INTRA.REPUL>
0

>  <SCORE.INTRA.REPUL.0>
0

>  <SCORE.INTRA.SOLV>
-0.513408

>  <SCORE.INTRA.SOLV.lig_0>
-37.9941

>  <SCORE.INTRA.VDW>
0.161695

>  <SCORE.INTRA.VDW.0>
-0.964461

>  <SCORE.INTRA.norm>
-0.0111172

>  <SCORE.RESTR>
0

>  <SCORE.RESTR.CAVITY>
0

>  <SCORE.RESTR.norm>
0

>  <SCORE.SYSTEM>
0

>  <SCORE.SYSTEM.CONST>
0

>  <SCORE.SYSTEM.DIHEDRAL>
0

>  <SCORE.SYSTEM.SOLV>
0

>  <SCORE.SYSTEM.norm>
0

>  <SCORE.heavy>
19

>  <SCORE.norm>
-0.884388

>  <RMSD>
0.813

$$$$
ligand
 OpenBabel11021811483D
libRbt.so/2013.1/901 2013/11/27
 19 21  0  0  0  0  0  0  0  0999 V2000
   17.8873   28.8462   33.1256 C   0  0  0  0  0  0  0  0  0  0  0  0
   16.5470   28.3841   33.3677 O   0  0  0  0  0  0  0  0  0  0  0  0
   18.3081   29.8981   34.1574 C   0  0  1  0  0  0  0  0  0  0  0  0
   18.0618   29.4272   35.4822 O   0  0  0  0  0  0  0  0  0  0  0  0
   19.7887   30.2156   34.0691 C   0  0  1  0  0  0  0  0  0  0  0  0
   19.9503   31.6330   34.1375 O   0  0  0  0  0  0  0  0  0  0  0  0
   20.4379   29.5894   35.2825 C   0  0  0  0  0  0  0  0  0  0  0  0
   19.2859   29.2655   36.2162 C   0  0  2  0  0  0  0  0  0  0  0  0
   17.6260   26.1548   40.0012 N   0  0  0  0  0  0  0  0  0  0  0  0
   17.4010   27.4712   39.7731 C   0  0  2  0  0  0  0  0  0  0  0  0
   16.6179   28.1802   40.6133 N   0  0  0  0  0  0  0  0  0  0  0  0
   17.9426   28.1082   38.7135 N   0  0  0  0  0  0  0  0  0  0  0  0
   18.7341   27.4634   37.8326 C   0  0  1  0  0  0  0  0  0  0  0  0
   19.0104   26.1264   38.0034 C   0  0  1  0  0  0  0  0  0  0  0  0
   18.4080   25.4361   39.1704 C   0  0  0  0  0  0  0  0  0  0  0  0
   18.6240   24.2222   39.3811 O   0  0  0  0  0  0  0  0  0  0  0  0
   19.8110   25.7425   36.9944 N   0  0  0  0  0  0  0  0  0  0  0  0
   20.0209   26.8313   36.2190 C   0  0  0  0  0  0  0  0  0  0  0  0
   19.3569   27.8755   36.7404 N   0  0  1  0  0  0  0  0  0  0  0  0
  1  2  1  0  0  0  0
  3  1  1  6  0  0  0
  3  4  1  0  0  0  0
  3  5  1  0  0  0  0
  5  6  1  1  0  0  0
  5  7  1  0  0  0  0
  7  8  1  0  0  0  0
  8  4  1  6  0  0  0
  8 19  1  0  0  0  0
  9 15  1  0  0  0  0
  9 10  1  0  0  0  0
 10 11  1  6  0  0  0
 10 12  1  0  0  0  0
 13 12  1  6  0  0  0
 13 14  1  0  0  0  0
 13 19  1  0  0  0  0
 14 15  1  6  0  0  0
 14 17  1  0  0  0  0
 15 16  2  0  0  0  0
 17 18  1  0  0  0  0
 19 18  1  6  0  0  0
M  END
>  <CHROM.1>
50.87467162,-80.69910725,18.60293580,27.98298860,36.73610557,-1.32933900
-1.05764602,2.39944003

>  <Name>
ligand

>  <RI>
0

>  <Rbt.Current_Directory>
/home/itssahil/PROJECTS/Mol_Feturizer/New_Systems/rnas/3SKL

>  <Rbt.Executable>
rbdock ($Id: //depot/dev/client3/rdock/2013.1/src/exe/rbdock.cxx#4 $)

>  <Rbt.Library>
libRbt.so (2013.1, Build901 2013/11/27)

>  <Rbt.Parameter_File>
/export/apps/rDock/src/rDock_2013.1_src/data/scripts/dock_solv.prm

>  <Rbt.Receptor>
prm/pocket_docking_6.prm

>  <SCORE>
-16.6773

>  <SCORE.INTER>
-16.65

>  <SCORE.INTER.CONST>
1

>  <SCORE.INTER.POLAR>
0

>  <SCORE.INTER.ROT>
2

>  <SCORE.INTER.SOLV>
17.9447

>  <SCORE.INTER.VDW>
-22.0149

>  <SCORE.INTER.norm>
-0.876314

>  <SCORE.INTRA>
-0.0273222

>  <SCORE.INTRA.DIHEDRAL>
-0.0277259

>  <SCORE.INTRA.DIHEDRAL.0>
1.50031

>  <SCORE.INTRA.POLAR>
0

>  <SCORE.INTRA.POLAR.0>
0

>  <SCORE.INTRA.REPUL>
0

>  <SCORE.INTRA.REPUL.0>
0

>  <SCORE.INTRA.SOLV>
-0.487845

>  <SCORE.INTRA.SOLV.lig_0>
-37.9941

>  <SCORE.INTRA.VDW>
0.230463

>  <SCORE.INTRA.VDW.0>
-0.964461

>  <SCORE.INTRA.norm>
-0.00143801

>  <SCORE.RESTR>
0

>  <SCORE.RESTR.CAVITY>
0

>  <SCORE.RESTR.norm>
0

>  <SCORE.SYSTEM>
0

>  <SCORE.SYSTEM.CONST>
0

>  <SCORE.SYSTEM.DIHEDRAL>
0

>  <SCORE.SYSTEM.SOLV>
0

>  <SCORE.SYSTEM.norm>
0

>  <SCORE.heavy>
19

>  <SCORE.norm>
-0.877752

>  <RMSD>
0.813

$$$$
ligand
 OpenBabel11021811483D
libRbt.so/2013.1/901 2013/11/27
 19 21  0  0  0  0  0  0  0  0999 V2000
   17.8821   28.8152   33.0737 C   0  0  0  0  0  0  0  0  0  0  0  0
   18.0770   29.2491   31.7164 O   0  0  0  0  0  0  0  0  0  0  0  0
   18.4441   29.8348   34.0699 C   0  0  1  0  0  0  0  0  0  0  0  0
   18.2377   29.3916   35.4109 O   0  0  0  0  0  0  0  0  0  0  0  0
   19.9378   30.0323   33.8944 C   0  0  1  0  0  0  0  0  0  0  0  0
   20.2155   31.4325   33.9400 O   0  0  0  0  0  0  0  0  0  0  0  0
   20.6038   29.3619   35.0746 C   0  0  0  0  0  0  0  0  0  0  0  0
   19.4853   29.1359   36.0755 C   0  0  2  0  0  0  0  0  0  0  0  0
   17.6905   26.1601   39.9070 N   0  0  0  0  0  0  0  0  0  0  0  0
   17.5469   27.4869   39.6737 C   0  0  2  0  0  0  0  0  0  0  0  0
   16.8247   28.2496   40.5214 N   0  0  0  0  0  0  0  0  0  0  0  0
   18.1111   28.0817   38.6014 N   0  0  0  0  0  0  0  0  0  0  0  0
   18.8451   27.3822   37.7125 C   0  0  1  0  0  0  0  0  0  0  0  0
   19.0376   26.0312   37.8878 C   0  0  1  0  0  0  0  0  0  0  0  0
   18.4111   25.3878   39.0689 C   0  0  0  0  0  0  0  0  0  0  0  0
   18.5520   24.1637   39.2843 O   0  0  0  0  0  0  0  0  0  0  0  0
   19.7954   25.5909   36.8689 N   0  0  0  0  0  0  0  0  0  0  0  0
   20.0623   26.6595   36.0830 C   0  0  0  0  0  0  0  0  0  0  0  0
   19.4754   27.7471   36.6078 N   0  0  1  0  0  0  0  0  0  0  0  0
  1  2  1  0  0  0  0
  3  1  1  6  0  0  0
  3  4  1  0  0  0  0
  3  5  1  0  0  0  0
  5  6  1  1  0  0  0
  5  7  1  0  0  0  0
  7  8  1  0  0  0  0
  8  4  1  6  0  0  0
  8 19  1  0  0  0  0
  9 15  1  0  0  0  0
  9 10  1  0  0  0  0
 10 11  1  6  0  0  0
 10 12  1  0  0  0  0
 13 12  1  6  0  0  0
 13 14  1  0  0  0  0
 13 19  1  0  0  0  0
 14 15  1  6  0  0  0
 14 17  1  0  0  0  0
 15 16  2  0  0  0  0
 17 18  1  0  0  0  0
 19 18  1  6  0  0  0
M  END
>  <CHROM.1>
179.76786345,-78.16278556,18.79625699,27.95534540,36.52236634,-1.19890805
-1.18048258,2.48934721

>  <Name>
ligand

>  <RI>
0

>  <Rbt.Current_Directory>
/home/itssahil/PROJECTS/Mol_Feturizer/New_Systems/rnas/3SKL

>  <Rbt.Executable>
rbdock ($Id: //depot/dev/client3/rdock/2013.1/src/exe/rbdock.cxx#4 $)

>  <Rbt.Library>
libRbt.so (2013.1, Build901 2013/11/27)

>  <Rbt.Parameter_File>
/export/apps/rDock/src/rDock_2013.1_src/data/scripts/dock_solv.prm

>  <Rbt.Receptor>
prm/pocket_docking_4.prm

>  <SCORE>
-17.0199

>  <SCORE.INTER>
-16.9751

>  <SCORE.INTER.CONST>
1

>  <SCORE.INTER.POLAR>
0

>  <SCORE.INTER.ROT>
2

>  <SCORE.INTER.SOLV>
17.3873

>  <SCORE.INTER.VDW>
-22.0458

>  <SCORE.INTER.norm>
-0.893425

>  <SCORE.INTRA>
-0.0448315

>  <SCORE.INTRA.DIHEDRAL>
-0.318678

>  <SCORE.INTRA.DIHEDRAL.0>
1.50031

>  <SCORE.INTRA.POLAR>
0

>  <SCORE.INTRA.POLAR.0>
0

>  <SCORE.INTRA.REPUL>
0

>  <SCORE.INTRA.REPUL.0>
0

>  <SCORE.INTRA.SOLV>
-0.439556

>  <SCORE.INTRA.SOLV.lig_0>
-37.9941

>  <SCORE.INTRA.VDW>
0.334285

>  <SCORE.INTRA.VDW.0>
-0.964461

>  <SCORE.INTRA.norm>
-0.00235955

>  <SCORE.RESTR>
0

>  <SCORE.RESTR.CAVITY>
0

>  <SCORE.RESTR.norm>
0

>  <SCORE.SYSTEM>
0

>  <SCORE.SYSTEM.CONST>
0

>  <SCORE.SYSTEM.DIHEDRAL>
0

>  <SCORE.SYSTEM.SOLV>
0

>  <SCORE.SYSTEM.norm>
0

>  <SCORE.heavy>
19

>  <SCORE.norm>
-0.895784

>  <RMSD>
0.814

$$$$
ligand
 OpenBabel11021811483D
libRbt.so/2013.1/901 2013/11/27
 19 21  0  0  0  0  0  0  0  0999 V2000
   17.9067   28.7071   33.0086 C   0  0  0  0  0  0  0  0  0  0  0  0
   16.5533   28.2247   33.0732 O   0  0  0  0  0  0  0  0  0  0  0  0
   18.1653   29.7824   34.0692 C   0  0  1  0  0  0  0  0  0  0  0  0
   17.8899   29.2752   35.3747 O   0  0  0  0  0  0  0  0  0  0  0  0
   19.6114   30.2402   34.0688 C   0  0  1  0  0  0  0  0  0  0  0  0
   19.6326   31.6657   34.1546 O   0  0  0  0  0  0  0  0  0  0  0  0
   20.2472   29.6649   35.3141 C   0  0  0  0  0  0  0  0  0  0  0  0
   19.0799   29.2224   36.1775 C   0  0  2  0  0  0  0  0  0  0  0  0
   17.9057   26.0763   40.1121 N   0  0  0  0  0  0  0  0  0  0  0  0
   17.6099   27.3817   39.9024 C   0  0  2  0  0  0  0  0  0  0  0  0
   16.8832   28.0661   40.8109 N   0  0  0  0  0  0  0  0  0  0  0  0
   18.0241   28.0317   38.7943 N   0  0  0  0  0  0  0  0  0  0  0  0
   18.7528   27.4114   37.8444 C   0  0  1  0  0  0  0  0  0  0  0  0
   19.0951   26.0870   37.9923 C   0  0  1  0  0  0  0  0  0  0  0  0
   18.6326   25.3822   39.2132 C   0  0  0  0  0  0  0  0  0  0  0  0
   18.9140   24.1788   39.4062 O   0  0  0  0  0  0  0  0  0  0  0  0
   19.8108   25.7270   36.9131 N   0  0  0  0  0  0  0  0  0  0  0  0
   19.9045   26.8178   36.1180 C   0  0  0  0  0  0  0  0  0  0  0  0
   19.2534   27.8395   36.6968 N   0  0  1  0  0  0  0  0  0  0  0  0
  1  2  1  0  0  0  0
  3  1  1  6  0  0  0
  3  4  1  0  0  0  0
  3  5  1  0  0  0  0
  5  6  1  1  0  0  0
  5  7  1  0  0  0  0
  7  8  1  0  0  0  0
  8  4  1  6  0  0  0
  8 19  1  0  0  0  0
  9 15  1  0  0  0  0
  9 10  1  0  0  0  0
 10 11  1  6  0  0  0
 10 12  1  0  0  0  0
 13 12  1  6  0  0  0
 13 14  1  0  0  0  0
 13 19  1  0  0  0  0
 14 15  1  6  0  0  0
 14 17  1  0  0  0  0
 15 16  2  0  0  0  0
 17 18  1  0  0  0  0
 19 18  1  6  0  0  0
M  END
>  <CHROM.1>
57.45612663,-90.06411042,18.60304388,27.92453455,36.72061794,-1.33875554
-1.34076705,2.39045380

>  <Name>
ligand

>  <RI>
0

>  <Rbt.Current_Directory>
/home/itssahil/PROJECTS/Mol_Feturizer/New_Systems/rnas/3SKL

>  <Rbt.Executable>
rbdock ($Id: //depot/dev/client3/rdock/2013.1/src/exe/rbdock.cxx#4 $)

>  <Rbt.Library>
libRbt.so (2013.1, Build901 2013/11/27)

>  <Rbt.Parameter_File>
/export/apps/rDock/src/rDock_2013.1_src/data/scripts/dock_solv.prm

>  <Rbt.Receptor>
prm/blind_docking_80.prm

>  <SCORE>
-16.7453

>  <SCORE.INTER>
-16.471

>  <SCORE.INTER.CONST>
1

>  <SCORE.INTER.POLAR>
0

>  <SCORE.INTER.ROT>
2

>  <SCORE.INTER.SOLV>
17.3156

>  <SCORE.INTER.VDW>
-21.6859

>  <SCORE.INTER.norm>
-0.866897

>  <SCORE.INTRA>
-0.274285

>  <SCORE.INTRA.DIHEDRAL>
-0.300541

>  <SCORE.INTRA.DIHEDRAL.0>
1.50031

>  <SCORE.INTRA.POLAR>
0

>  <SCORE.INTRA.POLAR.0>
0

>  <SCORE.INTRA.REPUL>
0

>  <SCORE.INTRA.REPUL.0>
0

>  <SCORE.INTRA.SOLV>
-0.528094

>  <SCORE.INTRA.SOLV.lig_0>
-37.9941

>  <SCORE.INTRA.VDW>
0.140032

>  <SCORE.INTRA.VDW.0>
-0.964461

>  <SCORE.INTRA.norm>
-0.0144361

>  <SCORE.RESTR>
0

>  <SCORE.RESTR.CAVITY>
0

>  <SCORE.RESTR.norm>
0

>  <SCORE.SYSTEM>
0

>  <SCORE.SYSTEM.CONST>
0

>  <SCORE.SYSTEM.DIHEDRAL>
0

>  <SCORE.SYSTEM.SOLV>
0

>  <SCORE.SYSTEM.norm>
0

>  <SCORE.heavy>
19

>  <SCORE.norm>
-0.881333

>  <RMSD>
0.816

$$$$
ligand
 OpenBabel11021811483D
libRbt.so/2013.1/901 2013/11/27
 19 21  0  0  0  0  0  0  0  0999 V2000
   17.8907   28.8135   33.0548 C   0  0  0  0  0  0  0  0  0  0  0  0
   18.0683   29.2549   31.6975 O   0  0  0  0  0  0  0  0  0  0  0  0
   18.4547   29.8333   34.0498 C   0  0  1  0  0  0  0  0  0  0  0  0
   18.2467   29.3925   35.3913 O   0  0  0  0  0  0  0  0  0  0  0  0
   19.9489   30.0269   33.8746 C   0  0  1  0  0  0  0  0  0  0  0  0
   20.2300   31.4265   33.9183 O   0  0  0  0  0  0  0  0  0  0  0  0
   20.6128   29.3566   35.0562 C   0  0  0  0  0  0  0  0  0  0  0  0
   19.4933   29.1348   36.0568 C   0  0  2  0  0  0  0  0  0  0  0  0
   17.6969   26.1708   39.8968 N   0  0  0  0  0  0  0  0  0  0  0  0
   17.5573   27.4977   39.6618 C   0  0  2  0  0  0  0  0  0  0  0  0
   16.8397   28.2641   40.5100 N   0  0  0  0  0  0  0  0  0  0  0  0
   18.1212   28.0890   38.5874 N   0  0  0  0  0  0  0  0  0  0  0  0
   18.8508   27.3857   37.6979 C   0  0  1  0  0  0  0  0  0  0  0  0
   19.0391   26.0343   37.8748 C   0  0  1  0  0  0  0  0  0  0  0  0
   18.4130   25.3948   39.0582 C   0  0  0  0  0  0  0  0  0  0  0  0
   18.5502   24.1706   39.2751 O   0  0  0  0  0  0  0  0  0  0  0  0
   19.7931   25.5899   36.8548 N   0  0  0  0  0  0  0  0  0  0  0  0
   20.0618   26.6564   36.0667 C   0  0  0  0  0  0  0  0  0  0  0  0
   19.4798   27.7469   36.5912 N   0  0  1  0  0  0  0  0  0  0  0  0
  1  2  1  0  0  0  0
  3  1  1  6  0  0  0
  3  4  1  0  0  0  0
  3  5  1  0  0  0  0
  5  6  1  1  0  0  0
  5  7  1  0  0  0  0
  7  8  1  0  0  0  0
  8  4  1  6  0  0  0
  8 19  1  0  0  0  0
  9 15  1  0  0  0  0
  9 10  1  0  0  0  0
 10 11  1  6  0  0  0
 10 12  1  0  0  0  0
 13 12  1  6  0  0  0
 13 14  1  0  0  0  0
 13 19  1  0  0  0  0
 14 15  1  6  0  0  0
 14 17  1  0  0  0  0
 15 16  2  0  0  0  0
 17 18  1  0  0  0  0
 19 18  1  6  0  0  0
M  END
>  <CHROM.1>
178.84953346,-78.32820603,18.80216000,27.95770197,36.50657824,-1.19440300
-1.18498386,2.49219455

>  <Name>
ligand

>  <RI>
0

>  <Rbt.Current_Directory>
/home/itssahil/PROJECTS/Mol_Feturizer/New_Systems/rnas/3SKL

>  <Rbt.Executable>
rbdock ($Id: //depot/dev/client3/rdock/2013.1/src/exe/rbdock.cxx#4 $)

>  <Rbt.Library>
libRbt.so (2013.1, Build901 2013/11/27)

>  <Rbt.Parameter_File>
/export/apps/rDock/src/rDock_2013.1_src/data/scripts/dock_solv.prm

>  <Rbt.Receptor>
prm/pocket_docking_5.prm

>  <SCORE>
-17.0266

>  <SCORE.INTER>
-16.9738

>  <SCORE.INTER.CONST>
1

>  <SCORE.INTER.POLAR>
0

>  <SCORE.INTER.ROT>
2

>  <SCORE.INTER.SOLV>
17.3423

>  <SCORE.INTER.VDW>
-22.03

>  <SCORE.INTER.norm>
-0.893359

>  <SCORE.INTRA>
-0.0527486

>  <SCORE.INTRA.DIHEDRAL>
-0.314488

>  <SCORE.INTRA.DIHEDRAL.0>
1.50031

>  <SCORE.INTRA.POLAR>
0

>  <SCORE.INTRA.POLAR.0>
0

>  <SCORE.INTRA.REPUL>
0

>  <SCORE.INTRA.REPUL.0>
0

>  <SCORE.INTRA.SOLV>
-0.444109

>  <SCORE.INTRA.SOLV.lig_0>
-37.9941

>  <SCORE.INTRA.VDW>
0.32655

>  <SCORE.INTRA.VDW.0>
-0.964461

>  <SCORE.INTRA.norm>
-0.00277624

>  <SCORE.RESTR>
0

>  <SCORE.RESTR.CAVITY>
0

>  <SCORE.RESTR.norm>
0

>  <SCORE.SYSTEM>
0

>  <SCORE.SYSTEM.CONST>
0

>  <SCORE.SYSTEM.DIHEDRAL>
0

>  <SCORE.SYSTEM.SOLV>
0

>  <SCORE.SYSTEM.norm>
0

>  <SCORE.heavy>
19

>  <SCORE.norm>
-0.896135

>  <RMSD>
0.816

$$$$
ligand
 OpenBabel11021811483D
libRbt.so/2013.1/901 2013/11/27
 19 21  0  0  0  0  0  0  0  0999 V2000
   17.7761   28.8511   33.1660 C   0  0  0  0  0  0  0  0  0  0  0  0
   17.9391   29.2741   31.8010 O   0  0  0  0  0  0  0  0  0  0  0  0
   18.4023   29.8562   34.1385 C   0  0  1  0  0  0  0  0  0  0  0  0
   18.2378   29.4180   35.4869 O   0  0  0  0  0  0  0  0  0  0  0  0
   19.8924   30.0160   33.9041 C   0  0  1  0  0  0  0  0  0  0  0  0
   20.2069   31.4088   33.9377 O   0  0  0  0  0  0  0  0  0  0  0  0
   20.5874   29.3289   35.0578 C   0  0  0  0  0  0  0  0  0  0  0  0
   19.5038   29.1309   36.1021 C   0  0  2  0  0  0  0  0  0  0  0  0
   17.6540   26.1704   39.9194 N   0  0  0  0  0  0  0  0  0  0  0  0
   17.5212   27.4979   39.6835 C   0  0  2  0  0  0  0  0  0  0  0  0
   16.7961   28.2661   40.5237 N   0  0  0  0  0  0  0  0  0  0  0  0
   18.0992   28.0880   38.6160 N   0  0  0  0  0  0  0  0  0  0  0  0
   18.8370   27.3830   37.7346 C   0  0  1  0  0  0  0  0  0  0  0  0
   19.0191   26.0309   37.9130 C   0  0  1  0  0  0  0  0  0  0  0  0
   18.3774   25.3927   39.0887 C   0  0  0  0  0  0  0  0  0  0  0  0
   18.5084   24.1680   39.3065 O   0  0  0  0  0  0  0  0  0  0  0  0
   19.7835   25.5847   36.9016 N   0  0  0  0  0  0  0  0  0  0  0  0
   20.0646   26.6508   36.1172 C   0  0  0  0  0  0  0  0  0  0  0  0
   19.4799   27.7428   36.6355 N   0  0  1  0  0  0  0  0  0  0  0  0
  1  2  1  0  0  0  0
  3  1  1  6  0  0  0
  3  4  1  0  0  0  0
  3  5  1  0  0  0  0
  5  6  1  1  0  0  0
  5  7  1  0  0  0  0
  7  8  1  0  0  0  0
  8  4  1  6  0  0  0
  8 19  1  0  0  0  0
  9 15  1  0  0  0  0
  9 10  1  0  0  0  0
 10 11  1  6  0  0  0
 10 12  1  0  0  0  0
 13 12  1  6  0  0  0
 13 14  1  0  0  0  0
 13 19  1  0  0  0  0
 14 15  1  6  0  0  0
 14 17  1  0  0  0  0
 15 16  2  0  0  0  0
 17 18  1  0  0  0  0
 19 18  1  6  0  0  0
M  END
>  <CHROM.1>
-179.70088037,-75.17324099,18.76625945,27.95904850,36.55263605,-1.23667582
-1.14613326,2.45404633

>  <Name>
ligand

>  <RI>
0

>  <Rbt.Current_Directory>
/home/itssahil/PROJECTS/Mol_Feturizer/New_Systems/rnas/3SKL

>  <Rbt.Executable>
rbdock ($Id: //depot/dev/client3/rdock/2013.1/src/exe/rbdock.cxx#4 $)

>  <Rbt.Library>
libRbt.so (2013.1, Build901 2013/11/27)

>  <Rbt.Parameter_File>
/export/apps/rDock/src/rDock_2013.1_src/data/scripts/dock_solv.prm

>  <Rbt.Receptor>
prm/pocket_docking_5.prm

>  <SCORE>
-17.0475

>  <SCORE.INTER>
-17.0393

>  <SCORE.INTER.CONST>
1

>  <SCORE.INTER.POLAR>
0

>  <SCORE.INTER.ROT>
2

>  <SCORE.INTER.SOLV>
17.5387

>  <SCORE.INTER.VDW>
-22.1391

>  <SCORE.INTER.norm>
-0.896805

>  <SCORE.INTRA>
-0.00819194

>  <SCORE.INTRA.DIHEDRAL>
-0.315945

>  <SCORE.INTRA.DIHEDRAL.0>
1.50031

>  <SCORE.INTRA.POLAR>
0

>  <SCORE.INTRA.POLAR.0>
0

>  <SCORE.INTRA.REPUL>
0

>  <SCORE.INTRA.REPUL.0>
0

>  <SCORE.INTRA.SOLV>
-0.434744

>  <SCORE.INTRA.SOLV.lig_0>
-37.9941

>  <SCORE.INTRA.VDW>
0.367152

>  <SCORE.INTRA.VDW.0>
-0.964461

>  <SCORE.INTRA.norm>
-0.000431155

>  <SCORE.RESTR>
0

>  <SCORE.RESTR.CAVITY>
0

>  <SCORE.RESTR.norm>
0

>  <SCORE.SYSTEM>
0

>  <SCORE.SYSTEM.CONST>
0

>  <SCORE.SYSTEM.DIHEDRAL>
0

>  <SCORE.SYSTEM.SOLV>
0

>  <SCORE.SYSTEM.norm>
0

>  <SCORE.heavy>
19

>  <SCORE.norm>
-0.897237

>  <RMSD>
0.816

$$$$
ligand
 OpenBabel11021811483D
libRbt.so/2013.1/901 2013/11/27
 19 21  0  0  0  0  0  0  0  0999 V2000
   18.0389   28.7430   32.9332 C   0  0  0  0  0  0  0  0  0  0  0  0
   16.7082   28.1993   32.9796 O   0  0  0  0  0  0  0  0  0  0  0  0
   18.2373   29.8204   34.0046 C   0  0  1  0  0  0  0  0  0  0  0  0
   17.9349   29.3013   35.2994 O   0  0  0  0  0  0  0  0  0  0  0  0
   19.6706   30.3148   34.0502 C   0  0  1  0  0  0  0  0  0  0  0  0
   19.6527   31.7400   34.1411 O   0  0  0  0  0  0  0  0  0  0  0  0
   20.2822   29.7509   35.3127 C   0  0  0  0  0  0  0  0  0  0  0  0
   19.1006   29.2756   36.1383 C   0  0  2  0  0  0  0  0  0  0  0  0
   18.0663   26.1488   40.1273 N   0  0  0  0  0  0  0  0  0  0  0  0
   17.7620   27.4529   39.9212 C   0  0  2  0  0  0  0  0  0  0  0  0
   17.0665   28.1414   40.8507 N   0  0  0  0  0  0  0  0  0  0  0  0
   18.1371   28.0975   38.7962 N   0  0  0  0  0  0  0  0  0  0  0  0
   18.8332   27.4729   37.8248 C   0  0  1  0  0  0  0  0  0  0  0  0
   19.1816   26.1496   37.9675 C   0  0  1  0  0  0  0  0  0  0  0  0
   18.7623   25.4507   39.2074 C   0  0  0  0  0  0  0  0  0  0  0  0
   19.0513   24.2485   39.3967 O   0  0  0  0  0  0  0  0  0  0  0  0
   19.8600   25.7846   36.8661 N   0  0  0  0  0  0  0  0  0  0  0  0
   19.9251   26.8714   36.0627 C   0  0  0  0  0  0  0  0  0  0  0  0
   19.2933   27.8955   36.6584 N   0  0  1  0  0  0  0  0  0  0  0  0
  1  2  1  0  0  0  0
  3  1  1  6  0  0  0
  3  4  1  0  0  0  0
  3  5  1  0  0  0  0
  5  6  1  1  0  0  0
  5  7  1  0  0  0  0
  7  8  1  0  0  0  0
  8  4  1  6  0  0  0
  8 19  1  0  0  0  0
  9 15  1  0  0  0  0
  9 10  1  0  0  0  0
 10 11  1  6  0  0  0
 10 12  1  0  0  0  0
 13 12  1  6  0  0  0
 13 14  1  0  0  0  0
 13 19  1  0  0  0  0
 14 15  1  6  0  0  0
 14 17  1  0  0  0  0
 15 16  2  0  0  0  0
 17 18  1  0  0  0  0
 19 18  1  6  0  0  0
M  END
>  <CHROM.1>
55.81363140,-94.09474449,18.69234927,27.98036462,36.69313134,-1.31064046
-1.40880773,2.41001023

>  <Name>
ligand

>  <RI>
0

>  <Rbt.Current_Directory>
/home/itssahil/PROJECTS/Mol_Feturizer/New_Systems/rnas/3SKL

>  <Rbt.Executable>
rbdock ($Id: //depot/dev/client3/rdock/2013.1/src/exe/rbdock.cxx#4 $)

>  <Rbt.Library>
libRbt.so (2013.1, Build901 2013/11/27)

>  <Rbt.Parameter_File>
/export/apps/rDock/src/rDock_2013.1_src/data/scripts/dock_solv.prm

>  <Rbt.Receptor>
prm/pocket_docking_6.prm

>  <SCORE>
-16.7885

>  <SCORE.INTER>
-16.485

>  <SCORE.INTER.CONST>
1

>  <SCORE.INTER.POLAR>
0

>  <SCORE.INTER.ROT>
2

>  <SCORE.INTER.SOLV>
16.9132

>  <SCORE.INTER.VDW>
-21.5611

>  <SCORE.INTER.norm>
-0.867632

>  <SCORE.INTRA>
-0.303439

>  <SCORE.INTRA.DIHEDRAL>
-0.260599

>  <SCORE.INTRA.DIHEDRAL.0>
1.50031

>  <SCORE.INTRA.POLAR>
0

>  <SCORE.INTRA.POLAR.0>
0

>  <SCORE.INTRA.REPUL>
0

>  <SCORE.INTRA.REPUL.0>
0

>  <SCORE.INTRA.SOLV>
-0.522325

>  <SCORE.INTRA.SOLV.lig_0>
-37.9941

>  <SCORE.INTRA.VDW>
0.0880227

>  <SCORE.INTRA.VDW.0>
-0.964461

>  <SCORE.INTRA.norm>
-0.0159705

>  <SCORE.RESTR>
0

>  <SCORE.RESTR.CAVITY>
0

>  <SCORE.RESTR.norm>
0

>  <SCORE.SYSTEM>
0

>  <SCORE.SYSTEM.CONST>
0

>  <SCORE.SYSTEM.DIHEDRAL>
0

>  <SCORE.SYSTEM.SOLV>
0

>  <SCORE.SYSTEM.norm>
0

>  <SCORE.heavy>
19

>  <SCORE.norm>
-0.883603

>  <RMSD>
0.817

$$$$
ligand
 OpenBabel11021811483D
libRbt.so/2013.1/901 2013/11/27
 19 21  0  0  0  0  0  0  0  0999 V2000
   17.7682   28.8214   33.1537 C   0  0  0  0  0  0  0  0  0  0  0  0
   17.9193   29.2543   31.7905 O   0  0  0  0  0  0  0  0  0  0  0  0
   18.3823   29.8308   34.1294 C   0  0  1  0  0  0  0  0  0  0  0  0
   18.2197   29.3883   35.4767 O   0  0  0  0  0  0  0  0  0  0  0  0
   19.8711   30.0062   33.8983 C   0  0  1  0  0  0  0  0  0  0  0  0
   20.1713   31.4021   33.9351 O   0  0  0  0  0  0  0  0  0  0  0  0
   20.5708   29.3239   35.0519 C   0  0  0  0  0  0  0  0  0  0  0  0
   19.4873   29.1129   36.0937 C   0  0  2  0  0  0  0  0  0  0  0  0
   17.6997   26.1358   39.9277 N   0  0  0  0  0  0  0  0  0  0  0  0
   17.5578   27.4632   39.6964 C   0  0  2  0  0  0  0  0  0  0  0  0
   16.8400   28.2262   40.5475 N   0  0  0  0  0  0  0  0  0  0  0  0
   18.1196   28.0582   38.6229 N   0  0  0  0  0  0  0  0  0  0  0  0
   18.8493   27.3584   37.7307 C   0  0  1  0  0  0  0  0  0  0  0  0
   19.0398   26.0069   37.9038 C   0  0  1  0  0  0  0  0  0  0  0  0
   18.4160   25.3632   39.0862 C   0  0  0  0  0  0  0  0  0  0  0  0
   18.5554   24.1386   39.2996 O   0  0  0  0  0  0  0  0  0  0  0  0
   19.7934   25.5663   36.8818 N   0  0  0  0  0  0  0  0  0  0  0  0
   20.0596   26.6354   36.0963 C   0  0  0  0  0  0  0  0  0  0  0  0
   19.4765   27.7235   36.6243 N   0  0  1  0  0  0  0  0  0  0  0  0
  1  2  1  0  0  0  0
  3  1  1  6  0  0  0
  3  4  1  0  0  0  0
  3  5  1  0  0  0  0
  5  6  1  1  0  0  0
  5  7  1  0  0  0  0
  7  8  1  0  0  0  0
  8  4  1  6  0  0  0
  8 19  1  0  0  0  0
  9 15  1  0  0  0  0
  9 10  1  0  0  0  0
 10 11  1  6  0  0  0
 10 12  1  0  0  0  0
 13 12  1  6  0  0  0
 13 14  1  0  0  0  0
 13 19  1  0  0  0  0
 14 15  1  6  0  0  0
 14 17  1  0  0  0  0
 15 16  2  0  0  0  0
 17 18  1  0  0  0  0
 19 18  1  6  0  0  0
M  END
>  <CHROM.1>
179.80350872,-76.07013691,18.77141218,27.93578923,36.54799249,-1.24739918
-1.16266982,2.44630467

>  <Name>
ligand

>  <RI>
0

>  <Rbt.Current_Directory>
/home/itssahil/PROJECTS/Mol_Feturizer/New_Systems/rnas/3SKL

>  <Rbt.Executable>
rbdock ($Id: //depot/dev/client3/rdock/2013.1/src/exe/rbdock.cxx#4 $)

>  <Rbt.Library>
libRbt.so (2013.1, Build901 2013/11/27)

>  <Rbt.Parameter_File>
/export/apps/rDock/src/rDock_2013.1_src/data/scripts/dock_solv.prm

>  <Rbt.Receptor>
prm/pocket_docking_3.prm

>  <SCORE>
-17.0365

>  <SCORE.INTER>
-17.0143

>  <SCORE.INTER.CONST>
1

>  <SCORE.INTER.POLAR>
0

>  <SCORE.INTER.ROT>
2

>  <SCORE.INTER.SOLV>
17.4399

>  <SCORE.INTER.VDW>
-22.0895

>  <SCORE.INTER.norm>
-0.895491

>  <SCORE.INTRA>
-0.0221362

>  <SCORE.INTRA.DIHEDRAL>
-0.317061

>  <SCORE.INTRA.DIHEDRAL.0>
1.50031

>  <SCORE.INTRA.POLAR>
0

>  <SCORE.INTRA.POLAR.0>
0

>  <SCORE.INTRA.REPUL>
0

>  <SCORE.INTRA.REPUL.0>
0

>  <SCORE.INTRA.SOLV>
-0.437817

>  <SCORE.INTRA.SOLV.lig_0>
-37.9941

>  <SCORE.INTRA.VDW>
0.355303

>  <SCORE.INTRA.VDW.0>
-0.964461

>  <SCORE.INTRA.norm>
-0.00116506

>  <SCORE.RESTR>
0

>  <SCORE.RESTR.CAVITY>
0

>  <SCORE.RESTR.norm>
0

>  <SCORE.SYSTEM>
0

>  <SCORE.SYSTEM.CONST>
0

>  <SCORE.SYSTEM.DIHEDRAL>
0

>  <SCORE.SYSTEM.SOLV>
0

>  <SCORE.SYSTEM.norm>
0

>  <SCORE.heavy>
19

>  <SCORE.norm>
-0.896656

>  <RMSD>
0.818

$$$$
ligand
 OpenBabel11021811483D
libRbt.so/2013.1/901 2013/11/27
 19 21  0  0  0  0  0  0  0  0999 V2000
   17.7863   28.8826   33.2058 C   0  0  0  0  0  0  0  0  0  0  0  0
   17.9723   29.2957   31.8407 O   0  0  0  0  0  0  0  0  0  0  0  0
   18.4278   29.8762   34.1801 C   0  0  1  0  0  0  0  0  0  0  0  0
   18.2565   29.4382   35.5278 O   0  0  0  0  0  0  0  0  0  0  0  0
   19.9203   30.0135   33.9462 C   0  0  1  0  0  0  0  0  0  0  0  0
   20.2561   31.4012   33.9822 O   0  0  0  0  0  0  0  0  0  0  0  0
   20.6044   29.3137   35.0987 C   0  0  0  0  0  0  0  0  0  0  0  0
   19.5178   29.1306   36.1425 C   0  0  2  0  0  0  0  0  0  0  0  0
   17.5674   26.1797   39.9169 N   0  0  0  0  0  0  0  0  0  0  0  0
   17.4495   27.5084   39.6801 C   0  0  2  0  0  0  0  0  0  0  0  0
   16.7130   28.2811   40.5062 N   0  0  0  0  0  0  0  0  0  0  0  0
   18.0538   28.0954   38.6256 N   0  0  0  0  0  0  0  0  0  0  0  0
   18.8043   27.3858   37.7587 C   0  0  1  0  0  0  0  0  0  0  0  0
   18.9726   26.0323   37.9390 C   0  0  1  0  0  0  0  0  0  0  0  0
   18.3020   25.3975   39.1004 C   0  0  0  0  0  0  0  0  0  0  0  0
   18.4193   24.1716   39.3192 O   0  0  0  0  0  0  0  0  0  0  0  0
   19.7543   25.5815   36.9429 N   0  0  0  0  0  0  0  0  0  0  0  0
   20.0595   26.6463   36.1660 C   0  0  0  0  0  0  0  0  0  0  0  0
   19.4724   27.7421   36.6735 N   0  0  1  0  0  0  0  0  0  0  0  0
  1  2  1  0  0  0  0
  3  1  1  6  0  0  0
  3  4  1  0  0  0  0
  3  5  1  0  0  0  0
  5  6  1  1  0  0  0
  5  7  1  0  0  0  0
  7  8  1  0  0  0  0
  8  4  1  6  0  0  0
  8 19  1  0  0  0  0
  9 15  1  0  0  0  0
  9 10  1  0  0  0  0
 10 11  1  6  0  0  0
 10 12  1  0  0  0  0
 13 12  1  6  0  0  0
 13 14  1  0  0  0  0
 13 19  1  0  0  0  0
 14 15  1  6  0  0  0
 14 17  1  0  0  0  0
 15 16  2  0  0  0  0
 17 18  1  0  0  0  0
 19 18  1  6  0  0  0
M  END
>  <CHROM.1>
-178.88596797,-73.91352543,18.74765925,27.96526083,36.58021599,-1.21690593
-1.12079589,2.47308779

>  <Name>
ligand

>  <RI>
0

>  <Rbt.Current_Directory>
/home/itssahil/PROJECTS/Mol_Feturizer/New_Systems/rnas/3SKL

>  <Rbt.Executable>
rbdock ($Id: //depot/dev/client3/rdock/2013.1/src/exe/rbdock.cxx#4 $)

>  <Rbt.Library>
libRbt.so (2013.1, Build901 2013/11/27)

>  <Rbt.Parameter_File>
/export/apps/rDock/src/rDock_2013.1_src/data/scripts/dock_solv.prm

>  <Rbt.Receptor>
prm/pocket_docking_8.prm

>  <SCORE>
-17.0189

>  <SCORE.INTER>
-17.0331

>  <SCORE.INTER.CONST>
1

>  <SCORE.INTER.POLAR>
0

>  <SCORE.INTER.ROT>
2

>  <SCORE.INTER.SOLV>
17.7668

>  <SCORE.INTER.VDW>
-22.211

>  <SCORE.INTER.norm>
-0.89648

>  <SCORE.INTRA>
0.0142219

>  <SCORE.INTRA.DIHEDRAL>
-0.310368

>  <SCORE.INTRA.DIHEDRAL.0>
1.50031

>  <SCORE.INTRA.POLAR>
0

>  <SCORE.INTRA.POLAR.0>
0

>  <SCORE.INTRA.REPUL>
0

>  <SCORE.INTRA.REPUL.0>
0

>  <SCORE.INTRA.SOLV>
-0.429865

>  <SCORE.INTRA.SOLV.lig_0>
-37.9941

>  <SCORE.INTRA.VDW>
0.384338

>  <SCORE.INTRA.VDW.0>
-0.964461

>  <SCORE.INTRA.norm>
0.000748523

>  <SCORE.RESTR>
0

>  <SCORE.RESTR.CAVITY>
0

>  <SCORE.RESTR.norm>
0

>  <SCORE.SYSTEM>
0

>  <SCORE.SYSTEM.CONST>
0

>  <SCORE.SYSTEM.DIHEDRAL>
0

>  <SCORE.SYSTEM.SOLV>
0

>  <SCORE.SYSTEM.norm>
0

>  <SCORE.heavy>
19

>  <SCORE.norm>
-0.895731

>  <RMSD>
0.818

$$$$
ligand
 OpenBabel11021811483D
libRbt.so/2013.1/901 2013/11/27
 19 21  0  0  0  0  0  0  0  0999 V2000
   18.0372   28.8080   33.0561 C   0  0  0  0  0  0  0  0  0  0  0  0
   16.6928   28.3175   33.1999 O   0  0  0  0  0  0  0  0  0  0  0  0
   18.3692   29.8452   34.1341 C   0  0  1  0  0  0  0  0  0  0  0  0
   18.0706   29.3322   35.4322 O   0  0  0  0  0  0  0  0  0  0  0  0
   19.8411   30.2117   34.1313 C   0  0  1  0  0  0  0  0  0  0  0  0
   19.9521   31.6312   34.2428 O   0  0  0  0  0  0  0  0  0  0  0  0
   20.4472   29.5748   35.3613 C   0  0  0  0  0  0  0  0  0  0  0  0
   19.2599   29.1902   36.2252 C   0  0  2  0  0  0  0  0  0  0  0  0
   17.8245   26.0269   40.0581 N   0  0  0  0  0  0  0  0  0  0  0  0
   17.6005   27.3498   39.8698 C   0  0  2  0  0  0  0  0  0  0  0  0
   16.8853   28.0513   40.7743 N   0  0  0  0  0  0  0  0  0  0  0  0
   18.0763   28.0007   38.7872 N   0  0  0  0  0  0  0  0  0  0  0  0
   18.7979   27.3640   37.8427 C   0  0  1  0  0  0  0  0  0  0  0  0
   19.0689   26.0211   37.9700 C   0  0  1  0  0  0  0  0  0  0  0  0
   18.5392   25.3155   39.1629 C   0  0  0  0  0  0  0  0  0  0  0  0
   18.7543   24.0956   39.3364 O   0  0  0  0  0  0  0  0  0  0  0  0
   19.7940   25.6476   36.9018 N   0  0  0  0  0  0  0  0  0  0  0  0
   19.9637   26.7485   36.1336 C   0  0  0  0  0  0  0  0  0  0  0  0
   19.3497   27.7898   36.7180 N   0  0  1  0  0  0  0  0  0  0  0  0
  1  2  1  0  0  0  0
  3  1  1  6  0  0  0
  3  4  1  0  0  0  0
  3  5  1  0  0  0  0
  5  6  1  1  0  0  0
  5  7  1  0  0  0  0
  7  8  1  0  0  0  0
  8  4  1  6  0  0  0
  8 19  1  0  0  0  0
  9 15  1  0  0  0  0
  9 10  1  0  0  0  0
 10 11  1  6  0  0  0
 10 12  1  0  0  0  0
 13 12  1  6  0  0  0
 13 14  1  0  0  0  0
 13 19  1  0  0  0  0
 14 15  1  6  0  0  0
 14 17  1  0  0  0  0
 15 16  2  0  0  0  0
 17 18  1  0  0  0  0
 19 18  1  6  0  0  0
M  END
>  <CHROM.1>
52.05329491,-88.05430508,18.68245979,27.90222599,36.73794337,-1.15866572
-1.32467135,2.58889388

>  <Name>
ligand

>  <RI>
0

>  <Rbt.Current_Directory>
/home/itssahil/PROJECTS/Mol_Feturizer/New_Systems/rnas/3SKL

>  <Rbt.Executable>
rbdock ($Id: //depot/dev/client3/rdock/2013.1/src/exe/rbdock.cxx#4 $)

>  <Rbt.Library>
libRbt.so (2013.1, Build901 2013/11/27)

>  <Rbt.Parameter_File>
/export/apps/rDock/src/rDock_2013.1_src/data/scripts/dock_solv.prm

>  <Rbt.Receptor>
prm/blind_docking_80.prm

>  <SCORE>
-16.7764

>  <SCORE.INTER>
-16.6333

>  <SCORE.INTER.CONST>
1

>  <SCORE.INTER.POLAR>
0

>  <SCORE.INTER.ROT>
2

>  <SCORE.INTER.SOLV>
17.0218

>  <SCORE.INTER.VDW>
-21.6961

>  <SCORE.INTER.norm>
-0.875437

>  <SCORE.INTRA>
-0.143076

>  <SCORE.INTRA.DIHEDRAL>
-0.100332

>  <SCORE.INTRA.DIHEDRAL.0>
1.50031

>  <SCORE.INTRA.POLAR>
0

>  <SCORE.INTRA.POLAR.0>
0

>  <SCORE.INTRA.REPUL>
0

>  <SCORE.INTRA.REPUL.0>
0

>  <SCORE.INTRA.SOLV>
-0.498828

>  <SCORE.INTRA.SOLV.lig_0>
-37.9941

>  <SCORE.INTRA.VDW>
0.156504

>  <SCORE.INTRA.VDW.0>
-0.964461

>  <SCORE.INTRA.norm>
-0.00753029

>  <SCORE.RESTR>
0

>  <SCORE.RESTR.CAVITY>
0

>  <SCORE.RESTR.norm>
0

>  <SCORE.SYSTEM>
0

>  <SCORE.SYSTEM.CONST>
0

>  <SCORE.SYSTEM.DIHEDRAL>
0

>  <SCORE.SYSTEM.SOLV>
0

>  <SCORE.SYSTEM.norm>
0

>  <SCORE.heavy>
19

>  <SCORE.norm>
-0.882967

>  <RMSD>
0.819

$$$$
ligand
 OpenBabel11021811483D
libRbt.so/2013.1/901 2013/11/27
 19 21  0  0  0  0  0  0  0  0999 V2000
   17.8647   28.7974   33.0586 C   0  0  0  0  0  0  0  0  0  0  0  0
   18.0350   29.2455   31.7026 O   0  0  0  0  0  0  0  0  0  0  0  0
   18.4157   29.8216   34.0564 C   0  0  1  0  0  0  0  0  0  0  0  0
   18.2134   29.3745   35.3967 O   0  0  0  0  0  0  0  0  0  0  0  0
   19.9073   30.0347   33.8817 C   0  0  1  0  0  0  0  0  0  0  0  0
   20.1705   31.4376   33.9293 O   0  0  0  0  0  0  0  0  0  0  0  0
   20.5798   29.3697   35.0614 C   0  0  0  0  0  0  0  0  0  0  0  0
   19.4633   29.1309   36.0615 C   0  0  2  0  0  0  0  0  0  0  0  0
   17.7273   26.1392   39.9078 N   0  0  0  0  0  0  0  0  0  0  0  0
   17.5730   27.4654   39.6777 C   0  0  2  0  0  0  0  0  0  0  0  0
   16.8552   28.2226   40.5340 N   0  0  0  0  0  0  0  0  0  0  0  0
   18.1223   28.0650   38.6003 N   0  0  0  0  0  0  0  0  0  0  0  0
   18.8512   27.3712   37.7028 C   0  0  1  0  0  0  0  0  0  0  0  0
   19.0539   26.0212   37.8743 C   0  0  1  0  0  0  0  0  0  0  0  0
   18.4438   25.3724   39.0611 C   0  0  0  0  0  0  0  0  0  0  0  0
   18.5945   24.1490   39.2734 O   0  0  0  0  0  0  0  0  0  0  0  0
   19.8036   25.5868   36.8469 N   0  0  0  0  0  0  0  0  0  0  0  0
   20.0555   26.6581   36.0596 C   0  0  0  0  0  0  0  0  0  0  0  0
   19.4675   27.7414   36.5920 N   0  0  1  0  0  0  0  0  0  0  0  0
  1  2  1  0  0  0  0
  3  1  1  6  0  0  0
  3  4  1  0  0  0  0
  3  5  1  0  0  0  0
  5  6  1  1  0  0  0
  5  7  1  0  0  0  0
  7  8  1  0  0  0  0
  8  4  1  6  0  0  0
  8 19  1  0  0  0  0
  9 15  1  0  0  0  0
  9 10  1  0  0  0  0
 10 11  1  6  0  0  0
 10 12  1  0  0  0  0
 13 12  1  6  0  0  0
 13 14  1  0  0  0  0
 13 19  1  0  0  0  0
 14 15  1  6  0  0  0
 14 17  1  0  0  0  0
 15 16  2  0  0  0  0
 17 18  1  0  0  0  0
 19 18  1  6  0  0  0
M  END
>  <CHROM.1>
178.78064112,-78.83401505,18.79343556,27.94546371,36.51212258,-1.21684549
-1.19027931,2.47406665

>  <Name>
ligand

>  <RI>
0

>  <Rbt.Current_Directory>
/home/itssahil/PROJECTS/Mol_Feturizer/New_Systems/rnas/3SKL

>  <Rbt.Executable>
rbdock ($Id: //depot/dev/client3/rdock/2013.1/src/exe/rbdock.cxx#4 $)

>  <Rbt.Library>
libRbt.so (2013.1, Build901 2013/11/27)

>  <Rbt.Parameter_File>
/export/apps/rDock/src/rDock_2013.1_src/data/scripts/dock_solv.prm

>  <Rbt.Receptor>
prm/pocket_docking_3.prm

>  <SCORE>
-17.0387

>  <SCORE.INTER>
-16.98

>  <SCORE.INTER.CONST>
1

>  <SCORE.INTER.POLAR>
0

>  <SCORE.INTER.ROT>
2

>  <SCORE.INTER.SOLV>
17.3576

>  <SCORE.INTER.VDW>
-22.0392

>  <SCORE.INTER.norm>
-0.893686

>  <SCORE.INTRA>
-0.0586825

>  <SCORE.INTRA.DIHEDRAL>
-0.314279

>  <SCORE.INTRA.DIHEDRAL.0>
1.50031

>  <SCORE.INTRA.POLAR>
0

>  <SCORE.INTRA.POLAR.0>
0

>  <SCORE.INTRA.REPUL>
0

>  <SCORE.INTRA.REPUL.0>
0

>  <SCORE.INTRA.SOLV>
-0.444784

>  <SCORE.INTRA.SOLV.lig_0>
-37.9941

>  <SCORE.INTRA.VDW>
0.320849

>  <SCORE.INTRA.VDW.0>
-0.964461

>  <SCORE.INTRA.norm>
-0.00308855

>  <SCORE.RESTR>
0

>  <SCORE.RESTR.CAVITY>
0

>  <SCORE.RESTR.norm>
0

>  <SCORE.SYSTEM>
0

>  <SCORE.SYSTEM.CONST>
0

>  <SCORE.SYSTEM.DIHEDRAL>
0

>  <SCORE.SYSTEM.SOLV>
0

>  <SCORE.SYSTEM.norm>
0

>  <SCORE.heavy>
19

>  <SCORE.norm>
-0.896775

>  <RMSD>
0.819

$$$$
ligand
 OpenBabel11021811483D
libRbt.so/2013.1/901 2013/11/27
 19 21  0  0  0  0  0  0  0  0999 V2000
   17.9962   28.8046   33.0199 C   0  0  0  0  0  0  0  0  0  0  0  0
   16.6474   28.3228   33.1515 O   0  0  0  0  0  0  0  0  0  0  0  0
   18.3199   29.8515   34.0910 C   0  0  1  0  0  0  0  0  0  0  0  0
   18.0339   29.3413   35.3931 O   0  0  0  0  0  0  0  0  0  0  0  0
   19.7871   30.2366   34.0795 C   0  0  1  0  0  0  0  0  0  0  0  0
   19.8805   31.6580   34.1833 O   0  0  0  0  0  0  0  0  0  0  0  0
   20.4069   29.6137   35.3099 C   0  0  0  0  0  0  0  0  0  0  0  0
   19.2286   29.2185   36.1812 C   0  0  2  0  0  0  0  0  0  0  0  0
   17.8488   26.0562   40.0352 N   0  0  0  0  0  0  0  0  0  0  0  0
   17.6068   27.3750   39.8411 C   0  0  2  0  0  0  0  0  0  0  0  0
   16.8859   28.0717   40.7448 N   0  0  0  0  0  0  0  0  0  0  0  0
   18.0701   28.0266   38.7536 N   0  0  0  0  0  0  0  0  0  0  0  0
   18.7964   27.3946   37.8096 C   0  0  1  0  0  0  0  0  0  0  0  0
   19.0855   26.0560   37.9425 C   0  0  1  0  0  0  0  0  0  0  0  0
   18.5694   25.3496   39.1410 C   0  0  0  0  0  0  0  0  0  0  0  0
   18.8011   24.1335   39.3197 O   0  0  0  0  0  0  0  0  0  0  0  0
   19.8114   25.6866   36.8735 N   0  0  0  0  0  0  0  0  0  0  0  0
   19.9639   26.7857   36.0992 C   0  0  0  0  0  0  0  0  0  0  0  0
   19.3385   27.8219   36.6807 N   0  0  1  0  0  0  0  0  0  0  0  0
  1  2  1  0  0  0  0
  3  1  1  6  0  0  0
  3  4  1  0  0  0  0
  3  5  1  0  0  0  0
  5  6  1  1  0  0  0
  5  7  1  0  0  0  0
  7  8  1  0  0  0  0
  8  4  1  6  0  0  0
  8 19  1  0  0  0  0
  9 15  1  0  0  0  0
  9 10  1  0  0  0  0
 10 11  1  6  0  0  0
 10 12  1  0  0  0  0
 13 12  1  6  0  0  0
 13 14  1  0  0  0  0
 13 19  1  0  0  0  0
 14 15  1  6  0  0  0
 14 17  1  0  0  0  0
 15 16  2  0  0  0  0
 17 18  1  0  0  0  0
 19 18  1  6  0  0  0
M  END
>  <CHROM.1>
53.52734867,-87.99675964,18.66856266,27.92727735,36.70146024,-1.22042998
-1.31793814,2.52356621

>  <Name>
ligand

>  <RI>
0

>  <Rbt.Current_Directory>
/home/itssahil/PROJECTS/Mol_Feturizer/New_Systems/rnas/3SKL

>  <Rbt.Executable>
rbdock ($Id: //depot/dev/client3/rdock/2013.1/src/exe/rbdock.cxx#4 $)

>  <Rbt.Library>
libRbt.so (2013.1, Build901 2013/11/27)

>  <Rbt.Parameter_File>
/export/apps/rDock/src/rDock_2013.1_src/data/scripts/dock_solv.prm

>  <Rbt.Receptor>
prm/pocket_docking_3.prm

>  <SCORE>
-16.7965

>  <SCORE.INTER>
-16.6107

>  <SCORE.INTER.CONST>
1

>  <SCORE.INTER.POLAR>
0

>  <SCORE.INTER.ROT>
2

>  <SCORE.INTER.SOLV>
17.082

>  <SCORE.INTER.VDW>
-21.7011

>  <SCORE.INTER.norm>
-0.874245

>  <SCORE.INTRA>
-0.185876

>  <SCORE.INTRA.DIHEDRAL>
-0.174935

>  <SCORE.INTRA.DIHEDRAL.0>
1.50031

>  <SCORE.INTRA.POLAR>
0

>  <SCORE.INTRA.POLAR.0>
0

>  <SCORE.INTRA.REPUL>
0

>  <SCORE.INTRA.REPUL.0>
0

>  <SCORE.INTRA.SOLV>
-0.506514

>  <SCORE.INTRA.SOLV.lig_0>
-37.9941

>  <SCORE.INTRA.VDW>
0.154849

>  <SCORE.INTRA.VDW.0>
-0.964461

>  <SCORE.INTRA.norm>
-0.00978295

>  <SCORE.RESTR>
0

>  <SCORE.RESTR.CAVITY>
0

>  <SCORE.RESTR.norm>
0

>  <SCORE.SYSTEM>
0

>  <SCORE.SYSTEM.CONST>
0

>  <SCORE.SYSTEM.DIHEDRAL>
0

>  <SCORE.SYSTEM.SOLV>
0

>  <SCORE.SYSTEM.norm>
0

>  <SCORE.heavy>
19

>  <SCORE.norm>
-0.884028

>  <RMSD>
0.819

$$$$
ligand
 OpenBabel11021811483D
libRbt.so/2013.1/901 2013/11/27
 19 21  0  0  0  0  0  0  0  0999 V2000
   17.8774   28.7622   33.0217 C   0  0  0  0  0  0  0  0  0  0  0  0
   16.5433   28.2433   33.1619 O   0  0  0  0  0  0  0  0  0  0  0  0
   18.1697   29.8371   34.0738 C   0  0  1  0  0  0  0  0  0  0  0  0
   17.9133   29.3370   35.3859 O   0  0  0  0  0  0  0  0  0  0  0  0
   19.6211   30.2771   34.0441 C   0  0  1  0  0  0  0  0  0  0  0  0
   19.6615   31.7024   34.1252 O   0  0  0  0  0  0  0  0  0  0  0  0
   20.2736   29.6973   35.2787 C   0  0  0  0  0  0  0  0  0  0  0  0
   19.1179   29.2717   36.1658 C   0  0  2  0  0  0  0  0  0  0  0  0
   17.8913   26.1213   40.0809 N   0  0  0  0  0  0  0  0  0  0  0  0
   17.5984   27.4270   39.8688 C   0  0  2  0  0  0  0  0  0  0  0  0
   16.8598   28.1105   40.7683 N   0  0  0  0  0  0  0  0  0  0  0  0
   18.0274   28.0782   38.7670 N   0  0  0  0  0  0  0  0  0  0  0  0
   18.7686   27.4589   37.8261 C   0  0  1  0  0  0  0  0  0  0  0  0
   19.1087   26.1343   37.9771 C   0  0  1  0  0  0  0  0  0  0  0  0
   18.6300   25.4281   39.1910 C   0  0  0  0  0  0  0  0  0  0  0  0
   18.9086   24.2245   39.3863 O   0  0  0  0  0  0  0  0  0  0  0  0
   19.8387   25.7754   36.9071 N   0  0  0  0  0  0  0  0  0  0  0  0
   19.9431   26.8671   36.1145 C   0  0  0  0  0  0  0  0  0  0  0  0
   19.2844   27.8882   36.6857 N   0  0  1  0  0  0  0  0  0  0  0  0
  1  2  1  0  0  0  0
  3  1  1  6  0  0  0
  3  4  1  0  0  0  0
  3  5  1  0  0  0  0
  5  6  1  1  0  0  0
  5  7  1  0  0  0  0
  7  8  1  0  0  0  0
  8  4  1  6  0  0  0
  8 19  1  0  0  0  0
  9 15  1  0  0  0  0
  9 10  1  0  0  0  0
 10 11  1  6  0  0  0
 10 12  1  0  0  0  0
 13 12  1  6  0  0  0
 13 14  1  0  0  0  0
 13 19  1  0  0  0  0
 14 15  1  6  0  0  0
 14 17  1  0  0  0  0
 15 16  2  0  0  0  0
 17 18  1  0  0  0  0
 19 18  1  6  0  0  0
M  END
>  <CHROM.1>
54.21711100,-88.05544407,18.61154875,27.96955701,36.71034002,-1.35504082
-1.30123288,2.37767476

>  <Name>
ligand

>  <RI>
0

>  <Rbt.Current_Directory>
/home/itssahil/PROJECTS/Mol_Feturizer/New_Systems/rnas/3SKL

>  <Rbt.Executable>
rbdock ($Id: //depot/dev/client3/rdock/2013.1/src/exe/rbdock.cxx#4 $)

>  <Rbt.Library>
libRbt.so (2013.1, Build901 2013/11/27)

>  <Rbt.Parameter_File>
/export/apps/rDock/src/rDock_2013.1_src/data/scripts/dock_solv.prm

>  <Rbt.Receptor>
prm/pocket_docking_8.prm

>  <SCORE>
-16.7383

>  <SCORE.INTER>
-16.5339

>  <SCORE.INTER.CONST>
1

>  <SCORE.INTER.POLAR>
0

>  <SCORE.INTER.ROT>
2

>  <SCORE.INTER.SOLV>
17.4301

>  <SCORE.INTER.VDW>
-21.766

>  <SCORE.INTER.norm>
-0.870206

>  <SCORE.INTRA>
-0.204368

>  <SCORE.INTRA.DIHEDRAL>
-0.204787

>  <SCORE.INTRA.DIHEDRAL.0>
1.50031

>  <SCORE.INTRA.POLAR>
0

>  <SCORE.INTRA.POLAR.0>
0

>  <SCORE.INTRA.REPUL>
0

>  <SCORE.INTRA.REPUL.0>
0

>  <SCORE.INTRA.SOLV>
-0.510143

>  <SCORE.INTRA.SOLV.lig_0>
-37.9941

>  <SCORE.INTRA.VDW>
0.153097

>  <SCORE.INTRA.VDW.0>
-0.964461

>  <SCORE.INTRA.norm>
-0.0107562

>  <SCORE.RESTR>
0

>  <SCORE.RESTR.CAVITY>
0

>  <SCORE.RESTR.norm>
0

>  <SCORE.SYSTEM>
0

>  <SCORE.SYSTEM.CONST>
0

>  <SCORE.SYSTEM.DIHEDRAL>
0

>  <SCORE.SYSTEM.SOLV>
0

>  <SCORE.SYSTEM.norm>
0

>  <SCORE.heavy>
19

>  <SCORE.norm>
-0.880962

>  <RMSD>
0.821

$$$$
ligand
 OpenBabel11021811483D
libRbt.so/2013.1/901 2013/11/27
 19 21  0  0  0  0  0  0  0  0999 V2000
   17.7738   28.8330   33.1627 C   0  0  0  0  0  0  0  0  0  0  0  0
   17.9397   29.2570   31.7984 O   0  0  0  0  0  0  0  0  0  0  0  0
   18.3978   29.8374   34.1373 C   0  0  1  0  0  0  0  0  0  0  0  0
   18.2382   29.3940   35.4846 O   0  0  0  0  0  0  0  0  0  0  0  0
   19.8867   30.0045   33.9003 C   0  0  1  0  0  0  0  0  0  0  0  0
   20.1953   31.3985   33.9379 O   0  0  0  0  0  0  0  0  0  0  0  0
   20.5871   29.3164   35.0501 C   0  0  0  0  0  0  0  0  0  0  0  0
   19.5067   29.1102   36.0960 C   0  0  2  0  0  0  0  0  0  0  0  0
   17.6997   26.1340   39.9215 N   0  0  0  0  0  0  0  0  0  0  0  0
   17.5628   27.4622   39.6918 C   0  0  2  0  0  0  0  0  0  0  0  0
   16.8455   28.2265   40.5421 N   0  0  0  0  0  0  0  0  0  0  0  0
   18.1292   28.0568   38.6205 N   0  0  0  0  0  0  0  0  0  0  0  0
   18.8587   27.3557   37.7291 C   0  0  1  0  0  0  0  0  0  0  0  0
   19.0443   26.0033   37.9008 C   0  0  1  0  0  0  0  0  0  0  0  0
   18.4154   25.3601   39.0808 C   0  0  0  0  0  0  0  0  0  0  0  0
   18.5501   24.1348   39.2929 O   0  0  0  0  0  0  0  0  0  0  0  0
   19.7988   25.5616   36.8800 N   0  0  0  0  0  0  0  0  0  0  0  0
   20.0706   26.6308   36.0966 C   0  0  0  0  0  0  0  0  0  0  0  0
   19.4899   27.7202   36.6247 N   0  0  1  0  0  0  0  0  0  0  0  0
  1  2  1  0  0  0  0
  3  1  1  6  0  0  0
  3  4  1  0  0  0  0
  3  5  1  0  0  0  0
  5  6  1  1  0  0  0
  5  7  1  0  0  0  0
  7  8  1  0  0  0  0
  8  4  1  6  0  0  0
  8 19  1  0  0  0  0
  9 15  1  0  0  0  0
  9 10  1  0  0  0  0
 10 11  1  6  0  0  0
 10 12  1  0  0  0  0
 13 12  1  6  0  0  0
 13 14  1  0  0  0  0
 13 19  1  0  0  0  0
 14 15  1  6  0  0  0
 14 17  1  0  0  0  0
 15 16  2  0  0  0  0
 17 18  1  0  0  0  0
 19 18  1  6  0  0  0
M  END
>  <CHROM.1>
-179.32135446,-75.66854823,18.78180431,27.93488774,36.54822751,-1.24289411
-1.15971339,2.45176585

>  <Name>
ligand

>  <RI>
0

>  <Rbt.Current_Directory>
/home/itssahil/PROJECTS/Mol_Feturizer/New_Systems/rnas/3SKL

>  <Rbt.Executable>
rbdock ($Id: //depot/dev/client3/rdock/2013.1/src/exe/rbdock.cxx#4 $)

>  <Rbt.Library>
libRbt.so (2013.1, Build901 2013/11/27)

>  <Rbt.Parameter_File>
/export/apps/rDock/src/rDock_2013.1_src/data/scripts/dock_solv.prm

>  <Rbt.Receptor>
prm/pocket_docking_3.prm

>  <SCORE>
-17.0333

>  <SCORE.INTER>
-17.0244

>  <SCORE.INTER.CONST>
1

>  <SCORE.INTER.POLAR>
0

>  <SCORE.INTER.ROT>
2

>  <SCORE.INTER.SOLV>
17.4002

>  <SCORE.INTER.VDW>
-22.083

>  <SCORE.INTER.norm>
-0.89602

>  <SCORE.INTRA>
-0.00888731

>  <SCORE.INTRA.DIHEDRAL>
-0.314925

>  <SCORE.INTRA.DIHEDRAL.0>
1.50031

>  <SCORE.INTRA.POLAR>
0

>  <SCORE.INTRA.POLAR.0>
0

>  <SCORE.INTRA.REPUL>
0

>  <SCORE.INTRA.REPUL.0>
0

>  <SCORE.INTRA.SOLV>
-0.43329

>  <SCORE.INTRA.SOLV.lig_0>
-37.9941

>  <SCORE.INTRA.VDW>
0.36522

>  <SCORE.INTRA.VDW.0>
-0.964461

>  <SCORE.INTRA.norm>
-0.000467753

>  <SCORE.RESTR>
0

>  <SCORE.RESTR.CAVITY>
0

>  <SCORE.RESTR.norm>
0

>  <SCORE.SYSTEM>
0

>  <SCORE.SYSTEM.CONST>
0

>  <SCORE.SYSTEM.DIHEDRAL>
0

>  <SCORE.SYSTEM.SOLV>
0

>  <SCORE.SYSTEM.norm>
0

>  <SCORE.heavy>
19

>  <SCORE.norm>
-0.896488

>  <RMSD>
0.822

$$$$
ligand
 OpenBabel11021811483D
libRbt.so/2013.1/901 2013/11/27
 19 21  0  0  0  0  0  0  0  0999 V2000
   17.7837   28.8617   33.2067 C   0  0  0  0  0  0  0  0  0  0  0  0
   17.9383   29.3076   31.8481 O   0  0  0  0  0  0  0  0  0  0  0  0
   18.3934   29.8628   34.1936 C   0  0  1  0  0  0  0  0  0  0  0  0
   18.2131   29.4153   35.5370 O   0  0  0  0  0  0  0  0  0  0  0  0
   19.8858   30.0296   33.9797 C   0  0  1  0  0  0  0  0  0  0  0  0
   20.1945   31.4233   34.0262 O   0  0  0  0  0  0  0  0  0  0  0  0
   20.5683   29.3377   35.1379 C   0  0  0  0  0  0  0  0  0  0  0  0
   19.4720   29.1290   36.1667 C   0  0  2  0  0  0  0  0  0  0  0  0
   17.6021   26.1415   39.9530 N   0  0  0  0  0  0  0  0  0  0  0  0
   17.4691   27.4703   39.7250 C   0  0  2  0  0  0  0  0  0  0  0  0
   16.7379   28.2321   40.5657 N   0  0  0  0  0  0  0  0  0  0  0  0
   18.0531   28.0681   38.6650 N   0  0  0  0  0  0  0  0  0  0  0  0
   18.7971   27.3696   37.7836 C   0  0  1  0  0  0  0  0  0  0  0  0
   18.9798   26.0167   37.9543 C   0  0  1  0  0  0  0  0  0  0  0  0
   18.3316   25.3700   39.1218 C   0  0  0  0  0  0  0  0  0  0  0  0
   18.4627   24.1440   39.3324 O   0  0  0  0  0  0  0  0  0  0  0  0
   19.7510   25.5780   36.9447 N   0  0  0  0  0  0  0  0  0  0  0  0
   20.0357   26.6495   36.1691 C   0  0  0  0  0  0  0  0  0  0  0  0
   19.4464   27.7374   36.6909 N   0  0  1  0  0  0  0  0  0  0  0  0
  1  2  1  0  0  0  0
  3  1  1  6  0  0  0
  3  4  1  0  0  0  0
  3  5  1  0  0  0  0
  5  6  1  1  0  0  0
  5  7  1  0  0  0  0
  7  8  1  0  0  0  0
  8  4  1  6  0  0  0
  8 19  1  0  0  0  0
  9 15  1  0  0  0  0
  9 10  1  0  0  0  0
 10 11  1  6  0  0  0
 10 12  1  0  0  0  0
 13 12  1  6  0  0  0
 13 14  1  0  0  0  0
 13 19  1  0  0  0  0
 14 15  1  6  0  0  0
 14 17  1  0  0  0  0
 15 16  2  0  0  0  0
 17 18  1  0  0  0  0
 19 18  1  6  0  0  0
M  END
>  <CHROM.1>
179.10139016,-75.58870989,18.73675920,27.95356551,36.60375203,-1.22436280
-1.14344338,2.47190301

>  <Name>
ligand

>  <RI>
0

>  <Rbt.Current_Directory>
/home/itssahil/PROJECTS/Mol_Feturizer/New_Systems/rnas/3SKL

>  <Rbt.Executable>
rbdock ($Id: //depot/dev/client3/rdock/2013.1/src/exe/rbdock.cxx#4 $)

>  <Rbt.Library>
libRbt.so (2013.1, Build901 2013/11/27)

>  <Rbt.Parameter_File>
/export/apps/rDock/src/rDock_2013.1_src/data/scripts/dock_solv.prm

>  <Rbt.Receptor>
prm/pocket_docking_3.prm

>  <SCORE>
-17.0556

>  <SCORE.INTER>
-17.0334

>  <SCORE.INTER.CONST>
1

>  <SCORE.INTER.POLAR>
0

>  <SCORE.INTER.ROT>
2

>  <SCORE.INTER.SOLV>
17.8139

>  <SCORE.INTER.VDW>
-22.2269

>  <SCORE.INTER.norm>
-0.896493

>  <SCORE.INTRA>
-0.0222509

>  <SCORE.INTRA.DIHEDRAL>
-0.31408

>  <SCORE.INTRA.DIHEDRAL.0>
1.50031

>  <SCORE.INTRA.POLAR>
0

>  <SCORE.INTRA.POLAR.0>
0

>  <SCORE.INTRA.REPUL>
0

>  <SCORE.INTRA.REPUL.0>
0

>  <SCORE.INTRA.SOLV>
-0.440845

>  <SCORE.INTRA.SOLV.lig_0>
-37.9941

>  <SCORE.INTRA.VDW>
0.355212

>  <SCORE.INTRA.VDW.0>
-0.964461

>  <SCORE.INTRA.norm>
-0.0011711

>  <SCORE.RESTR>
0

>  <SCORE.RESTR.CAVITY>
0

>  <SCORE.RESTR.norm>
0

>  <SCORE.SYSTEM>
0

>  <SCORE.SYSTEM.CONST>
0

>  <SCORE.SYSTEM.DIHEDRAL>
0

>  <SCORE.SYSTEM.SOLV>
0

>  <SCORE.SYSTEM.norm>
0

>  <SCORE.heavy>
19

>  <SCORE.norm>
-0.897664

>  <RMSD>
0.823

$$$$
ligand
 OpenBabel11021811483D
libRbt.so/2013.1/901 2013/11/27
 19 21  0  0  0  0  0  0  0  0999 V2000
   17.8946   28.8306   33.1018 C   0  0  0  0  0  0  0  0  0  0  0  0
   18.1219   29.2942   31.7594 O   0  0  0  0  0  0  0  0  0  0  0  0
   18.2974   29.8908   34.1321 C   0  0  1  0  0  0  0  0  0  0  0  0
   18.0454   29.4233   35.4570 O   0  0  0  0  0  0  0  0  0  0  0  0
   19.7757   30.2219   34.0538 C   0  0  1  0  0  0  0  0  0  0  0  0
   19.9234   31.6411   34.1172 O   0  0  0  0  0  0  0  0  0  0  0  0
   20.4214   29.6070   35.2749 C   0  0  0  0  0  0  0  0  0  0  0  0
   19.2654   29.2764   36.2011 C   0  0  2  0  0  0  0  0  0  0  0  0
   17.7426   26.2092   40.0782 N   0  0  0  0  0  0  0  0  0  0  0  0
   17.5210   27.5263   39.8505 C   0  0  2  0  0  0  0  0  0  0  0  0
   16.7829   28.2492   40.7191 N   0  0  0  0  0  0  0  0  0  0  0  0
   18.0218   28.1503   38.7635 N   0  0  0  0  0  0  0  0  0  0  0  0
   18.7672   27.4912   37.8535 C   0  0  1  0  0  0  0  0  0  0  0  0
   19.0373   26.1526   38.0217 C   0  0  1  0  0  0  0  0  0  0  0  0
   18.4799   25.4767   39.2192 C   0  0  0  0  0  0  0  0  0  0  0  0
   18.6928   24.2621   39.4291 O   0  0  0  0  0  0  0  0  0  0  0  0
   19.7888   25.7535   36.9813 N   0  0  0  0  0  0  0  0  0  0  0  0
   19.9752   26.8347   36.1895 C   0  0  0  0  0  0  0  0  0  0  0  0
   19.3454   27.8893   36.7318 N   0  0  1  0  0  0  0  0  0  0  0  0
  1  2  1  0  0  0  0
  3  1  1  6  0  0  0
  3  4  1  0  0  0  0
  3  5  1  0  0  0  0
  5  6  1  1  0  0  0
  5  7  1  0  0  0  0
  7  8  1  0  0  0  0
  8  4  1  6  0  0  0
  8 19  1  0  0  0  0
  9 15  1  0  0  0  0
  9 10  1  0  0  0  0
 10 11  1  6  0  0  0
 10 12  1  0  0  0  0
 13 12  1  6  0  0  0
 13 14  1  0  0  0  0
 13 19  1  0  0  0  0
 14 15  1  6  0  0  0
 14 17  1  0  0  0  0
 15 16  2  0  0  0  0
 17 18  1  0  0  0  0
 19 18  1  6  0  0  0
M  END
>  <CHROM.1>
179.06652127,-83.87033144,18.72529864,28.05928449,36.65086168,-1.24130992
-1.21049450,2.44889354

>  <Name>
ligand

>  <RI>
0

>  <Rbt.Current_Directory>
/home/itssahil/PROJECTS/Mol_Feturizer/New_Systems/rnas/3SKL

>  <Rbt.Executable>
rbdock ($Id: //depot/dev/client3/rdock/2013.1/src/exe/rbdock.cxx#4 $)

>  <Rbt.Library>
libRbt.so (2013.1, Build901 2013/11/27)

>  <Rbt.Parameter_File>
/export/apps/rDock/src/rDock_2013.1_src/data/scripts/dock_solv.prm

>  <Rbt.Receptor>
prm/pocket_docking_6.prm

>  <SCORE>
-16.9198

>  <SCORE.INTER>
-16.8033

>  <SCORE.INTER.CONST>
1

>  <SCORE.INTER.POLAR>
0

>  <SCORE.INTER.ROT>
2

>  <SCORE.INTER.SOLV>
17.8652

>  <SCORE.INTER.VDW>
-22.0906

>  <SCORE.INTER.norm>
-0.884387

>  <SCORE.INTRA>
-0.116435

>  <SCORE.INTRA.DIHEDRAL>
-0.319161

>  <SCORE.INTRA.DIHEDRAL.0>
1.50031

>  <SCORE.INTRA.POLAR>
0

>  <SCORE.INTRA.POLAR.0>
0

>  <SCORE.INTRA.REPUL>
0

>  <SCORE.INTRA.REPUL.0>
0

>  <SCORE.INTRA.SOLV>
-0.446824

>  <SCORE.INTRA.SOLV.lig_0>
-37.9941

>  <SCORE.INTRA.VDW>
0.266557

>  <SCORE.INTRA.VDW.0>
-0.964461

>  <SCORE.INTRA.norm>
-0.00612817

>  <SCORE.RESTR>
0

>  <SCORE.RESTR.CAVITY>
0

>  <SCORE.RESTR.norm>
0

>  <SCORE.SYSTEM>
0

>  <SCORE.SYSTEM.CONST>
0

>  <SCORE.SYSTEM.DIHEDRAL>
0

>  <SCORE.SYSTEM.SOLV>
0

>  <SCORE.SYSTEM.norm>
0

>  <SCORE.heavy>
19

>  <SCORE.norm>
-0.890515

>  <RMSD>
0.823

$$$$
ligand
 OpenBabel11021811483D
libRbt.so/2013.1/901 2013/11/27
 19 21  0  0  0  0  0  0  0  0999 V2000
   17.6403   28.8765   33.3164 C   0  0  0  0  0  0  0  0  0  0  0  0
   17.7311   29.2476   31.9298 O   0  0  0  0  0  0  0  0  0  0  0  0
   18.4418   29.8357   34.2027 C   0  0  1  0  0  0  0  0  0  0  0  0
   18.3756   29.4289   35.5693 O   0  0  0  0  0  0  0  0  0  0  0  0
   19.9095   29.8649   33.8207 C   0  0  1  0  0  0  0  0  0  0  0  0
   20.3414   31.2260   33.7955 O   0  0  0  0  0  0  0  0  0  0  0  0
   20.6552   29.1344   34.9145 C   0  0  0  0  0  0  0  0  0  0  0  0
   19.6677   29.0420   36.0634 C   0  0  2  0  0  0  0  0  0  0  0  0
   17.5790   26.2224   39.8641 N   0  0  0  0  0  0  0  0  0  0  0  0
   17.4960   27.5478   39.5954 C   0  0  2  0  0  0  0  0  0  0  0  0
   16.7619   28.3554   40.3896 N   0  0  0  0  0  0  0  0  0  0  0  0
   18.1336   28.0968   38.5400 N   0  0  0  0  0  0  0  0  0  0  0  0
   18.8839   27.3510   37.7040 C   0  0  1  0  0  0  0  0  0  0  0  0
   19.0176   25.9984   37.9177 C   0  0  1  0  0  0  0  0  0  0  0  0
   18.3107   25.4055   39.0797 C   0  0  0  0  0  0  0  0  0  0  0  0
   18.3957   24.1826   39.3281 O   0  0  0  0  0  0  0  0  0  0  0  0
   19.8076   25.5076   36.9474 N   0  0  0  0  0  0  0  0  0  0  0  0
   20.1518   26.5473   36.1529 C   0  0  0  0  0  0  0  0  0  0  0  0
   19.5805   27.6672   36.6243 N   0  0  1  0  0  0  0  0  0  0  0  0
  1  2  1  0  0  0  0
  3  1  1  6  0  0  0
  3  4  1  0  0  0  0
  3  5  1  0  0  0  0
  5  6  1  1  0  0  0
  5  7  1  0  0  0  0
  7  8  1  0  0  0  0
  8  4  1  6  0  0  0
  8 19  1  0  0  0  0
  9 15  1  0  0  0  0
  9 10  1  0  0  0  0
 10 11  1  6  0  0  0
 10 12  1  0  0  0  0
 13 12  1  6  0  0  0
 13 14  1  0  0  0  0
 13 19  1  0  0  0  0
 14 15  1  6  0  0  0
 14 17  1  0  0  0  0
 15 16  2  0  0  0  0
 17 18  1  0  0  0  0
 19 18  1  6  0  0  0
M  END
>  <CHROM.1>
-178.17465429,-66.62489687,18.77515493,27.92073284,36.53929626,1.29570458
1.01011250,-0.76168478

>  <Name>
ligand

>  <RI>
0

>  <Rbt.Current_Directory>
/home/itssahil/PROJECTS/Mol_Feturizer/New_Systems/rnas/3SKL

>  <Rbt.Executable>
rbdock ($Id: //depot/dev/client3/rdock/2013.1/src/exe/rbdock.cxx#4 $)

>  <Rbt.Library>
libRbt.so (2013.1, Build901 2013/11/27)

>  <Rbt.Parameter_File>
/export/apps/rDock/src/rDock_2013.1_src/data/scripts/dock_solv.prm

>  <Rbt.Receptor>
prm/pocket_docking_7.prm

>  <SCORE>
-16.6231

>  <SCORE.INTER>
-16.7074

>  <SCORE.INTER.CONST>
1

>  <SCORE.INTER.POLAR>
0

>  <SCORE.INTER.ROT>
2

>  <SCORE.INTER.SOLV>
17.429

>  <SCORE.INTER.VDW>
-21.8812

>  <SCORE.INTER.norm>
-0.879335

>  <SCORE.INTRA>
0.0842319

>  <SCORE.INTRA.DIHEDRAL>
-0.29458

>  <SCORE.INTRA.DIHEDRAL.0>
1.50031

>  <SCORE.INTRA.POLAR>
0

>  <SCORE.INTRA.POLAR.0>
0

>  <SCORE.INTRA.REPUL>
0

>  <SCORE.INTRA.REPUL.0>
0

>  <SCORE.INTRA.SOLV>
-0.421022

>  <SCORE.INTRA.SOLV.lig_0>
-37.9941

>  <SCORE.INTRA.VDW>
0.442033

>  <SCORE.INTRA.VDW.0>
-0.964461

>  <SCORE.INTRA.norm>
0.00443326

>  <SCORE.RESTR>
0

>  <SCORE.RESTR.CAVITY>
0

>  <SCORE.RESTR.norm>
0

>  <SCORE.SYSTEM>
0

>  <SCORE.SYSTEM.CONST>
0

>  <SCORE.SYSTEM.DIHEDRAL>
0

>  <SCORE.SYSTEM.SOLV>
0

>  <SCORE.SYSTEM.norm>
0

>  <SCORE.heavy>
19

>  <SCORE.norm>
-0.874902

>  <RMSD>
0.824

$$$$
ligand
 OpenBabel11021811483D
libRbt.so/2013.1/901 2013/11/27
 19 21  0  0  0  0  0  0  0  0999 V2000
   17.7832   28.8652   33.1965 C   0  0  0  0  0  0  0  0  0  0  0  0
   17.9589   29.2997   31.8367 O   0  0  0  0  0  0  0  0  0  0  0  0
   18.3888   29.8684   34.1838 C   0  0  1  0  0  0  0  0  0  0  0  0
   18.2124   29.4187   35.5269 O   0  0  0  0  0  0  0  0  0  0  0  0
   19.8801   30.0432   33.9684 C   0  0  1  0  0  0  0  0  0  0  0  0
   20.1816   31.4385   34.0159 O   0  0  0  0  0  0  0  0  0  0  0  0
   20.5675   29.3537   35.1251 C   0  0  0  0  0  0  0  0  0  0  0  0
   19.4735   29.1383   36.1549 C   0  0  2  0  0  0  0  0  0  0  0  0
   17.6264   26.1380   39.9423 N   0  0  0  0  0  0  0  0  0  0  0  0
   17.4866   27.4665   39.7160 C   0  0  2  0  0  0  0  0  0  0  0  0
   16.7537   28.2239   40.5591 N   0  0  0  0  0  0  0  0  0  0  0  0
   18.0653   28.0680   38.6553 N   0  0  0  0  0  0  0  0  0  0  0  0
   18.8107   27.3741   37.7715 C   0  0  1  0  0  0  0  0  0  0  0  0
   19.0002   26.0218   37.9404 C   0  0  1  0  0  0  0  0  0  0  0  0
   18.3576   25.3709   39.1087 C   0  0  0  0  0  0  0  0  0  0  0  0
   18.4951   24.1453   39.3177 O   0  0  0  0  0  0  0  0  0  0  0  0
   19.7712   25.5878   36.9286 N   0  0  0  0  0  0  0  0  0  0  0  0
   20.0490   26.6615   36.1535 C   0  0  0  0  0  0  0  0  0  0  0  0
   19.4557   27.7460   36.6777 N   0  0  1  0  0  0  0  0  0  0  0  0
  1  2  1  0  0  0  0
  3  1  1  6  0  0  0
  3  4  1  0  0  0  0
  3  5  1  0  0  0  0
  5  6  1  1  0  0  0
  5  7  1  0  0  0  0
  7  8  1  0  0  0  0
  8  4  1  6  0  0  0
  8 19  1  0  0  0  0
  9 15  1  0  0  0  0
  9 10  1  0  0  0  0
 10 11  1  6  0  0  0
 10 12  1  0  0  0  0
 13 12  1  6  0  0  0
 13 14  1  0  0  0  0
 13 19  1  0  0  0  0
 14 15  1  6  0  0  0
 14 17  1  0  0  0  0
 15 16  2  0  0  0  0
 17 18  1  0  0  0  0
 19 18  1  6  0  0  0
M  END
>  <CHROM.1>
-179.68281882,-75.65792977,18.74721745,27.95798550,36.59207634,-1.23121392
-1.14504326,2.46656201

>  <Name>
ligand

>  <RI>
0

>  <Rbt.Current_Directory>
/home/itssahil/PROJECTS/Mol_Feturizer/New_Systems/rnas/3SKL

>  <Rbt.Executable>
rbdock ($Id: //depot/dev/client3/rdock/2013.1/src/exe/rbdock.cxx#4 $)

>  <Rbt.Library>
libRbt.so (2013.1, Build901 2013/11/27)

>  <Rbt.Parameter_File>
/export/apps/rDock/src/rDock_2013.1_src/data/scripts/dock_solv.prm

>  <Rbt.Receptor>
prm/pocket_docking_4.prm

>  <SCORE>
-17.0375

>  <SCORE.INTER>
-17.0246

>  <SCORE.INTER.CONST>
1

>  <SCORE.INTER.POLAR>
0

>  <SCORE.INTER.ROT>
2

>  <SCORE.INTER.SOLV>
17.7636

>  <SCORE.INTER.VDW>
-22.2042

>  <SCORE.INTER.norm>
-0.89603

>  <SCORE.INTRA>
-0.0129179

>  <SCORE.INTRA.DIHEDRAL>
-0.316327

>  <SCORE.INTRA.DIHEDRAL.0>
1.50031

>  <SCORE.INTRA.POLAR>
0

>  <SCORE.INTRA.POLAR.0>
0

>  <SCORE.INTRA.REPUL>
0

>  <SCORE.INTRA.REPUL.0>
0

>  <SCORE.INTRA.SOLV>
-0.435024

>  <SCORE.INTRA.SOLV.lig_0>
-37.9941

>  <SCORE.INTRA.VDW>
0.362758

>  <SCORE.INTRA.VDW.0>
-0.964461

>  <SCORE.INTRA.norm>
-0.000679892

>  <SCORE.RESTR>
0

>  <SCORE.RESTR.CAVITY>
0

>  <SCORE.RESTR.norm>
0

>  <SCORE.SYSTEM>
0

>  <SCORE.SYSTEM.CONST>
0

>  <SCORE.SYSTEM.DIHEDRAL>
0

>  <SCORE.SYSTEM.SOLV>
0

>  <SCORE.SYSTEM.norm>
0

>  <SCORE.heavy>
19

>  <SCORE.norm>
-0.89671

>  <RMSD>
0.825

$$$$
ligand
 OpenBabel11021811483D
libRbt.so/2013.1/901 2013/11/27
 19 21  0  0  0  0  0  0  0  0999 V2000
   17.7746   28.8442   33.1613 C   0  0  0  0  0  0  0  0  0  0  0  0
   17.9223   29.2829   31.7996 O   0  0  0  0  0  0  0  0  0  0  0  0
   18.3968   29.8464   34.1393 C   0  0  1  0  0  0  0  0  0  0  0  0
   18.2318   29.4015   35.4855 O   0  0  0  0  0  0  0  0  0  0  0  0
   19.8868   30.0114   33.9077 C   0  0  1  0  0  0  0  0  0  0  0  0
   20.1974   31.4048   33.9481 O   0  0  0  0  0  0  0  0  0  0  0  0
   20.5821   29.3208   35.0591 C   0  0  0  0  0  0  0  0  0  0  0  0
   19.4977   29.1150   36.1010 C   0  0  2  0  0  0  0  0  0  0  0  0
   17.6805   26.1388   39.9216 N   0  0  0  0  0  0  0  0  0  0  0  0
   17.5473   27.4676   39.6935 C   0  0  2  0  0  0  0  0  0  0  0  0
   16.8316   28.2327   40.5444 N   0  0  0  0  0  0  0  0  0  0  0  0
   18.1159   28.0620   38.6233 N   0  0  0  0  0  0  0  0  0  0  0  0
   18.8440   27.3602   37.7314 C   0  0  1  0  0  0  0  0  0  0  0  0
   19.0259   26.0070   37.9015 C   0  0  1  0  0  0  0  0  0  0  0  0
   18.3946   25.3640   39.0803 C   0  0  0  0  0  0  0  0  0  0  0  0
   18.5259   24.1380   39.2909 O   0  0  0  0  0  0  0  0  0  0  0  0
   19.7798   25.5646   36.8806 N   0  0  0  0  0  0  0  0  0  0  0  0
   20.0549   26.6341   36.0987 C   0  0  0  0  0  0  0  0  0  0  0  0
   19.4768   27.7243   36.6279 N   0  0  1  0  0  0  0  0  0  0  0  0
  1  2  1  0  0  0  0
  3  1  1  6  0  0  0
  3  4  1  0  0  0  0
  3  5  1  0  0  0  0
  5  6  1  1  0  0  0
  5  7  1  0  0  0  0
  7  8  1  0  0  0  0
  8  4  1  6  0  0  0
  8 19  1  0  0  0  0
  9 15  1  0  0  0  0
  9 10  1  0  0  0  0
 10 11  1  6  0  0  0
 10 12  1  0  0  0  0
 13 12  1  6  0  0  0
 13 14  1  0  0  0  0
 13 19  1  0  0  0  0
 14 15  1  6  0  0  0
 14 17  1  0  0  0  0
 15 16  2  0  0  0  0
 17 18  1  0  0  0  0
 19 18  1  6  0  0  0
M  END
>  <CHROM.1>
179.51986533,-75.84711860,18.77015529,27.94159432,36.55075463,-1.23668526
-1.16119689,2.45887146

>  <Name>
ligand

>  <RI>
0

>  <Rbt.Current_Directory>
/home/itssahil/PROJECTS/Mol_Feturizer/New_Systems/rnas/3SKL

>  <Rbt.Executable>
rbdock ($Id: //depot/dev/client3/rdock/2013.1/src/exe/rbdock.cxx#4 $)

>  <Rbt.Library>
libRbt.so (2013.1, Build901 2013/11/27)

>  <Rbt.Parameter_File>
/export/apps/rDock/src/rDock_2013.1_src/data/scripts/dock_solv.prm

>  <Rbt.Receptor>
prm/pocket_docking_7.prm

>  <SCORE>
-17.029

>  <SCORE.INTER>
-17.0068

>  <SCORE.INTER.CONST>
1

>  <SCORE.INTER.POLAR>
0

>  <SCORE.INTER.ROT>
2

>  <SCORE.INTER.SOLV>
17.4802

>  <SCORE.INTER.VDW>
-22.0979

>  <SCORE.INTER.norm>
-0.895096

>  <SCORE.INTRA>
-0.022119

>  <SCORE.INTRA.DIHEDRAL>
-0.316263

>  <SCORE.INTRA.DIHEDRAL.0>
1.50031

>  <SCORE.INTRA.POLAR>
0

>  <SCORE.INTRA.POLAR.0>
0

>  <SCORE.INTRA.REPUL>
0

>  <SCORE.INTRA.REPUL.0>
0

>  <SCORE.INTRA.SOLV>
-0.439018

>  <SCORE.INTRA.SOLV.lig_0>
-37.9941

>  <SCORE.INTRA.VDW>
0.355521

>  <SCORE.INTRA.VDW.0>
-0.964461

>  <SCORE.INTRA.norm>
-0.00116416

>  <SCORE.RESTR>
0

>  <SCORE.RESTR.CAVITY>
0

>  <SCORE.RESTR.norm>
0

>  <SCORE.SYSTEM>
0

>  <SCORE.SYSTEM.CONST>
0

>  <SCORE.SYSTEM.DIHEDRAL>
0

>  <SCORE.SYSTEM.SOLV>
0

>  <SCORE.SYSTEM.norm>
0

>  <SCORE.heavy>
19

>  <SCORE.norm>
-0.896261

>  <RMSD>
0.825

$$$$
ligand
 OpenBabel11021811483D
libRbt.so/2013.1/901 2013/11/27
 19 21  0  0  0  0  0  0  0  0999 V2000
   17.9602   28.7907   33.0192 C   0  0  0  0  0  0  0  0  0  0  0  0
   16.6156   28.2903   33.1207 O   0  0  0  0  0  0  0  0  0  0  0  0
   18.2374   29.8605   34.0806 C   0  0  1  0  0  0  0  0  0  0  0  0
   17.9655   29.3529   35.3867 O   0  0  0  0  0  0  0  0  0  0  0  0
   19.6882   30.3031   34.0714 C   0  0  1  0  0  0  0  0  0  0  0  0
   19.7250   31.7281   34.1606 O   0  0  0  0  0  0  0  0  0  0  0  0
   20.3263   29.7179   35.3109 C   0  0  0  0  0  0  0  0  0  0  0  0
   19.1604   29.2856   36.1812 C   0  0  2  0  0  0  0  0  0  0  0  0
   17.9034   26.1164   40.0715 N   0  0  0  0  0  0  0  0  0  0  0  0
   17.6120   27.4231   39.8633 C   0  0  2  0  0  0  0  0  0  0  0  0
   16.8664   28.1022   40.7602 N   0  0  0  0  0  0  0  0  0  0  0  0
   18.0496   28.0795   38.7680 N   0  0  0  0  0  0  0  0  0  0  0  0
   18.7982   27.4648   37.8301 C   0  0  1  0  0  0  0  0  0  0  0  0
   19.1373   26.1395   37.9773 C   0  0  1  0  0  0  0  0  0  0  0  0
   18.6491   25.4275   39.1841 C   0  0  0  0  0  0  0  0  0  0  0  0
   18.9263   24.2230   39.3758 O   0  0  0  0  0  0  0  0  0  0  0  0
   19.8756   25.7858   36.9114 N   0  0  0  0  0  0  0  0  0  0  0  0
   19.9861   26.8812   36.1249 C   0  0  0  0  0  0  0  0  0  0  0  0
   19.3229   27.8996   36.6958 N   0  0  1  0  0  0  0  0  0  0  0  0
  1  2  1  0  0  0  0
  3  1  1  6  0  0  0
  3  4  1  0  0  0  0
  3  5  1  0  0  0  0
  5  6  1  1  0  0  0
  5  7  1  0  0  0  0
  7  8  1  0  0  0  0
  8  4  1  6  0  0  0
  8 19  1  0  0  0  0
  9 15  1  0  0  0  0
  9 10  1  0  0  0  0
 10 11  1  6  0  0  0
 10 12  1  0  0  0  0
 13 12  1  6  0  0  0
 13 14  1  0  0  0  0
 13 19  1  0  0  0  0
 14 15  1  6  0  0  0
 14 17  1  0  0  0  0
 15 16  2  0  0  0  0
 17 18  1  0  0  0  0
 19 18  1  6  0  0  0
M  END
>  <CHROM.1>
55.52514739,-88.34198757,18.65263238,27.98216426,36.71344487,-1.33076255
-1.29909669,2.40540261

>  <Name>
ligand

>  <RI>
0

>  <Rbt.Current_Directory>
/home/itssahil/PROJECTS/Mol_Feturizer/New_Systems/rnas/3SKL

>  <Rbt.Executable>
rbdock ($Id: //depot/dev/client3/rdock/2013.1/src/exe/rbdock.cxx#4 $)

>  <Rbt.Library>
libRbt.so (2013.1, Build901 2013/11/27)

>  <Rbt.Parameter_File>
/export/apps/rDock/src/rDock_2013.1_src/data/scripts/dock_solv.prm

>  <Rbt.Receptor>
prm/pocket_docking_6.prm

>  <SCORE>
-16.7471

>  <SCORE.INTER>
-16.5101

>  <SCORE.INTER.CONST>
1

>  <SCORE.INTER.POLAR>
0

>  <SCORE.INTER.ROT>
2

>  <SCORE.INTER.SOLV>
17.3541

>  <SCORE.INTER.VDW>
-21.7247

>  <SCORE.INTER.norm>
-0.86895

>  <SCORE.INTRA>
-0.236998

>  <SCORE.INTRA.DIHEDRAL>
-0.252358

>  <SCORE.INTRA.DIHEDRAL.0>
1.50031

>  <SCORE.INTRA.POLAR>
0

>  <SCORE.INTRA.POLAR.0>
0

>  <SCORE.INTRA.REPUL>
0

>  <SCORE.INTRA.REPUL.0>
0

>  <SCORE.INTRA.SOLV>
-0.517095

>  <SCORE.INTRA.SOLV.lig_0>
-37.9941

>  <SCORE.INTRA.VDW>
0.147728

>  <SCORE.INTRA.VDW.0>
-0.964461

>  <SCORE.INTRA.norm>
-0.0124736

>  <SCORE.RESTR>
0

>  <SCORE.RESTR.CAVITY>
0

>  <SCORE.RESTR.norm>
0

>  <SCORE.SYSTEM>
0

>  <SCORE.SYSTEM.CONST>
0

>  <SCORE.SYSTEM.DIHEDRAL>
0

>  <SCORE.SYSTEM.SOLV>
0

>  <SCORE.SYSTEM.norm>
0

>  <SCORE.heavy>
19

>  <SCORE.norm>
-0.881424

>  <RMSD>
0.828

$$$$
ligand
 OpenBabel11021811483D
libRbt.so/2013.1/901 2013/11/27
 19 21  0  0  0  0  0  0  0  0999 V2000
   18.0154   28.7990   33.0768 C   0  0  0  0  0  0  0  0  0  0  0  0
   16.6695   28.3141   33.2255 O   0  0  0  0  0  0  0  0  0  0  0  0
   18.3559   29.8344   34.1538 C   0  0  1  0  0  0  0  0  0  0  0  0
   18.0671   29.3194   35.4533 O   0  0  0  0  0  0  0  0  0  0  0  0
   19.8278   30.2006   34.1404 C   0  0  1  0  0  0  0  0  0  0  0  0
   19.9399   31.6199   34.2532 O   0  0  0  0  0  0  0  0  0  0  0  0
   20.4432   29.5616   35.3647 C   0  0  0  0  0  0  0  0  0  0  0  0
   19.2624   29.1760   36.2370 C   0  0  2  0  0  0  0  0  0  0  0  0
   17.8417   26.0032   40.0676 N   0  0  0  0  0  0  0  0  0  0  0  0
   17.6151   27.3261   39.8823 C   0  0  2  0  0  0  0  0  0  0  0  0
   16.9011   28.0248   40.7900 N   0  0  0  0  0  0  0  0  0  0  0  0
   18.0871   27.9798   38.7998 N   0  0  0  0  0  0  0  0  0  0  0  0
   18.8073   27.3460   37.8523 C   0  0  1  0  0  0  0  0  0  0  0  0
   19.0808   26.0033   37.9763 C   0  0  1  0  0  0  0  0  0  0  0  0
   18.5552   25.2946   39.1693 C   0  0  0  0  0  0  0  0  0  0  0  0
   18.7727   24.0747   39.3398 O   0  0  0  0  0  0  0  0  0  0  0  0
   19.8038   25.6329   36.9055 N   0  0  0  0  0  0  0  0  0  0  0  0
   19.9697   26.7355   36.1390 C   0  0  0  0  0  0  0  0  0  0  0  0
   19.3556   27.7748   36.7270 N   0  0  1  0  0  0  0  0  0  0  0  0
  1  2  1  0  0  0  0
  3  1  1  6  0  0  0
  3  4  1  0  0  0  0
  3  5  1  0  0  0  0
  5  6  1  1  0  0  0
  5  7  1  0  0  0  0
  7  8  1  0  0  0  0
  8  4  1  6  0  0  0
  8 19  1  0  0  0  0
  9 15  1  0  0  0  0
  9 10  1  0  0  0  0
 10 11  1  6  0  0  0
 10 12  1  0  0  0  0
 13 12  1  6  0  0  0
 13 14  1  0  0  0  0
 13 19  1  0  0  0  0
 14 15  1  6  0  0  0
 14 17  1  0  0  0  0
 15 16  2  0  0  0  0
 17 18  1  0  0  0  0
 19 18  1  6  0  0  0
M  END
>  <CHROM.1>
52.38014229,-87.74470679,18.68446414,27.88658812,36.74951813,-1.18557173
-1.32031807,2.56452060

>  <Name>
ligand

>  <RI>
0

>  <Rbt.Current_Directory>
/home/itssahil/PROJECTS/Mol_Feturizer/New_Systems/rnas/3SKL

>  <Rbt.Executable>
rbdock ($Id: //depot/dev/client3/rdock/2013.1/src/exe/rbdock.cxx#4 $)

>  <Rbt.Library>
libRbt.so (2013.1, Build901 2013/11/27)

>  <Rbt.Parameter_File>
/export/apps/rDock/src/rDock_2013.1_src/data/scripts/dock_solv.prm

>  <Rbt.Receptor>
prm/pocket_docking_4.prm

>  <SCORE>
-16.7925

>  <SCORE.INTER>
-16.6433

>  <SCORE.INTER.CONST>
1

>  <SCORE.INTER.POLAR>
0

>  <SCORE.INTER.ROT>
2

>  <SCORE.INTER.SOLV>
16.9994

>  <SCORE.INTER.VDW>
-21.6953

>  <SCORE.INTER.norm>
-0.875961

>  <SCORE.INTRA>
-0.149262

>  <SCORE.INTRA.DIHEDRAL>
-0.118097

>  <SCORE.INTRA.DIHEDRAL.0>
1.50031

>  <SCORE.INTRA.POLAR>
0

>  <SCORE.INTRA.POLAR.0>
0

>  <SCORE.INTRA.REPUL>
0

>  <SCORE.INTRA.REPUL.0>
0

>  <SCORE.INTRA.SOLV>
-0.500345

>  <SCORE.INTRA.SOLV.lig_0>
-37.9941

>  <SCORE.INTRA.VDW>
0.159959

>  <SCORE.INTRA.VDW.0>
-0.964461

>  <SCORE.INTRA.norm>
-0.00785591

>  <SCORE.RESTR>
0

>  <SCORE.RESTR.CAVITY>
0

>  <SCORE.RESTR.norm>
0

>  <SCORE.SYSTEM>
0

>  <SCORE.SYSTEM.CONST>
0

>  <SCORE.SYSTEM.DIHEDRAL>
0

>  <SCORE.SYSTEM.SOLV>
0

>  <SCORE.SYSTEM.norm>
0

>  <SCORE.heavy>
19

>  <SCORE.norm>
-0.883817

>  <RMSD>
0.830

$$$$
ligand
 OpenBabel11021811483D
libRbt.so/2013.1/901 2013/11/27
 19 21  0  0  0  0  0  0  0  0999 V2000
   17.7543   28.7080   33.2001 C   0  0  0  0  0  0  0  0  0  0  0  0
   16.3972   28.3156   33.4702 O   0  0  0  0  0  0  0  0  0  0  0  0
   18.2402   29.7582   34.2046 C   0  0  1  0  0  0  0  0  0  0  0  0
   18.0550   29.2957   35.5422 O   0  0  0  0  0  0  0  0  0  0  0  0
   19.7185   30.0558   34.0404 C   0  0  1  0  0  0  0  0  0  0  0  0
   19.9018   31.4712   34.0941 O   0  0  0  0  0  0  0  0  0  0  0  0
   20.4200   29.4257   35.2223 C   0  0  0  0  0  0  0  0  0  0  0  0
   19.3124   29.1207   36.2144 C   0  0  2  0  0  0  0  0  0  0  0  0
   17.8385   26.0564   40.1125 N   0  0  0  0  0  0  0  0  0  0  0  0
   17.6228   27.3756   39.8918 C   0  0  2  0  0  0  0  0  0  0  0  0
   16.9065   28.1020   40.7755 N   0  0  0  0  0  0  0  0  0  0  0  0
   18.1081   27.9983   38.7970 N   0  0  0  0  0  0  0  0  0  0  0  0
   18.8314   27.3356   37.8718 C   0  0  1  0  0  0  0  0  0  0  0  0
   19.0944   25.9947   38.0322 C   0  0  1  0  0  0  0  0  0  0  0  0
   18.5542   25.3202   39.2384 C   0  0  0  0  0  0  0  0  0  0  0  0
   18.7617   24.1036   39.4417 O   0  0  0  0  0  0  0  0  0  0  0  0
   19.8233   25.5922   36.9771 N   0  0  0  0  0  0  0  0  0  0  0  0
   20.0033   26.6738   36.1843 C   0  0  0  0  0  0  0  0  0  0  0  0
   19.3918   27.7319   36.7405 N   0  0  1  0  0  0  0  0  0  0  0  0
  1  2  1  0  0  0  0
  3  1  1  6  0  0  0
  3  4  1  0  0  0  0
  3  5  1  0  0  0  0
  5  6  1  1  0  0  0
  5  7  1  0  0  0  0
  7  8  1  0  0  0  0
  8  4  1  6  0  0  0
  8 19  1  0  0  0  0
  9 15  1  0  0  0  0
  9 10  1  0  0  0  0
 10 11  1  6  0  0  0
 10 12  1  0  0  0  0
 13 12  1  6  0  0  0
 13 14  1  0  0  0  0
 13 19  1  0  0  0  0
 14 15  1  6  0  0  0
 14 17  1  0  0  0  0
 15 16  2  0  0  0  0
 17 18  1  0  0  0  0
 19 18  1  6  0  0  0
M  END
>  <CHROM.1>
53.87871662,-81.44608288,18.64787954,27.85516672,36.77705860,-1.38778548
-1.13195003,2.34242384

>  <Name>
ligand

>  <RI>
0

>  <Rbt.Current_Directory>
/home/itssahil/PROJECTS/Mol_Feturizer/New_Systems/rnas/3SKL

>  <Rbt.Executable>
rbdock ($Id: //depot/dev/client3/rdock/2013.1/src/exe/rbdock.cxx#4 $)

>  <Rbt.Library>
libRbt.so (2013.1, Build901 2013/11/27)

>  <Rbt.Parameter_File>
/export/apps/rDock/src/rDock_2013.1_src/data/scripts/dock_solv.prm

>  <Rbt.Receptor>
prm/pocket_docking_8.prm

>  <SCORE>
-16.7165

>  <SCORE.INTER>
-16.5868

>  <SCORE.INTER.CONST>
1

>  <SCORE.INTER.POLAR>
0

>  <SCORE.INTER.ROT>
2

>  <SCORE.INTER.SOLV>
17.0666

>  <SCORE.INTER.VDW>
-21.6801

>  <SCORE.INTER.norm>
-0.872991

>  <SCORE.INTRA>
-0.129705

>  <SCORE.INTRA.DIHEDRAL>
-0.188395

>  <SCORE.INTRA.DIHEDRAL.0>
1.50031

>  <SCORE.INTRA.POLAR>
0

>  <SCORE.INTRA.POLAR.0>
0

>  <SCORE.INTRA.REPUL>
0

>  <SCORE.INTRA.REPUL.0>
0

>  <SCORE.INTRA.SOLV>
-0.504096

>  <SCORE.INTRA.SOLV.lig_0>
-37.9941

>  <SCORE.INTRA.VDW>
0.216541

>  <SCORE.INTRA.VDW.0>
-0.964461

>  <SCORE.INTRA.norm>
-0.00682659

>  <SCORE.RESTR>
0

>  <SCORE.RESTR.CAVITY>
0

>  <SCORE.RESTR.norm>
0

>  <SCORE.SYSTEM>
0

>  <SCORE.SYSTEM.CONST>
0

>  <SCORE.SYSTEM.DIHEDRAL>
0

>  <SCORE.SYSTEM.SOLV>
0

>  <SCORE.SYSTEM.norm>
0

>  <SCORE.heavy>
19

>  <SCORE.norm>
-0.879818

>  <RMSD>
0.830

$$$$
ligand
 OpenBabel11021811483D
libRbt.so/2013.1/901 2013/11/27
 19 21  0  0  0  0  0  0  0  0999 V2000
   17.8818   28.6870   33.0142 C   0  0  0  0  0  0  0  0  0  0  0  0
   16.5330   28.1914   33.0754 O   0  0  0  0  0  0  0  0  0  0  0  0
   18.1245   29.7713   34.0694 C   0  0  1  0  0  0  0  0  0  0  0  0
   17.8606   29.2654   35.3778 O   0  0  0  0  0  0  0  0  0  0  0  0
   19.5626   30.2536   34.0636 C   0  0  1  0  0  0  0  0  0  0  0  0
   19.5598   31.6796   34.1430 O   0  0  0  0  0  0  0  0  0  0  0  0
   20.2108   29.6947   35.3100 C   0  0  0  0  0  0  0  0  0  0  0  0
   19.0531   29.2364   36.1781 C   0  0  2  0  0  0  0  0  0  0  0  0
   18.0689   26.1331   40.1979 N   0  0  0  0  0  0  0  0  0  0  0  0
   17.7635   27.4364   39.9887 C   0  0  2  0  0  0  0  0  0  0  0  0
   17.0814   28.1309   40.9237 N   0  0  0  0  0  0  0  0  0  0  0  0
   18.1241   28.0743   38.8551 N   0  0  0  0  0  0  0  0  0  0  0  0
   18.8063   27.4435   37.8780 C   0  0  1  0  0  0  0  0  0  0  0  0
   19.1551   26.1205   38.0234 C   0  0  1  0  0  0  0  0  0  0  0  0
   18.7517   25.4290   39.2726 C   0  0  0  0  0  0  0  0  0  0  0  0
   19.0419   24.2276   39.4647 O   0  0  0  0  0  0  0  0  0  0  0  0
   19.8181   25.7486   36.9150 N   0  0  0  0  0  0  0  0  0  0  0  0
   19.8737   26.8308   36.1047 C   0  0  0  0  0  0  0  0  0  0  0  0
   19.2512   27.8590   36.7032 N   0  0  1  0  0  0  0  0  0  0  0  0
  1  2  1  0  0  0  0
  3  1  1  6  0  0  0
  3  4  1  0  0  0  0
  3  5  1  0  0  0  0
  5  6  1  1  0  0  0
  5  7  1  0  0  0  0
  7  8  1  0  0  0  0
  8  4  1  6  0  0  0
  8 19  1  0  0  0  0
  9 15  1  0  0  0  0
  9 10  1  0  0  0  0
 10 11  1  6  0  0  0
 10 12  1  0  0  0  0
 13 12  1  6  0  0  0
 13 14  1  0  0  0  0
 13 19  1  0  0  0  0
 14 15  1  6  0  0  0
 14 17  1  0  0  0  0
 15 16  2  0  0  0  0
 17 18  1  0  0  0  0
 19 18  1  6  0  0  0
M  END
>  <CHROM.1>
58.02758393,-92.89245691,18.63564324,27.94636553,36.74710154,-1.41967802
-1.40817210,2.29760478

>  <Name>
ligand

>  <RI>
0

>  <Rbt.Current_Directory>
/home/itssahil/PROJECTS/Mol_Feturizer/New_Systems/rnas/3SKL

>  <Rbt.Executable>
rbdock ($Id: //depot/dev/client3/rdock/2013.1/src/exe/rbdock.cxx#4 $)

>  <Rbt.Library>
libRbt.so (2013.1, Build901 2013/11/27)

>  <Rbt.Parameter_File>
/export/apps/rDock/src/rDock_2013.1_src/data/scripts/dock_solv.prm

>  <Rbt.Receptor>
prm/pocket_docking_6.prm

>  <SCORE>
-16.7553

>  <SCORE.INTER>
-16.4363

>  <SCORE.INTER.CONST>
1

>  <SCORE.INTER.POLAR>
0

>  <SCORE.INTER.ROT>
2

>  <SCORE.INTER.SOLV>
17.0091

>  <SCORE.INTER.VDW>
-21.5605

>  <SCORE.INTER.norm>
-0.865066

>  <SCORE.INTRA>
-0.31906

>  <SCORE.INTRA.DIHEDRAL>
-0.309317

>  <SCORE.INTRA.DIHEDRAL.0>
1.50031

>  <SCORE.INTRA.POLAR>
0

>  <SCORE.INTRA.POLAR.0>
0

>  <SCORE.INTRA.REPUL>
0

>  <SCORE.INTRA.REPUL.0>
0

>  <SCORE.INTRA.SOLV>
-0.532834

>  <SCORE.INTRA.SOLV.lig_0>
-37.9941

>  <SCORE.INTRA.VDW>
0.102016

>  <SCORE.INTRA.VDW.0>
-0.964461

>  <SCORE.INTRA.norm>
-0.0167926

>  <SCORE.RESTR>
0

>  <SCORE.RESTR.CAVITY>
0

>  <SCORE.RESTR.norm>
0

>  <SCORE.SYSTEM>
0

>  <SCORE.SYSTEM.CONST>
0

>  <SCORE.SYSTEM.DIHEDRAL>
0

>  <SCORE.SYSTEM.SOLV>
0

>  <SCORE.SYSTEM.norm>
0

>  <SCORE.heavy>
19

>  <SCORE.norm>
-0.881859

>  <RMSD>
0.831

$$$$
ligand
 OpenBabel11021811483D
libRbt.so/2013.1/901 2013/11/27
 19 21  0  0  0  0  0  0  0  0999 V2000
   17.9714   28.7784   33.0058 C   0  0  0  0  0  0  0  0  0  0  0  0
   16.6199   28.2978   33.1107 O   0  0  0  0  0  0  0  0  0  0  0  0
   18.2691   29.8386   34.0714 C   0  0  1  0  0  0  0  0  0  0  0  0
   17.9996   29.3270   35.3764 O   0  0  0  0  0  0  0  0  0  0  0  0
   19.7254   30.2629   34.0549 C   0  0  1  0  0  0  0  0  0  0  0  0
   19.7807   31.6868   34.1519 O   0  0  0  0  0  0  0  0  0  0  0  0
   20.3642   29.6627   35.2868 C   0  0  0  0  0  0  0  0  0  0  0  0
   19.1987   29.2401   36.1625 C   0  0  2  0  0  0  0  0  0  0  0  0
   17.8635   26.0439   40.0043 N   0  0  0  0  0  0  0  0  0  0  0  0
   17.5808   27.3534   39.8021 C   0  0  2  0  0  0  0  0  0  0  0  0
   16.8226   28.0280   40.6919 N   0  0  0  0  0  0  0  0  0  0  0  0
   18.0394   28.0171   38.7199 N   0  0  0  0  0  0  0  0  0  0  0  0
   18.8015   27.4072   37.7897 C   0  0  1  0  0  0  0  0  0  0  0  0
   19.1329   26.0794   37.9316 C   0  0  1  0  0  0  0  0  0  0  0  0
   18.6215   25.3594   39.1239 C   0  0  0  0  0  0  0  0  0  0  0  0
   18.8908   24.1522   39.3102 O   0  0  0  0  0  0  0  0  0  0  0  0
   19.8879   25.7315   36.8754 N   0  0  0  0  0  0  0  0  0  0  0  0
   20.0160   26.8330   36.1001 C   0  0  0  0  0  0  0  0  0  0  0  0
   19.3471   27.8493   36.6682 N   0  0  1  0  0  0  0  0  0  0  0  0
  1  2  1  0  0  0  0
  3  1  1  6  0  0  0
  3  4  1  0  0  0  0
  3  5  1  0  0  0  0
  5  6  1  1  0  0  0
  5  7  1  0  0  0  0
  7  8  1  0  0  0  0
  8  4  1  6  0  0  0
  8 19  1  0  0  0  0
  9 15  1  0  0  0  0
  9 10  1  0  0  0  0
 10 11  1  6  0  0  0
 10 12  1  0  0  0  0
 13 12  1  6  0  0  0
 13 14  1  0  0  0  0
 13 19  1  0  0  0  0
 14 15  1  6  0  0  0
 14 17  1  0  0  0  0
 15 16  2  0  0  0  0
 17 18  1  0  0  0  0
 19 18  1  6  0  0  0
M  END
>  <CHROM.1>
55.72265216,-86.89055883,18.65976025,27.93439495,36.67947712,-1.32811122
-1.25905134,2.41624335

>  <Name>
ligand

>  <RI>
0

>  <Rbt.Current_Directory>
/home/itssahil/PROJECTS/Mol_Feturizer/New_Systems/rnas/3SKL

>  <Rbt.Executable>
rbdock ($Id: //depot/dev/client3/rdock/2013.1/src/exe/rbdock.cxx#4 $)

>  <Rbt.Library>
libRbt.so (2013.1, Build901 2013/11/27)

>  <Rbt.Parameter_File>
/export/apps/rDock/src/rDock_2013.1_src/data/scripts/dock_solv.prm

>  <Rbt.Receptor>
prm/pocket_docking_4.prm

>  <SCORE>
-16.803

>  <SCORE.INTER>
-16.5815

>  <SCORE.INTER.CONST>
1

>  <SCORE.INTER.POLAR>
0

>  <SCORE.INTER.ROT>
2

>  <SCORE.INTER.SOLV>
17.3855

>  <SCORE.INTER.VDW>
-21.7828

>  <SCORE.INTER.norm>
-0.87271

>  <SCORE.INTRA>
-0.221466

>  <SCORE.INTRA.DIHEDRAL>
-0.258299

>  <SCORE.INTRA.DIHEDRAL.0>
1.50031

>  <SCORE.INTRA.POLAR>
0

>  <SCORE.INTRA.POLAR.0>
0

>  <SCORE.INTRA.REPUL>
0

>  <SCORE.INTRA.REPUL.0>
0

>  <SCORE.INTRA.SOLV>
-0.517166

>  <SCORE.INTRA.SOLV.lig_0>
-37.9941

>  <SCORE.INTRA.VDW>
0.166266

>  <SCORE.INTRA.VDW.0>
-0.964461

>  <SCORE.INTRA.norm>
-0.0116561

>  <SCORE.RESTR>
0

>  <SCORE.RESTR.CAVITY>
0

>  <SCORE.RESTR.norm>
0

>  <SCORE.SYSTEM>
0

>  <SCORE.SYSTEM.CONST>
0

>  <SCORE.SYSTEM.DIHEDRAL>
0

>  <SCORE.SYSTEM.SOLV>
0

>  <SCORE.SYSTEM.norm>
0

>  <SCORE.heavy>
19

>  <SCORE.norm>
-0.884366

>  <RMSD>
0.832

$$$$
ligand
 OpenBabel11021811483D
libRbt.so/2013.1/901 2013/11/27
 19 21  0  0  0  0  0  0  0  0999 V2000
   17.9595   28.7689   33.0097 C   0  0  0  0  0  0  0  0  0  0  0  0
   16.6218   28.2487   33.1026 O   0  0  0  0  0  0  0  0  0  0  0  0
   18.2150   29.8406   34.0746 C   0  0  1  0  0  0  0  0  0  0  0  0
   17.9410   29.3273   35.3780 O   0  0  0  0  0  0  0  0  0  0  0  0
   19.6597   30.3027   34.0761 C   0  0  1  0  0  0  0  0  0  0  0  0
   19.6768   31.7279   34.1678 O   0  0  0  0  0  0  0  0  0  0  0  0
   20.2971   29.7241   35.3191 C   0  0  0  0  0  0  0  0  0  0  0  0
   19.1311   29.2747   36.1807 C   0  0  2  0  0  0  0  0  0  0  0  0
   17.9969   26.1194   40.1197 N   0  0  0  0  0  0  0  0  0  0  0  0
   17.7004   27.4257   39.9168 C   0  0  2  0  0  0  0  0  0  0  0  0
   16.9847   28.1086   40.8351 N   0  0  0  0  0  0  0  0  0  0  0  0
   18.1030   28.0782   38.8059 N   0  0  0  0  0  0  0  0  0  0  0  0
   18.8204   27.4596   37.8462 C   0  0  1  0  0  0  0  0  0  0  0  0
   19.1626   26.1344   37.9867 C   0  0  1  0  0  0  0  0  0  0  0  0
   18.7129   25.4268   39.2109 C   0  0  0  0  0  0  0  0  0  0  0  0
   18.9948   24.2226   39.3975 O   0  0  0  0  0  0  0  0  0  0  0  0
   19.8658   25.7764   36.8987 N   0  0  0  0  0  0  0  0  0  0  0  0
   19.9521   26.8692   36.1056 C   0  0  0  0  0  0  0  0  0  0  0  0
   19.3087   27.8902   36.6943 N   0  0  1  0  0  0  0  0  0  0  0  0
  1  2  1  0  0  0  0
  3  1  1  6  0  0  0
  3  4  1  0  0  0  0
  3  5  1  0  0  0  0
  5  6  1  1  0  0  0
  5  7  1  0  0  0  0
  7  8  1  0  0  0  0
  8  4  1  6  0  0  0
  8 19  1  0  0  0  0
  9 15  1  0  0  0  0
  9 10  1  0  0  0  0
 10 11  1  6  0  0  0
 10 12  1  0  0  0  0
 13 12  1  6  0  0  0
 13 14  1  0  0  0  0
 13 19  1  0  0  0  0
 14 15  1  6  0  0  0
 14 17  1  0  0  0  0
 15 16  2  0  0  0  0
 17 18  1  0  0  0  0
 19 18  1  6  0  0  0
M  END
>  <CHROM.1>
55.42284123,-90.75135176,18.66771201,27.97409153,36.72525507,-1.33783235
-1.36090087,2.39405930

>  <Name>
ligand

>  <RI>
0

>  <Rbt.Current_Directory>
/home/itssahil/PROJECTS/Mol_Feturizer/New_Systems/rnas/3SKL

>  <Rbt.Executable>
rbdock ($Id: //depot/dev/client3/rdock/2013.1/src/exe/rbdock.cxx#4 $)

>  <Rbt.Library>
libRbt.so (2013.1, Build901 2013/11/27)

>  <Rbt.Parameter_File>
/export/apps/rDock/src/rDock_2013.1_src/data/scripts/dock_solv.prm

>  <Rbt.Receptor>
prm/pocket_docking_7.prm

>  <SCORE>
-16.7403

>  <SCORE.INTER>
-16.4895

>  <SCORE.INTER.CONST>
1

>  <SCORE.INTER.POLAR>
0

>  <SCORE.INTER.ROT>
2

>  <SCORE.INTER.SOLV>
17.1316

>  <SCORE.INTER.VDW>
-21.6369

>  <SCORE.INTER.norm>
-0.86787

>  <SCORE.INTRA>
-0.250746

>  <SCORE.INTRA.DIHEDRAL>
-0.249081

>  <SCORE.INTRA.DIHEDRAL.0>
1.50031

>  <SCORE.INTRA.POLAR>
0

>  <SCORE.INTRA.POLAR.0>
0

>  <SCORE.INTRA.REPUL>
0

>  <SCORE.INTRA.REPUL.0>
0

>  <SCORE.INTRA.SOLV>
-0.518137

>  <SCORE.INTRA.SOLV.lig_0>
-37.9941

>  <SCORE.INTRA.VDW>
0.132863

>  <SCORE.INTRA.VDW.0>
-0.964461

>  <SCORE.INTRA.norm>
-0.0131972

>  <SCORE.RESTR>
0

>  <SCORE.RESTR.CAVITY>
0

>  <SCORE.RESTR.norm>
0

>  <SCORE.SYSTEM>
0

>  <SCORE.SYSTEM.CONST>
0

>  <SCORE.SYSTEM.DIHEDRAL>
0

>  <SCORE.SYSTEM.SOLV>
0

>  <SCORE.SYSTEM.norm>
0

>  <SCORE.heavy>
19

>  <SCORE.norm>
-0.881068

>  <RMSD>
0.832

$$$$
ligand
 OpenBabel11021811483D
libRbt.so/2013.1/901 2013/11/27
 19 21  0  0  0  0  0  0  0  0999 V2000
   17.6308   28.9367   33.4090 C   0  0  0  0  0  0  0  0  0  0  0  0
   17.7888   29.2998   32.0263 O   0  0  0  0  0  0  0  0  0  0  0  0
   18.4014   29.8919   34.3265 C   0  0  1  0  0  0  0  0  0  0  0  0
   18.3156   29.4607   35.6845 O   0  0  0  0  0  0  0  0  0  0  0  0
   19.8754   29.9488   33.9730 C   0  0  1  0  0  0  0  0  0  0  0  0
   20.2876   31.3163   33.9791 O   0  0  0  0  0  0  0  0  0  0  0  0
   20.6112   29.2104   35.0682 C   0  0  0  0  0  0  0  0  0  0  0  0
   19.6038   29.0839   36.1964 C   0  0  2  0  0  0  0  0  0  0  0  0
   17.4844   26.1691   39.9072 N   0  0  0  0  0  0  0  0  0  0  0  0
   17.3869   27.4975   39.6595 C   0  0  2  0  0  0  0  0  0  0  0  0
   16.6256   28.2805   40.4526 N   0  0  0  0  0  0  0  0  0  0  0  0
   18.0364   28.0739   38.6261 N   0  0  0  0  0  0  0  0  0  0  0  0
   18.8138   27.3536   37.7924 C   0  0  1  0  0  0  0  0  0  0  0  0
   18.9636   25.9997   37.9858 C   0  0  1  0  0  0  0  0  0  0  0  0
   18.2433   25.3766   39.1235 C   0  0  0  0  0  0  0  0  0  0  0  0
   18.3417   24.1509   39.3528 O   0  0  0  0  0  0  0  0  0  0  0  0
   19.7794   25.5372   37.0230 N   0  0  0  0  0  0  0  0  0  0  0  0
   20.1233   26.5954   36.2531 C   0  0  0  0  0  0  0  0  0  0  0  0
   19.5263   27.6986   36.7321 N   0  0  1  0  0  0  0  0  0  0  0  0
  1  2  1  0  0  0  0
  3  1  1  6  0  0  0
  3  4  1  0  0  0  0
  3  5  1  0  0  0  0
  5  6  1  1  0  0  0
  5  7  1  0  0  0  0
  7  8  1  0  0  0  0
  8  4  1  6  0  0  0
  8 19  1  0  0  0  0
  9 15  1  0  0  0  0
  9 10  1  0  0  0  0
 10 11  1  6  0  0  0
 10 12  1  0  0  0  0
 13 12  1  6  0  0  0
 13 14  1  0  0  0  0
 13 19  1  0  0  0  0
 14 15  1  6  0  0  0
 14 17  1  0  0  0  0
 15 16  2  0  0  0  0
 17 18  1  0  0  0  0
 19 18  1  6  0  0  0
M  END
>  <CHROM.1>
-175.71895364,-66.58927277,18.72150414,27.93979019,36.63554708,1.28385511
0.99489836,-0.73419882

>  <Name>
ligand

>  <RI>
0

>  <Rbt.Current_Directory>
/home/itssahil/PROJECTS/Mol_Feturizer/New_Systems/rnas/3SKL

>  <Rbt.Executable>
rbdock ($Id: //depot/dev/client3/rdock/2013.1/src/exe/rbdock.cxx#4 $)

>  <Rbt.Library>
libRbt.so (2013.1, Build901 2013/11/27)

>  <Rbt.Parameter_File>
/export/apps/rDock/src/rDock_2013.1_src/data/scripts/dock_solv.prm

>  <Rbt.Receptor>
prm/pocket_docking_3.prm

>  <SCORE>
-16.5898

>  <SCORE.INTER>
-16.7278

>  <SCORE.INTER.CONST>
1

>  <SCORE.INTER.POLAR>
0

>  <SCORE.INTER.ROT>
2

>  <SCORE.INTER.SOLV>
18.0401

>  <SCORE.INTER.VDW>
-22.0986

>  <SCORE.INTER.norm>
-0.880411

>  <SCORE.INTRA>
0.138013

>  <SCORE.INTRA.DIHEDRAL>
-0.239845

>  <SCORE.INTRA.DIHEDRAL.0>
1.50031

>  <SCORE.INTRA.POLAR>
0

>  <SCORE.INTRA.POLAR.0>
0

>  <SCORE.INTRA.REPUL>
0

>  <SCORE.INTRA.REPUL.0>
0

>  <SCORE.INTRA.SOLV>
-0.409268

>  <SCORE.INTRA.SOLV.lig_0>
-37.9941

>  <SCORE.INTRA.VDW>
0.46257

>  <SCORE.INTRA.VDW.0>
-0.964461

>  <SCORE.INTRA.norm>
0.00726385

>  <SCORE.RESTR>
0

>  <SCORE.RESTR.CAVITY>
0

>  <SCORE.RESTR.norm>
0

>  <SCORE.SYSTEM>
0

>  <SCORE.SYSTEM.CONST>
0

>  <SCORE.SYSTEM.DIHEDRAL>
0

>  <SCORE.SYSTEM.SOLV>
0

>  <SCORE.SYSTEM.norm>
0

>  <SCORE.heavy>
19

>  <SCORE.norm>
-0.873147

>  <RMSD>
0.841

$$$$
ligand
 OpenBabel11021811483D
libRbt.so/2013.1/901 2013/11/27
 19 21  0  0  0  0  0  0  0  0999 V2000
   17.8413   28.7163   33.0488 C   0  0  0  0  0  0  0  0  0  0  0  0
   16.4943   28.2279   33.1739 O   0  0  0  0  0  0  0  0  0  0  0  0
   18.1391   29.8000   34.0904 C   0  0  1  0  0  0  0  0  0  0  0  0
   17.9110   29.3038   35.4092 O   0  0  0  0  0  0  0  0  0  0  0  0
   19.5845   30.2564   34.0336 C   0  0  1  0  0  0  0  0  0  0  0  0
   19.6098   31.6826   34.1069 O   0  0  0  0  0  0  0  0  0  0  0  0
   20.2647   29.6907   35.2597 C   0  0  0  0  0  0  0  0  0  0  0  0
   19.1294   29.2564   36.1686 C   0  0  2  0  0  0  0  0  0  0  0  0
   17.9044   26.0754   40.0594 N   0  0  0  0  0  0  0  0  0  0  0  0
   17.5824   27.3731   39.8406 C   0  0  2  0  0  0  0  0  0  0  0  0
   16.8082   28.0373   40.7245 N   0  0  0  0  0  0  0  0  0  0  0  0
   18.0169   28.0351   38.7475 N   0  0  0  0  0  0  0  0  0  0  0  0
   18.7929   27.4352   37.8224 C   0  0  1  0  0  0  0  0  0  0  0  0
   19.1639   26.1198   37.9809 C   0  0  1  0  0  0  0  0  0  0  0  0
   18.6788   25.4015   39.1851 C   0  0  0  0  0  0  0  0  0  0  0  0
   18.9842   24.2054   39.3867 O   0  0  0  0  0  0  0  0  0  0  0  0
   19.9246   25.7798   36.9262 N   0  0  0  0  0  0  0  0  0  0  0  0
   20.0170   26.8739   36.1354 C   0  0  0  0  0  0  0  0  0  0  0  0
   19.3207   27.8777   36.6925 N   0  0  1  0  0  0  0  0  0  0  0  0
  1  2  1  0  0  0  0
  3  1  1  6  0  0  0
  3  4  1  0  0  0  0
  3  5  1  0  0  0  0
  5  6  1  1  0  0  0
  5  7  1  0  0  0  0
  7  8  1  0  0  0  0
  8  4  1  6  0  0  0
  8 19  1  0  0  0  0
  9 15  1  0  0  0  0
  9 10  1  0  0  0  0
 10 11  1  6  0  0  0
 10 12  1  0  0  0  0
 13 12  1  6  0  0  0
 13 14  1  0  0  0  0
 13 19  1  0  0  0  0
 14 15  1  6  0  0  0
 14 17  1  0  0  0  0
 15 16  2  0  0  0  0
 17 18  1  0  0  0  0
 19 18  1  6  0  0  0
M  END
>  <CHROM.1>
56.97087473,-85.73666427,18.61714892,27.94355579,36.70852234,-1.43520684
-1.20954279,2.30097709

>  <Name>
ligand

>  <RI>
0

>  <Rbt.Current_Directory>
/home/itssahil/PROJECTS/Mol_Feturizer/New_Systems/rnas/3SKL

>  <Rbt.Executable>
rbdock ($Id: //depot/dev/client3/rdock/2013.1/src/exe/rbdock.cxx#4 $)

>  <Rbt.Library>
libRbt.so (2013.1, Build901 2013/11/27)

>  <Rbt.Parameter_File>
/export/apps/rDock/src/rDock_2013.1_src/data/scripts/dock_solv.prm

>  <Rbt.Receptor>
prm/pocket_docking_4.prm

>  <SCORE>
-16.7193

>  <SCORE.INTER>
-16.4924

>  <SCORE.INTER.CONST>
1

>  <SCORE.INTER.POLAR>
0

>  <SCORE.INTER.ROT>
2

>  <SCORE.INTER.SOLV>
17.6592

>  <SCORE.INTER.VDW>
-21.8147

>  <SCORE.INTER.norm>
-0.86802

>  <SCORE.INTRA>
-0.226889

>  <SCORE.INTRA.DIHEDRAL>
-0.290441

>  <SCORE.INTRA.DIHEDRAL.0>
1.50031

>  <SCORE.INTRA.POLAR>
0

>  <SCORE.INTRA.POLAR.0>
0

>  <SCORE.INTRA.REPUL>
0

>  <SCORE.INTRA.REPUL.0>
0

>  <SCORE.INTRA.SOLV>
-0.522805

>  <SCORE.INTRA.SOLV.lig_0>
-37.9941

>  <SCORE.INTRA.VDW>
0.179734

>  <SCORE.INTRA.VDW.0>
-0.964461

>  <SCORE.INTRA.norm>
-0.0119415

>  <SCORE.RESTR>
0

>  <SCORE.RESTR.CAVITY>
0

>  <SCORE.RESTR.norm>
0

>  <SCORE.SYSTEM>
0

>  <SCORE.SYSTEM.CONST>
0

>  <SCORE.SYSTEM.DIHEDRAL>
0

>  <SCORE.SYSTEM.SOLV>
0

>  <SCORE.SYSTEM.norm>
0

>  <SCORE.heavy>
19

>  <SCORE.norm>
-0.879962

>  <RMSD>
0.841

$$$$
ligand
 OpenBabel11021811483D
libRbt.so/2013.1/901 2013/11/27
 19 21  0  0  0  0  0  0  0  0999 V2000
   17.9418   28.7948   33.0226 C   0  0  0  0  0  0  0  0  0  0  0  0
   16.6061   28.2767   33.1484 O   0  0  0  0  0  0  0  0  0  0  0  0
   18.2353   29.8441   34.1001 C   0  0  1  0  0  0  0  0  0  0  0  0
   17.9621   29.3187   35.3989 O   0  0  0  0  0  0  0  0  0  0  0  0
   19.6912   30.2698   34.0927 C   0  0  1  0  0  0  0  0  0  0  0  0
   19.7449   31.6926   34.2047 O   0  0  0  0  0  0  0  0  0  0  0  0
   20.3267   29.6573   35.3202 C   0  0  0  0  0  0  0  0  0  0  0  0
   19.1589   29.2245   36.1877 C   0  0  2  0  0  0  0  0  0  0  0  0
   17.8718   26.0056   40.0270 N   0  0  0  0  0  0  0  0  0  0  0  0
   17.5943   27.3186   39.8406 C   0  0  2  0  0  0  0  0  0  0  0  0
   16.8569   27.9909   40.7495 N   0  0  0  0  0  0  0  0  0  0  0  0
   18.0378   27.9882   38.7558 N   0  0  0  0  0  0  0  0  0  0  0  0
   18.7788   27.3809   37.8070 C   0  0  1  0  0  0  0  0  0  0  0  0
   19.1037   26.0498   37.9320 C   0  0  1  0  0  0  0  0  0  0  0  0
   18.6091   25.3234   39.1275 C   0  0  0  0  0  0  0  0  0  0  0  0
   18.8734   24.1130   39.2991 O   0  0  0  0  0  0  0  0  0  0  0  0
   19.8370   25.7057   36.8595 N   0  0  0  0  0  0  0  0  0  0  0  0
   19.9586   26.8127   36.0910 C   0  0  0  0  0  0  0  0  0  0  0  0
   19.3069   27.8287   36.6794 N   0  0  1  0  0  0  0  0  0  0  0  0
  1  2  1  0  0  0  0
  3  1  1  6  0  0  0
  3  4  1  0  0  0  0
  3  5  1  0  0  0  0
  5  6  1  1  0  0  0
  5  7  1  0  0  0  0
  7  8  1  0  0  0  0
  8  4  1  6  0  0  0
  8 19  1  0  0  0  0
  9 15  1  0  0  0  0
  9 10  1  0  0  0  0
 10 11  1  6  0  0  0
 10 12  1  0  0  0  0
 13 12  1  6  0  0  0
 13 14  1  0  0  0  0
 13 19  1  0  0  0  0
 14 15  1  6  0  0  0
 14 17  1  0  0  0  0
 15 16  2  0  0  0  0
 17 18  1  0  0  0  0
 19 18  1  6  0  0  0
M  END
>  <CHROM.1>
53.62859541,-88.18857464,18.63671798,27.91614814,36.70129505,-1.30085554
-1.30658925,2.45123505

>  <Name>
ligand

>  <RI>
0

>  <Rbt.Current_Directory>
/home/itssahil/PROJECTS/Mol_Feturizer/New_Systems/rnas/3SKL

>  <Rbt.Executable>
rbdock ($Id: //depot/dev/client3/rdock/2013.1/src/exe/rbdock.cxx#4 $)

>  <Rbt.Library>
libRbt.so (2013.1, Build901 2013/11/27)

>  <Rbt.Parameter_File>
/export/apps/rDock/src/rDock_2013.1_src/data/scripts/dock_solv.prm

>  <Rbt.Receptor>
prm/pocket_docking_3.prm

>  <SCORE>
-16.7922

>  <SCORE.INTER>
-16.6011

>  <SCORE.INTER.CONST>
1

>  <SCORE.INTER.POLAR>
0

>  <SCORE.INTER.ROT>
2

>  <SCORE.INTER.SOLV>
17.3587

>  <SCORE.INTER.VDW>
-21.787

>  <SCORE.INTER.norm>
-0.873742

>  <SCORE.INTRA>
-0.191147

>  <SCORE.INTRA.DIHEDRAL>
-0.17954

>  <SCORE.INTRA.DIHEDRAL.0>
1.50031

>  <SCORE.INTRA.POLAR>
0

>  <SCORE.INTRA.POLAR.0>
0

>  <SCORE.INTRA.REPUL>
0

>  <SCORE.INTRA.REPUL.0>
0

>  <SCORE.INTRA.SOLV>
-0.507167

>  <SCORE.INTRA.SOLV.lig_0>
-37.9941

>  <SCORE.INTRA.VDW>
0.152206

>  <SCORE.INTRA.VDW.0>
-0.964461

>  <SCORE.INTRA.norm>
-0.0100604

>  <SCORE.RESTR>
0

>  <SCORE.RESTR.CAVITY>
0

>  <SCORE.RESTR.norm>
0

>  <SCORE.SYSTEM>
0

>  <SCORE.SYSTEM.CONST>
0

>  <SCORE.SYSTEM.DIHEDRAL>
0

>  <SCORE.SYSTEM.SOLV>
0

>  <SCORE.SYSTEM.norm>
0

>  <SCORE.heavy>
19

>  <SCORE.norm>
-0.883802

>  <RMSD>
0.843

$$$$
ligand
 OpenBabel11021811483D
libRbt.so/2013.1/901 2013/11/27
 19 21  0  0  0  0  0  0  0  0999 V2000
   17.8948   28.8053   33.0370 C   0  0  0  0  0  0  0  0  0  0  0  0
   18.1009   29.2904   31.6988 O   0  0  0  0  0  0  0  0  0  0  0  0
   18.2876   29.8593   34.0776 C   0  0  1  0  0  0  0  0  0  0  0  0
   18.0411   29.3763   35.3979 O   0  0  0  0  0  0  0  0  0  0  0  0
   19.7624   30.2060   34.0018 C   0  0  1  0  0  0  0  0  0  0  0  0
   19.8958   31.6259   34.0790 O   0  0  0  0  0  0  0  0  0  0  0  0
   20.4150   29.5858   35.2165 C   0  0  0  0  0  0  0  0  0  0  0  0
   19.2628   29.2344   36.1400 C   0  0  2  0  0  0  0  0  0  0  0  0
   17.7372   26.1032   39.9643 N   0  0  0  0  0  0  0  0  0  0  0  0
   17.4985   27.4191   39.7477 C   0  0  2  0  0  0  0  0  0  0  0  0
   16.7384   28.1214   40.6142 N   0  0  0  0  0  0  0  0  0  0  0  0
   18.0037   28.0622   38.6739 N   0  0  0  0  0  0  0  0  0  0  0  0
   18.7707   27.4243   37.7668 C   0  0  1  0  0  0  0  0  0  0  0  0
   19.0589   26.0882   37.9244 C   0  0  1  0  0  0  0  0  0  0  0  0
   18.4965   25.3911   39.1073 C   0  0  0  0  0  0  0  0  0  0  0  0
   18.7252   24.1777   39.3072 O   0  0  0  0  0  0  0  0  0  0  0  0
   19.8297   25.7117   36.8897 N   0  0  0  0  0  0  0  0  0  0  0  0
   20.0098   26.8040   36.1118 C   0  0  0  0  0  0  0  0  0  0  0  0
   19.3572   27.8430   36.6570 N   0  0  1  0  0  0  0  0  0  0  0  0
  1  2  1  0  0  0  0
  3  1  1  6  0  0  0
  3  4  1  0  0  0  0
  3  5  1  0  0  0  0
  5  6  1  1  0  0  0
  5  7  1  0  0  0  0
  7  8  1  0  0  0  0
  8  4  1  6  0  0  0
  8 19  1  0  0  0  0
  9 15  1  0  0  0  0
  9 10  1  0  0  0  0
 10 11  1  6  0  0  0
 10 12  1  0  0  0  0
 13 12  1  6  0  0  0
 13 14  1  0  0  0  0
 13 19  1  0  0  0  0
 14 15  1  6  0  0  0
 14 17  1  0  0  0  0
 15 16  2  0  0  0  0
 17 18  1  0  0  0  0
 19 18  1  6  0  0  0
M  END
>  <CHROM.1>
178.33718176,-83.04565713,18.72406857,28.00481371,36.57138015,-1.26832696
-1.18593323,2.43477844

>  <Name>
ligand

>  <RI>
0

>  <Rbt.Current_Directory>
/home/itssahil/PROJECTS/Mol_Feturizer/New_Systems/rnas/3SKL

>  <Rbt.Executable>
rbdock ($Id: //depot/dev/client3/rdock/2013.1/src/exe/rbdock.cxx#4 $)

>  <Rbt.Library>
libRbt.so (2013.1, Build901 2013/11/27)

>  <Rbt.Parameter_File>
/export/apps/rDock/src/rDock_2013.1_src/data/scripts/dock_solv.prm

>  <Rbt.Receptor>
prm/pocket_docking_5.prm

>  <SCORE>
-16.9777

>  <SCORE.INTER>
-16.8683

>  <SCORE.INTER.CONST>
1

>  <SCORE.INTER.POLAR>
0

>  <SCORE.INTER.ROT>
2

>  <SCORE.INTER.SOLV>
18.0594

>  <SCORE.INTER.VDW>
-22.1987

>  <SCORE.INTER.norm>
-0.887804

>  <SCORE.INTRA>
-0.109453

>  <SCORE.INTRA.DIHEDRAL>
-0.3122

>  <SCORE.INTRA.DIHEDRAL.0>
1.50031

>  <SCORE.INTRA.POLAR>
0

>  <SCORE.INTRA.POLAR.0>
0

>  <SCORE.INTRA.REPUL>
0

>  <SCORE.INTRA.REPUL.0>
0

>  <SCORE.INTRA.SOLV>
-0.449794

>  <SCORE.INTRA.SOLV.lig_0>
-37.9941

>  <SCORE.INTRA.VDW>
0.271544

>  <SCORE.INTRA.VDW.0>
-0.964461

>  <SCORE.INTRA.norm>
-0.0057607

>  <SCORE.RESTR>
0

>  <SCORE.RESTR.CAVITY>
0

>  <SCORE.RESTR.norm>
0

>  <SCORE.SYSTEM>
0

>  <SCORE.SYSTEM.CONST>
0

>  <SCORE.SYSTEM.DIHEDRAL>
0

>  <SCORE.SYSTEM.SOLV>
0

>  <SCORE.SYSTEM.norm>
0

>  <SCORE.heavy>
19

>  <SCORE.norm>
-0.893564

>  <RMSD>
0.843

$$$$
ligand
 OpenBabel11021811483D
libRbt.so/2013.1/901 2013/11/27
 19 21  0  0  0  0  0  0  0  0999 V2000
   17.8574   28.7575   33.0246 C   0  0  0  0  0  0  0  0  0  0  0  0
   16.5279   28.2313   33.1798 O   0  0  0  0  0  0  0  0  0  0  0  0
   18.1529   29.8395   34.0685 C   0  0  1  0  0  0  0  0  0  0  0  0
   17.9215   29.3414   35.3860 O   0  0  0  0  0  0  0  0  0  0  0  0
   19.5987   30.2956   34.0160 C   0  0  1  0  0  0  0  0  0  0  0  0
   19.6242   31.7216   34.0915 O   0  0  0  0  0  0  0  0  0  0  0  0
   20.2757   29.7278   35.2428 C   0  0  0  0  0  0  0  0  0  0  0  0
   19.1380   29.2925   36.1483 C   0  0  2  0  0  0  0  0  0  0  0  0
   18.0467   26.1576   40.1156 N   0  0  0  0  0  0  0  0  0  0  0  0
   17.7403   27.4605   39.9052 C   0  0  2  0  0  0  0  0  0  0  0  0
   17.0252   28.1450   40.8227 N   0  0  0  0  0  0  0  0  0  0  0  0
   18.1324   28.1077   38.7875 N   0  0  0  0  0  0  0  0  0  0  0  0
   18.8486   27.4872   37.8283 C   0  0  1  0  0  0  0  0  0  0  0  0
   19.2005   26.1653   37.9762 C   0  0  1  0  0  0  0  0  0  0  0  0
   18.7623   25.4634   39.2078 C   0  0  0  0  0  0  0  0  0  0  0  0
   19.0533   24.2624   39.4013 O   0  0  0  0  0  0  0  0  0  0  0  0
   19.9001   25.8044   36.8868 N   0  0  0  0  0  0  0  0  0  0  0  0
   19.9746   26.8921   36.0855 C   0  0  0  0  0  0  0  0  0  0  0  0
   19.3276   27.9129   36.6706 N   0  0  1  0  0  0  0  0  0  0  0  0
  1  2  1  0  0  0  0
  3  1  1  6  0  0  0
  3  4  1  0  0  0  0
  3  5  1  0  0  0  0
  5  6  1  1  0  0  0
  5  7  1  0  0  0  0
  7  8  1  0  0  0  0
  8  4  1  6  0  0  0
  8 19  1  0  0  0  0
  9 15  1  0  0  0  0
  9 10  1  0  0  0  0
 10 11  1  6  0  0  0
 10 12  1  0  0  0  0
 13 12  1  6  0  0  0
 13 14  1  0  0  0  0
 13 19  1  0  0  0  0
 14 15  1  6  0  0  0
 14 17  1  0  0  0  0
 15 16  2  0  0  0  0
 17 18  1  0  0  0  0
 19 18  1  6  0  0  0
M  END
>  <CHROM.1>
54.65616984,-88.99862445,18.66616137,27.99133893,36.71114148,-1.42996246
-1.33461636,2.29881585

>  <Name>
ligand

>  <RI>
0

>  <Rbt.Current_Directory>
/home/itssahil/PROJECTS/Mol_Feturizer/New_Systems/rnas/3SKL

>  <Rbt.Executable>
rbdock ($Id: //depot/dev/client3/rdock/2013.1/src/exe/rbdock.cxx#4 $)

>  <Rbt.Library>
libRbt.so (2013.1, Build901 2013/11/27)

>  <Rbt.Parameter_File>
/export/apps/rDock/src/rDock_2013.1_src/data/scripts/dock_solv.prm

>  <Rbt.Receptor>
prm/pocket_docking_3.prm

>  <SCORE>
-16.764

>  <SCORE.INTER>
-16.5536

>  <SCORE.INTER.CONST>
1

>  <SCORE.INTER.POLAR>
0

>  <SCORE.INTER.ROT>
2

>  <SCORE.INTER.SOLV>
17.1915

>  <SCORE.INTER.VDW>
-21.6996

>  <SCORE.INTER.norm>
-0.871242

>  <SCORE.INTRA>
-0.210456

>  <SCORE.INTRA.DIHEDRAL>
-0.222144

>  <SCORE.INTRA.DIHEDRAL.0>
1.50031

>  <SCORE.INTRA.POLAR>
0

>  <SCORE.INTRA.POLAR.0>
0

>  <SCORE.INTRA.REPUL>
0

>  <SCORE.INTRA.REPUL.0>
0

>  <SCORE.INTRA.SOLV>
-0.513034

>  <SCORE.INTRA.SOLV.lig_0>
-37.9941

>  <SCORE.INTRA.VDW>
0.157133

>  <SCORE.INTRA.VDW.0>
-0.964461

>  <SCORE.INTRA.norm>
-0.0110766

>  <SCORE.RESTR>
0

>  <SCORE.RESTR.CAVITY>
0

>  <SCORE.RESTR.norm>
0

>  <SCORE.SYSTEM>
0

>  <SCORE.SYSTEM.CONST>
0

>  <SCORE.SYSTEM.DIHEDRAL>
0

>  <SCORE.SYSTEM.SOLV>
0

>  <SCORE.SYSTEM.norm>
0

>  <SCORE.heavy>
19

>  <SCORE.norm>
-0.882318

>  <RMSD>
0.844

$$$$
ligand
 OpenBabel11021811483D
libRbt.so/2013.1/901 2013/11/27
 19 21  0  0  0  0  0  0  0  0999 V2000
   17.8434   28.7519   33.0267 C   0  0  0  0  0  0  0  0  0  0  0  0
   16.5130   28.2261   33.1755 O   0  0  0  0  0  0  0  0  0  0  0  0
   18.1363   29.8296   34.0758 C   0  0  1  0  0  0  0  0  0  0  0  0
   17.9025   29.3258   35.3907 O   0  0  0  0  0  0  0  0  0  0  0  0
   19.5818   30.2868   34.0280 C   0  0  1  0  0  0  0  0  0  0  0  0
   19.6063   31.7125   34.1096 O   0  0  0  0  0  0  0  0  0  0  0  0
   20.2568   29.7142   35.2538 C   0  0  0  0  0  0  0  0  0  0  0  0
   19.1176   29.2744   36.1552 C   0  0  2  0  0  0  0  0  0  0  0  0
   18.0568   26.1345   40.1268 N   0  0  0  0  0  0  0  0  0  0  0  0
   17.7537   27.4392   39.9229 C   0  0  2  0  0  0  0  0  0  0  0  0
   17.0517   28.1245   40.8499 N   0  0  0  0  0  0  0  0  0  0  0  0
   18.1362   28.0875   38.8025 N   0  0  0  0  0  0  0  0  0  0  0  0
   18.8391   27.4662   37.8339 C   0  0  1  0  0  0  0  0  0  0  0  0
   19.1868   26.1425   37.9747 C   0  0  1  0  0  0  0  0  0  0  0  0
   18.7592   25.4395   39.2094 C   0  0  0  0  0  0  0  0  0  0  0  0
   19.0473   24.2368   39.3967 O   0  0  0  0  0  0  0  0  0  0  0  0
   19.8727   25.7813   36.8768 N   0  0  0  0  0  0  0  0  0  0  0  0
   19.9431   26.8706   36.0773 C   0  0  0  0  0  0  0  0  0  0  0  0
   19.3070   27.8927   36.6720 N   0  0  1  0  0  0  0  0  0  0  0  0
  1  2  1  0  0  0  0
  3  1  1  6  0  0  0
  3  4  1  0  0  0  0
  3  5  1  0  0  0  0
  5  6  1  1  0  0  0
  5  7  1  0  0  0  0
  7  8  1  0  0  0  0
  8  4  1  6  0  0  0
  8 19  1  0  0  0  0
  9 15  1  0  0  0  0
  9 10  1  0  0  0  0
 10 11  1  6  0  0  0
 10 12  1  0  0  0  0
 13 12  1  6  0  0  0
 13 14  1  0  0  0  0
 13 19  1  0  0  0  0
 14 15  1  6  0  0  0
 14 17  1  0  0  0  0
 15 16  2  0  0  0  0
 17 18  1  0  0  0  0
 19 18  1  6  0  0  0
M  END
>  <CHROM.1>
54.76638061,-89.80367463,18.65571780,27.97425898,36.71708853,-1.43120665
-1.35813090,2.29920311

>  <Name>
ligand

>  <RI>
0

>  <Rbt.Current_Directory>
/home/itssahil/PROJECTS/Mol_Feturizer/New_Systems/rnas/3SKL

>  <Rbt.Executable>
rbdock ($Id: //depot/dev/client3/rdock/2013.1/src/exe/rbdock.cxx#4 $)

>  <Rbt.Library>
libRbt.so (2013.1, Build901 2013/11/27)

>  <Rbt.Parameter_File>
/export/apps/rDock/src/rDock_2013.1_src/data/scripts/dock_solv.prm

>  <Rbt.Receptor>
prm/pocket_docking_4.prm

>  <SCORE>
-16.7793

>  <SCORE.INTER>
-16.5554

>  <SCORE.INTER.CONST>
1

>  <SCORE.INTER.POLAR>
0

>  <SCORE.INTER.ROT>
2

>  <SCORE.INTER.SOLV>
17.1285

>  <SCORE.INTER.VDW>
-21.6797

>  <SCORE.INTER.norm>
-0.871335

>  <SCORE.INTRA>
-0.223929

>  <SCORE.INTRA.DIHEDRAL>
-0.226285

>  <SCORE.INTRA.DIHEDRAL.0>
1.50031

>  <SCORE.INTRA.POLAR>
0

>  <SCORE.INTRA.POLAR.0>
0

>  <SCORE.INTRA.REPUL>
0

>  <SCORE.INTRA.REPUL.0>
0

>  <SCORE.INTRA.SOLV>
-0.514129

>  <SCORE.INTRA.SOLV.lig_0>
-37.9941

>  <SCORE.INTRA.VDW>
0.146278

>  <SCORE.INTRA.VDW.0>
-0.964461

>  <SCORE.INTRA.norm>
-0.0117858

>  <SCORE.RESTR>
0

>  <SCORE.RESTR.CAVITY>
0

>  <SCORE.RESTR.norm>
0

>  <SCORE.SYSTEM>
0

>  <SCORE.SYSTEM.CONST>
0

>  <SCORE.SYSTEM.DIHEDRAL>
0

>  <SCORE.SYSTEM.SOLV>
0

>  <SCORE.SYSTEM.norm>
0

>  <SCORE.heavy>
19

>  <SCORE.norm>
-0.88312

>  <RMSD>
0.847

$$$$
ligand
 OpenBabel11021811483D
libRbt.so/2013.1/901 2013/11/27
 19 21  0  0  0  0  0  0  0  0999 V2000
   17.9294   28.8070   33.0330 C   0  0  0  0  0  0  0  0  0  0  0  0
   18.1463   29.2876   31.6949 O   0  0  0  0  0  0  0  0  0  0  0  0
   18.2698   29.8808   34.0718 C   0  0  1  0  0  0  0  0  0  0  0  0
   18.0166   29.3996   35.3915 O   0  0  0  0  0  0  0  0  0  0  0  0
   19.7336   30.2750   34.0182 C   0  0  1  0  0  0  0  0  0  0  0  0
   19.8195   31.6990   34.0865 O   0  0  0  0  0  0  0  0  0  0  0  0
   20.3852   29.6852   35.2485 C   0  0  0  0  0  0  0  0  0  0  0  0
   19.2295   29.3031   36.1551 C   0  0  2  0  0  0  0  0  0  0  0  0
   17.8498   26.1888   40.0481 N   0  0  0  0  0  0  0  0  0  0  0  0
   17.5833   27.4980   39.8233 C   0  0  2  0  0  0  0  0  0  0  0  0
   16.8320   28.1968   40.7003 N   0  0  0  0  0  0  0  0  0  0  0  0
   18.0516   28.1378   38.7309 N   0  0  0  0  0  0  0  0  0  0  0  0
   18.8076   27.5030   37.8125 C   0  0  1  0  0  0  0  0  0  0  0  0
   19.1226   26.1738   37.9773 C   0  0  1  0  0  0  0  0  0  0  0  0
   18.6008   25.4804   39.1808 C   0  0  0  0  0  0  0  0  0  0  0  0
   18.8551   24.2733   39.3880 O   0  0  0  0  0  0  0  0  0  0  0  0
   19.8749   25.7991   36.9285 N   0  0  0  0  0  0  0  0  0  0  0  0
   20.0176   26.8856   36.1349 C   0  0  0  0  0  0  0  0  0  0  0  0
   19.3602   27.9194   36.6846 N   0  0  1  0  0  0  0  0  0  0  0  0
  1  2  1  0  0  0  0
  3  1  1  6  0  0  0
  3  4  1  0  0  0  0
  3  5  1  0  0  0  0
  5  6  1  1  0  0  0
  5  7  1  0  0  0  0
  7  8  1  0  0  0  0
  8  4  1  6  0  0  0
  8 19  1  0  0  0  0
  9 15  1  0  0  0  0
  9 10  1  0  0  0  0
 10 11  1  6  0  0  0
 10 12  1  0  0  0  0
 13 12  1  6  0  0  0
 13 14  1  0  0  0  0
 13 19  1  0  0  0  0
 14 15  1  6  0  0  0
 14 17  1  0  0  0  0
 15 16  2  0  0  0  0
 17 18  1  0  0  0  0
 19 18  1  6  0  0  0
M  END
>  <CHROM.1>
178.51066658,-85.55750585,18.75480740,28.07028069,36.60712193,-1.29897488
-1.20650374,2.39465064

>  <Name>
ligand

>  <RI>
0

>  <Rbt.Current_Directory>
/home/itssahil/PROJECTS/Mol_Feturizer/New_Systems/rnas/3SKL

>  <Rbt.Executable>
rbdock ($Id: //depot/dev/client3/rdock/2013.1/src/exe/rbdock.cxx#4 $)

>  <Rbt.Library>
libRbt.so (2013.1, Build901 2013/11/27)

>  <Rbt.Parameter_File>
/export/apps/rDock/src/rDock_2013.1_src/data/scripts/dock_solv.prm

>  <Rbt.Receptor>
prm/pocket_docking_6.prm

>  <SCORE>
-16.8469

>  <SCORE.INTER>
-16.7255

>  <SCORE.INTER.CONST>
1

>  <SCORE.INTER.POLAR>
0

>  <SCORE.INTER.ROT>
2

>  <SCORE.INTER.SOLV>
17.8737

>  <SCORE.INTER.VDW>
-22.0416

>  <SCORE.INTER.norm>
-0.88029

>  <SCORE.INTRA>
-0.121363

>  <SCORE.INTRA.DIHEDRAL>
-0.315021

>  <SCORE.INTRA.DIHEDRAL.0>
1.50031

>  <SCORE.INTRA.POLAR>
0

>  <SCORE.INTRA.POLAR.0>
0

>  <SCORE.INTRA.REPUL>
0

>  <SCORE.INTRA.REPUL.0>
0

>  <SCORE.INTRA.SOLV>
-0.450668

>  <SCORE.INTRA.SOLV.lig_0>
-37.9941

>  <SCORE.INTRA.VDW>
0.261482

>  <SCORE.INTRA.VDW.0>
-0.964461

>  <SCORE.INTRA.norm>
-0.00638752

>  <SCORE.RESTR>
0

>  <SCORE.RESTR.CAVITY>
0

>  <SCORE.RESTR.norm>
0

>  <SCORE.SYSTEM>
0

>  <SCORE.SYSTEM.CONST>
0

>  <SCORE.SYSTEM.DIHEDRAL>
0

>  <SCORE.SYSTEM.SOLV>
0

>  <SCORE.SYSTEM.norm>
0

>  <SCORE.heavy>
19

>  <SCORE.norm>
-0.886678

>  <RMSD>
0.848

$$$$
ligand
 OpenBabel11021811483D
libRbt.so/2013.1/901 2013/11/27
 19 21  0  0  0  0  0  0  0  0999 V2000
   17.8935   28.7858   33.0214 C   0  0  0  0  0  0  0  0  0  0  0  0
   16.5566   28.2707   33.1477 O   0  0  0  0  0  0  0  0  0  0  0  0
   18.1793   29.8570   34.0792 C   0  0  1  0  0  0  0  0  0  0  0  0
   17.9302   29.3471   35.3889 O   0  0  0  0  0  0  0  0  0  0  0  0
   19.6269   30.3092   34.0487 C   0  0  1  0  0  0  0  0  0  0  0  0
   19.6556   31.7344   34.1381 O   0  0  0  0  0  0  0  0  0  0  0  0
   20.2872   29.7278   35.2783 C   0  0  0  0  0  0  0  0  0  0  0  0
   19.1371   29.2873   36.1656 C   0  0  2  0  0  0  0  0  0  0  0  0
   18.0328   26.1333   40.1140 N   0  0  0  0  0  0  0  0  0  0  0  0
   17.7373   27.4403   39.9143 C   0  0  2  0  0  0  0  0  0  0  0  0
   17.0318   28.1244   40.8395 N   0  0  0  0  0  0  0  0  0  0  0  0
   18.1310   28.0922   38.7999 N   0  0  0  0  0  0  0  0  0  0  0  0
   18.8380   27.4724   37.8334 C   0  0  1  0  0  0  0  0  0  0  0  0
   19.1786   26.1464   37.9703 C   0  0  1  0  0  0  0  0  0  0  0  0
   18.7387   25.4394   39.1984 C   0  0  0  0  0  0  0  0  0  0  0  0
   19.0197   24.2345   39.3819 O   0  0  0  0  0  0  0  0  0  0  0  0
   19.8707   25.7872   36.8756 N   0  0  0  0  0  0  0  0  0  0  0  0
   19.9520   26.8801   36.0820 C   0  0  0  0  0  0  0  0  0  0  0  0
   19.3164   27.9023   36.6771 N   0  0  1  0  0  0  0  0  0  0  0  0
  1  2  1  0  0  0  0
  3  1  1  6  0  0  0
  3  4  1  0  0  0  0
  3  5  1  0  0  0  0
  5  6  1  1  0  0  0
  5  7  1  0  0  0  0
  7  8  1  0  0  0  0
  8  4  1  6  0  0  0
  8 19  1  0  0  0  0
  9 15  1  0  0  0  0
  9 10  1  0  0  0  0
 10 11  1  6  0  0  0
 10 12  1  0  0  0  0
 13 12  1  6  0  0  0
 13 14  1  0  0  0  0
 13 19  1  0  0  0  0
 14 15  1  6  0  0  0
 14 17  1  0  0  0  0
 15 16  2  0  0  0  0
 17 18  1  0  0  0  0
 19 18  1  6  0  0  0
M  END
>  <CHROM.1>
55.17652135,-89.99070957,18.66715503,27.98713201,36.71679290,-1.38644175
-1.35897019,2.34755000

>  <Name>
ligand

>  <RI>
0

>  <Rbt.Current_Directory>
/home/itssahil/PROJECTS/Mol_Feturizer/New_Systems/rnas/3SKL

>  <Rbt.Executable>
rbdock ($Id: //depot/dev/client3/rdock/2013.1/src/exe/rbdock.cxx#4 $)

>  <Rbt.Library>
libRbt.so (2013.1, Build901 2013/11/27)

>  <Rbt.Parameter_File>
/export/apps/rDock/src/rDock_2013.1_src/data/scripts/dock_solv.prm

>  <Rbt.Receptor>
prm/pocket_docking_8.prm

>  <SCORE>
-16.7406

>  <SCORE.INTER>
-16.5053

>  <SCORE.INTER.CONST>
1

>  <SCORE.INTER.POLAR>
0

>  <SCORE.INTER.ROT>
2

>  <SCORE.INTER.SOLV>
17.1202

>  <SCORE.INTER.VDW>
-21.6436

>  <SCORE.INTER.norm>
-0.868699

>  <SCORE.INTRA>
-0.235353

>  <SCORE.INTRA.DIHEDRAL>
-0.240904

>  <SCORE.INTRA.DIHEDRAL.0>
1.50031

>  <SCORE.INTRA.POLAR>
0

>  <SCORE.INTRA.POLAR.0>
0

>  <SCORE.INTRA.REPUL>
0

>  <SCORE.INTRA.REPUL.0>
0

>  <SCORE.INTRA.SOLV>
-0.516371

>  <SCORE.INTRA.SOLV.lig_0>
-37.9941

>  <SCORE.INTRA.VDW>
0.143285

>  <SCORE.INTRA.VDW.0>
-0.964461

>  <SCORE.INTRA.norm>
-0.012387

>  <SCORE.RESTR>
0

>  <SCORE.RESTR.CAVITY>
0

>  <SCORE.RESTR.norm>
0

>  <SCORE.SYSTEM>
0

>  <SCORE.SYSTEM.CONST>
0

>  <SCORE.SYSTEM.DIHEDRAL>
0

>  <SCORE.SYSTEM.SOLV>
0

>  <SCORE.SYSTEM.norm>
0

>  <SCORE.heavy>
19

>  <SCORE.norm>
-0.881086

>  <RMSD>
0.848

$$$$
ligand
 OpenBabel11021811483D
libRbt.so/2013.1/901 2013/11/27
 19 21  0  0  0  0  0  0  0  0999 V2000
   17.9063   28.7356   33.0673 C   0  0  0  0  0  0  0  0  0  0  0  0
   16.5686   28.2194   33.1788 O   0  0  0  0  0  0  0  0  0  0  0  0
   18.1815   29.8025   34.1321 C   0  0  1  0  0  0  0  0  0  0  0  0
   17.9214   29.2867   35.4374 O   0  0  0  0  0  0  0  0  0  0  0  0
   19.6288   30.2565   34.1164 C   0  0  1  0  0  0  0  0  0  0  0  0
   19.6551   31.6813   34.2122 O   0  0  0  0  0  0  0  0  0  0  0  0
   20.2788   29.6704   35.3493 C   0  0  0  0  0  0  0  0  0  0  0  0
   19.1215   29.2249   36.2244 C   0  0  2  0  0  0  0  0  0  0  0  0
   18.0926   26.0868   40.2059 N   0  0  0  0  0  0  0  0  0  0  0  0
   17.8082   27.3975   40.0139 C   0  0  2  0  0  0  0  0  0  0  0  0
   17.1390   28.0910   40.9588 N   0  0  0  0  0  0  0  0  0  0  0  0
   18.1775   28.0439   38.8880 N   0  0  0  0  0  0  0  0  0  0  0  0
   18.8479   27.4146   37.9017 C   0  0  1  0  0  0  0  0  0  0  0  0
   19.1752   26.0844   38.0295 C   0  0  1  0  0  0  0  0  0  0  0  0
   18.7624   25.3836   39.2705 C   0  0  0  0  0  0  0  0  0  0  0  0
   19.0331   24.1752   39.4466 O   0  0  0  0  0  0  0  0  0  0  0  0
   19.8304   25.7159   36.9153 N   0  0  0  0  0  0  0  0  0  0  0  0
   19.9025   26.8073   36.1189 C   0  0  0  0  0  0  0  0  0  0  0  0
   19.2978   27.8379   36.7315 N   0  0  1  0  0  0  0  0  0  0  0  0
  1  2  1  0  0  0  0
  3  1  1  6  0  0  0
  3  4  1  0  0  0  0
  3  5  1  0  0  0  0
  5  6  1  1  0  0  0
  5  7  1  0  0  0  0
  7  8  1  0  0  0  0
  8  4  1  6  0  0  0
  8 19  1  0  0  0  0
  9 15  1  0  0  0  0
  9 10  1  0  0  0  0
 10 11  1  6  0  0  0
 10 12  1  0  0  0  0
 13 12  1  6  0  0  0
 13 14  1  0  0  0  0
 13 19  1  0  0  0  0
 14 15  1  6  0  0  0
 14 17  1  0  0  0  0
 15 16  2  0  0  0  0
 17 18  1  0  0  0  0
 19 18  1  6  0  0  0
M  END
>  <CHROM.1>
55.22261061,-92.33326414,18.67846157,27.93162436,36.78194515,-1.36399361
-1.41723483,2.36662979

>  <Name>
ligand

>  <RI>
0

>  <Rbt.Current_Directory>
/home/itssahil/PROJECTS/Mol_Feturizer/New_Systems/rnas/3SKL

>  <Rbt.Executable>
rbdock ($Id: //depot/dev/client3/rdock/2013.1/src/exe/rbdock.cxx#4 $)

>  <Rbt.Library>
libRbt.so (2013.1, Build901 2013/11/27)

>  <Rbt.Parameter_File>
/export/apps/rDock/src/rDock_2013.1_src/data/scripts/dock_solv.prm

>  <Rbt.Receptor>
prm/pocket_docking_5.prm

>  <SCORE>
-16.7209

>  <SCORE.INTER>
-16.4527

>  <SCORE.INTER.CONST>
1

>  <SCORE.INTER.POLAR>
0

>  <SCORE.INTER.ROT>
2

>  <SCORE.INTER.SOLV>
16.7886

>  <SCORE.INTER.VDW>
-21.498

>  <SCORE.INTER.norm>
-0.865934

>  <SCORE.INTRA>
-0.268159

>  <SCORE.INTRA.DIHEDRAL>
-0.242225

>  <SCORE.INTRA.DIHEDRAL.0>
1.50031

>  <SCORE.INTRA.POLAR>
0

>  <SCORE.INTRA.POLAR.0>
0

>  <SCORE.INTRA.REPUL>
0

>  <SCORE.INTRA.REPUL.0>
0

>  <SCORE.INTRA.SOLV>
-0.518134

>  <SCORE.INTRA.SOLV.lig_0>
-37.9941

>  <SCORE.INTRA.VDW>
0.112021

>  <SCORE.INTRA.VDW.0>
-0.964461

>  <SCORE.INTRA.norm>
-0.0141136

>  <SCORE.RESTR>
0

>  <SCORE.RESTR.CAVITY>
0

>  <SCORE.RESTR.norm>
0

>  <SCORE.SYSTEM>
0

>  <SCORE.SYSTEM.CONST>
0

>  <SCORE.SYSTEM.DIHEDRAL>
0

>  <SCORE.SYSTEM.SOLV>
0

>  <SCORE.SYSTEM.norm>
0

>  <SCORE.heavy>
19

>  <SCORE.norm>
-0.880048

>  <RMSD>
0.851

$$$$
ligand
 OpenBabel11021811483D
libRbt.so/2013.1/901 2013/11/27
 19 21  0  0  0  0  0  0  0  0999 V2000
   17.6543   28.9309   33.3013 C   0  0  0  0  0  0  0  0  0  0  0  0
   17.7881   29.2888   31.9147 O   0  0  0  0  0  0  0  0  0  0  0  0
   18.4445   29.8867   34.2013 C   0  0  1  0  0  0  0  0  0  0  0  0
   18.3790   29.4624   35.5626 O   0  0  0  0  0  0  0  0  0  0  0  0
   19.9127   29.9347   33.8234 C   0  0  1  0  0  0  0  0  0  0  0  0
   20.3315   31.3001   33.8160 O   0  0  0  0  0  0  0  0  0  0  0  0
   20.6629   29.1979   34.9098 C   0  0  0  0  0  0  0  0  0  0  0  0
   19.6736   29.0817   36.0551 C   0  0  2  0  0  0  0  0  0  0  0  0
   17.6029   26.1953   39.8152 N   0  0  0  0  0  0  0  0  0  0  0  0
   17.5078   27.5230   39.5627 C   0  0  2  0  0  0  0  0  0  0  0  0
   16.7640   28.3136   40.3649 N   0  0  0  0  0  0  0  0  0  0  0  0
   18.1426   28.0912   38.5158 N   0  0  0  0  0  0  0  0  0  0  0  0
   18.9021   27.3630   37.6725 C   0  0  1  0  0  0  0  0  0  0  0  0
   19.0485   26.0093   37.8699 C   0  0  1  0  0  0  0  0  0  0  0  0
   18.3445   25.3953   39.0226 C   0  0  0  0  0  0  0  0  0  0  0  0
   18.4407   24.1702   39.2561 O   0  0  0  0  0  0  0  0  0  0  0  0
   19.8455   25.5382   36.8956 N   0  0  0  0  0  0  0  0  0  0  0  0
   20.1816   26.5910   36.1149 C   0  0  0  0  0  0  0  0  0  0  0  0
   19.5983   27.6994   36.5987 N   0  0  1  0  0  0  0  0  0  0  0  0
  1  2  1  0  0  0  0
  3  1  1  6  0  0  0
  3  4  1  0  0  0  0
  3  5  1  0  0  0  0
  5  6  1  1  0  0  0
  5  7  1  0  0  0  0
  7  8  1  0  0  0  0
  8  4  1  6  0  0  0
  8 19  1  0  0  0  0
  9 15  1  0  0  0  0
  9 10  1  0  0  0  0
 10 11  1  6  0  0  0
 10 12  1  0  0  0  0
 13 12  1  6  0  0  0
 13 14  1  0  0  0  0
 13 19  1  0  0  0  0
 14 15  1  6  0  0  0
 14 17  1  0  0  0  0
 15 16  2  0  0  0  0
 17 18  1  0  0  0  0
 19 18  1  6  0  0  0
M  END
>  <CHROM.1>
-175.88064886,-66.61795127,18.79335422,27.94424249,36.51447945,1.29829753
1.01064155,-0.75116645

>  <Name>
ligand

>  <RI>
0

>  <Rbt.Current_Directory>
/home/itssahil/PROJECTS/Mol_Feturizer/New_Systems/rnas/3SKL

>  <Rbt.Executable>
rbdock ($Id: //depot/dev/client3/rdock/2013.1/src/exe/rbdock.cxx#4 $)

>  <Rbt.Library>
libRbt.so (2013.1, Build901 2013/11/27)

>  <Rbt.Parameter_File>
/export/apps/rDock/src/rDock_2013.1_src/data/scripts/dock_solv.prm

>  <Rbt.Receptor>
prm/pocket_docking_8.prm

>  <SCORE>
-16.6841

>  <SCORE.INTER>
-16.8177

>  <SCORE.INTER.CONST>
1

>  <SCORE.INTER.POLAR>
0

>  <SCORE.INTER.ROT>
2

>  <SCORE.INTER.SOLV>
17.4498

>  <SCORE.INTER.VDW>
-21.9617

>  <SCORE.INTER.norm>
-0.885141

>  <SCORE.INTRA>
0.133553

>  <SCORE.INTRA.DIHEDRAL>
-0.2448

>  <SCORE.INTRA.DIHEDRAL.0>
1.50031

>  <SCORE.INTRA.POLAR>
0

>  <SCORE.INTRA.POLAR.0>
0

>  <SCORE.INTRA.REPUL>
0

>  <SCORE.INTRA.REPUL.0>
0

>  <SCORE.INTRA.SOLV>
-0.410057

>  <SCORE.INTRA.SOLV.lig_0>
-37.9941

>  <SCORE.INTRA.VDW>
0.460982

>  <SCORE.INTRA.VDW.0>
-0.964461

>  <SCORE.INTRA.norm>
0.00702911

>  <SCORE.RESTR>
0

>  <SCORE.RESTR.CAVITY>
0

>  <SCORE.RESTR.norm>
0

>  <SCORE.SYSTEM>
0

>  <SCORE.SYSTEM.CONST>
0

>  <SCORE.SYSTEM.DIHEDRAL>
0

>  <SCORE.SYSTEM.SOLV>
0

>  <SCORE.SYSTEM.norm>
0

>  <SCORE.heavy>
19

>  <SCORE.norm>
-0.878112

>  <RMSD>
0.851

$$$$
ligand
 OpenBabel11021811483D
libRbt.so/2013.1/901 2013/11/27
 19 21  0  0  0  0  0  0  0  0999 V2000
   17.8082   28.9413   33.2800 C   0  0  0  0  0  0  0  0  0  0  0  0
   18.0024   29.4082   31.9336 O   0  0  0  0  0  0  0  0  0  0  0  0
   18.3348   29.9548   34.3016 C   0  0  1  0  0  0  0  0  0  0  0  0
   18.1184   29.4842   35.6317 O   0  0  0  0  0  0  0  0  0  0  0  0
   19.8265   30.1855   34.1515 C   0  0  1  0  0  0  0  0  0  0  0  0
   20.0747   31.5900   34.2251 O   0  0  0  0  0  0  0  0  0  0  0  0
   20.4892   29.5083   35.3297 C   0  0  0  0  0  0  0  0  0  0  0  0
   19.3613   29.2424   36.3100 C   0  0  2  0  0  0  0  0  0  0  0  0
   17.6430   26.1821   40.1100 N   0  0  0  0  0  0  0  0  0  0  0  0
   17.4827   27.5111   39.9013 C   0  0  2  0  0  0  0  0  0  0  0  0
   16.7625   28.2513   40.7703 N   0  0  0  0  0  0  0  0  0  0  0  0
   18.0280   28.1302   38.8330 N   0  0  0  0  0  0  0  0  0  0  0  0
   18.7589   27.4540   37.9238 C   0  0  1  0  0  0  0  0  0  0  0  0
   18.9678   26.1024   38.0735 C   0  0  1  0  0  0  0  0  0  0  0  0
   18.3619   25.4321   39.2504 C   0  0  0  0  0  0  0  0  0  0  0  0
   18.5183   24.2061   39.4430 O   0  0  0  0  0  0  0  0  0  0  0  0
   19.7182   25.6878   37.0385 N   0  0  0  0  0  0  0  0  0  0  0  0
   19.9645   26.7725   36.2681 C   0  0  0  0  0  0  0  0  0  0  0  0
   19.3723   27.8446   36.8183 N   0  0  1  0  0  0  0  0  0  0  0  0
  1  2  1  0  0  0  0
  3  1  1  6  0  0  0
  3  4  1  0  0  0  0
  3  5  1  0  0  0  0
  5  6  1  1  0  0  0
  5  7  1  0  0  0  0
  7  8  1  0  0  0  0
  8  4  1  6  0  0  0
  8 19  1  0  0  0  0
  9 15  1  0  0  0  0
  9 10  1  0  0  0  0
 10 11  1  6  0  0  0
 10 12  1  0  0  0  0
 13 12  1  6  0  0  0
 13 14  1  0  0  0  0
 13 19  1  0  0  0  0
 14 15  1  6  0  0  0
 14 17  1  0  0  0  0
 15 16  2  0  0  0  0
 17 18  1  0  0  0  0
 19 18  1  6  0  0  0
M  END
>  <CHROM.1>
179.23188440,-79.76026618,18.70949857,28.04579676,36.73983903,-1.20579300
-1.19684040,2.49993616

>  <Name>
ligand

>  <RI>
0

>  <Rbt.Current_Directory>
/home/itssahil/PROJECTS/Mol_Feturizer/New_Systems/rnas/3SKL

>  <Rbt.Executable>
rbdock ($Id: //depot/dev/client3/rdock/2013.1/src/exe/rbdock.cxx#4 $)

>  <Rbt.Library>
libRbt.so (2013.1, Build901 2013/11/27)

>  <Rbt.Parameter_File>
/export/apps/rDock/src/rDock_2013.1_src/data/scripts/dock_solv.prm

>  <Rbt.Receptor>
prm/pocket_docking_6.prm

>  <SCORE>
-17.0196

>  <SCORE.INTER>
-16.9529

>  <SCORE.INTER.CONST>
1

>  <SCORE.INTER.POLAR>
0

>  <SCORE.INTER.ROT>
2

>  <SCORE.INTER.SOLV>
18.0131

>  <SCORE.INTER.VDW>
-22.2396

>  <SCORE.INTER.norm>
-0.892256

>  <SCORE.INTRA>
-0.0666965

>  <SCORE.INTRA.DIHEDRAL>
-0.318005

>  <SCORE.INTRA.DIHEDRAL.0>
1.50031

>  <SCORE.INTRA.POLAR>
0

>  <SCORE.INTRA.POLAR.0>
0

>  <SCORE.INTRA.REPUL>
0

>  <SCORE.INTRA.REPUL.0>
0

>  <SCORE.INTRA.SOLV>
-0.443227

>  <SCORE.INTRA.SOLV.lig_0>
-37.9941

>  <SCORE.INTRA.VDW>
0.313919

>  <SCORE.INTRA.VDW.0>
-0.964461

>  <SCORE.INTRA.norm>
-0.00351034

>  <SCORE.RESTR>
0

>  <SCORE.RESTR.CAVITY>
0

>  <SCORE.RESTR.norm>
0

>  <SCORE.SYSTEM>
0

>  <SCORE.SYSTEM.CONST>
0

>  <SCORE.SYSTEM.DIHEDRAL>
0

>  <SCORE.SYSTEM.SOLV>
0

>  <SCORE.SYSTEM.norm>
0

>  <SCORE.heavy>
19

>  <SCORE.norm>
-0.895767

>  <RMSD>
0.857

$$$$
ligand
 OpenBabel11021811483D
libRbt.so/2013.1/901 2013/11/27
 19 21  0  0  0  0  0  0  0  0999 V2000
   18.0375   28.7304   32.8896 C   0  0  0  0  0  0  0  0  0  0  0  0
   16.7372   28.1206   32.8115 O   0  0  0  0  0  0  0  0  0  0  0  0
   18.0760   29.8227   33.9636 C   0  0  1  0  0  0  0  0  0  0  0  0
   17.7490   29.2798   35.2426 O   0  0  0  0  0  0  0  0  0  0  0  0
   19.4536   30.4456   34.0868 C   0  0  1  0  0  0  0  0  0  0  0  0
   19.3012   31.8634   34.1675 O   0  0  0  0  0  0  0  0  0  0  0  0
   20.0412   29.9413   35.3855 C   0  0  0  0  0  0  0  0  0  0  0  0
   18.8627   29.3614   36.1461 C   0  0  2  0  0  0  0  0  0  0  0  0
   18.1784   26.2805   40.2446 N   0  0  0  0  0  0  0  0  0  0  0  0
   17.7984   27.5625   40.0262 C   0  0  2  0  0  0  0  0  0  0  0  0
   17.1129   28.2367   40.9735 N   0  0  0  0  0  0  0  0  0  0  0  0
   18.0866   28.1987   38.8712 N   0  0  0  0  0  0  0  0  0  0  0  0
   18.7675   27.5874   37.8808 C   0  0  1  0  0  0  0  0  0  0  0  0
   19.1897   26.2869   38.0342 C   0  0  1  0  0  0  0  0  0  0  0  0
   18.8654   25.5969   39.3071 C   0  0  0  0  0  0  0  0  0  0  0  0
   19.2243   24.4155   39.5074 O   0  0  0  0  0  0  0  0  0  0  0  0
   19.8334   25.9309   36.9094 N   0  0  0  0  0  0  0  0  0  0  0  0
   19.8049   27.0005   36.0812 C   0  0  0  0  0  0  0  0  0  0  0  0
   19.1501   28.0053   36.6850 N   0  0  1  0  0  0  0  0  0  0  0  0
  1  2  1  0  0  0  0
  3  1  1  6  0  0  0
  3  4  1  0  0  0  0
  3  5  1  0  0  0  0
  5  6  1  1  0  0  0
  5  7  1  0  0  0  0
  7  8  1  0  0  0  0
  8  4  1  6  0  0  0
  8 19  1  0  0  0  0
  9 15  1  0  0  0  0
  9 10  1  0  0  0  0
 10 11  1  6  0  0  0
 10 12  1  0  0  0  0
 13 12  1  6  0  0  0
 13 14  1  0  0  0  0
 13 19  1  0  0  0  0
 14 15  1  6  0  0  0
 14 17  1  0  0  0  0
 15 16  2  0  0  0  0
 17 18  1  0  0  0  0
 19 18  1  6  0  0  0
M  END
>  <CHROM.1>
59.16655355,-100.58428804,18.62298778,28.07308018,36.72604440,-1.56536936
-1.42767306,2.12929131

>  <Name>
ligand

>  <RI>
0

>  <Rbt.Current_Directory>
/home/itssahil/PROJECTS/Mol_Feturizer/New_Systems/rnas/3SKL

>  <Rbt.Executable>
rbdock ($Id: //depot/dev/client3/rdock/2013.1/src/exe/rbdock.cxx#4 $)

>  <Rbt.Library>
libRbt.so (2013.1, Build901 2013/11/27)

>  <Rbt.Parameter_File>
/export/apps/rDock/src/rDock_2013.1_src/data/scripts/dock_solv.prm

>  <Rbt.Receptor>
prm/pocket_docking_8.prm

>  <SCORE>
-16.7157

>  <SCORE.INTER>
-16.2881

>  <SCORE.INTER.CONST>
1

>  <SCORE.INTER.POLAR>
0

>  <SCORE.INTER.ROT>
2

>  <SCORE.INTER.SOLV>
17.3868

>  <SCORE.INTER.VDW>
-21.5876

>  <SCORE.INTER.norm>
-0.857266

>  <SCORE.INTRA>
-0.427638

>  <SCORE.INTRA.DIHEDRAL>
-0.316876

>  <SCORE.INTRA.DIHEDRAL.0>
1.50031

>  <SCORE.INTRA.POLAR>
0

>  <SCORE.INTRA.POLAR.0>
0

>  <SCORE.INTRA.REPUL>
0

>  <SCORE.INTRA.REPUL.0>
0

>  <SCORE.INTRA.SOLV>
-0.543556

>  <SCORE.INTRA.SOLV.lig_0>
-37.9941

>  <SCORE.INTRA.VDW>
0.00257798

>  <SCORE.INTRA.VDW.0>
-0.964461

>  <SCORE.INTRA.norm>
-0.0225073

>  <SCORE.RESTR>
0

>  <SCORE.RESTR.CAVITY>
0

>  <SCORE.RESTR.norm>
0

>  <SCORE.SYSTEM>
0

>  <SCORE.SYSTEM.CONST>
0

>  <SCORE.SYSTEM.DIHEDRAL>
0

>  <SCORE.SYSTEM.SOLV>
0

>  <SCORE.SYSTEM.norm>
0

>  <SCORE.heavy>
19

>  <SCORE.norm>
-0.879773

>  <RMSD>
0.858

$$$$
ligand
 OpenBabel11021811483D
libRbt.so/2013.1/901 2013/11/27
 19 21  0  0  0  0  0  0  0  0999 V2000
   17.6480   29.3970   33.6544 C   0  0  0  0  0  0  0  0  0  0  0  0
   18.0409   28.0135   33.6479 O   0  0  0  0  0  0  0  0  0  0  0  0
   18.5081   30.2150   34.6235 C   0  0  1  0  0  0  0  0  0  0  0  0
   18.4459   29.6620   35.9379 O   0  0  0  0  0  0  0  0  0  0  0  0
   19.9690   30.2213   34.2152 C   0  0  1  0  0  0  0  0  0  0  0  0
   20.4633   31.5563   34.3310 O   0  0  0  0  0  0  0  0  0  0  0  0
   20.6981   29.3412   35.2050 C   0  0  0  0  0  0  0  0  0  0  0  0
   19.7266   29.1654   36.3580 C   0  0  2  0  0  0  0  0  0  0  0  0
   17.5630   26.0348   39.8617 N   0  0  0  0  0  0  0  0  0  0  0  0
   17.5364   27.3841   39.7424 C   0  0  2  0  0  0  0  0  0  0  0  0
   16.8500   28.1297   40.6338 N   0  0  0  0  0  0  0  0  0  0  0  0
   18.1841   28.0187   38.7425 N   0  0  0  0  0  0  0  0  0  0  0  0
   18.8890   27.3384   37.8159 C   0  0  1  0  0  0  0  0  0  0  0  0
   18.9644   25.9659   37.8768 C   0  0  1  0  0  0  0  0  0  0  0  0
   18.2467   25.2790   38.9789 C   0  0  0  0  0  0  0  0  0  0  0  0
   18.2797   24.0335   39.0894 O   0  0  0  0  0  0  0  0  0  0  0  0
   19.7185   25.5520   36.8442 N   0  0  0  0  0  0  0  0  0  0  0  0
   20.0988   26.6575   36.1631 C   0  0  0  0  0  0  0  0  0  0  0  0
   19.5849   27.7420   36.7654 N   0  0  1  0  0  0  0  0  0  0  0  0
  1  2  1  0  0  0  0
  3  1  1  6  0  0  0
  3  4  1  0  0  0  0
  3  5  1  0  0  0  0
  5  6  1  1  0  0  0
  5  7  1  0  0  0  0
  7  8  1  0  0  0  0
  8  4  1  6  0  0  0
  8 19  1  0  0  0  0
  9 15  1  0  0  0  0
  9 10  1  0  0  0  0
 10 11  1  6  0  0  0
 10 12  1  0  0  0  0
 13 12  1  6  0  0  0
 13 14  1  0  0  0  0
 13 19  1  0  0  0  0
 14 15  1  6  0  0  0
 14 17  1  0  0  0  0
 15 16  2  0  0  0  0
 17 18  1  0  0  0  0
 19 18  1  6  0  0  0
M  END
>  <CHROM.1>
-56.29743671,-66.40129644,18.80703417,27.92209359,36.80608093,-1.04620313
-1.14910820,2.74704965

>  <Name>
ligand

>  <RI>
0

>  <Rbt.Current_Directory>
/home/itssahil/PROJECTS/Mol_Feturizer/New_Systems/rnas/3SKL

>  <Rbt.Executable>
rbdock ($Id: //depot/dev/client3/rdock/2013.1/src/exe/rbdock.cxx#4 $)

>  <Rbt.Library>
libRbt.so (2013.1, Build901 2013/11/27)

>  <Rbt.Parameter_File>
/export/apps/rDock/src/rDock_2013.1_src/data/scripts/dock_solv.prm

>  <Rbt.Receptor>
prm/pocket_docking_5.prm

>  <SCORE>
-17.1268

>  <SCORE.INTER>
-17.0395

>  <SCORE.INTER.CONST>
1

>  <SCORE.INTER.POLAR>
0

>  <SCORE.INTER.ROT>
2

>  <SCORE.INTER.SOLV>
17.0929

>  <SCORE.INTER.VDW>
-21.9907

>  <SCORE.INTER.norm>
-0.896817

>  <SCORE.INTRA>
-0.0873066

>  <SCORE.INTRA.DIHEDRAL>
-0.256366

>  <SCORE.INTRA.DIHEDRAL.0>
1.50031

>  <SCORE.INTRA.POLAR>
0

>  <SCORE.INTRA.POLAR.0>
0

>  <SCORE.INTRA.REPUL>
0

>  <SCORE.INTRA.REPUL.0>
0

>  <SCORE.INTRA.SOLV>
0.0130125

>  <SCORE.INTRA.SOLV.lig_0>
-37.9941

>  <SCORE.INTRA.VDW>
0.03437

>  <SCORE.INTRA.VDW.0>
-0.964461

>  <SCORE.INTRA.norm>
-0.00459508

>  <SCORE.RESTR>
0

>  <SCORE.RESTR.CAVITY>
0

>  <SCORE.RESTR.norm>
0

>  <SCORE.SYSTEM>
0

>  <SCORE.SYSTEM.CONST>
0

>  <SCORE.SYSTEM.DIHEDRAL>
0

>  <SCORE.SYSTEM.SOLV>
0

>  <SCORE.SYSTEM.norm>
0

>  <SCORE.heavy>
19

>  <SCORE.norm>
-0.901412

>  <RMSD>
0.860

$$$$
ligand
 OpenBabel11021811483D
libRbt.so/2013.1/901 2013/11/27
 19 21  0  0  0  0  0  0  0  0999 V2000
   17.7604   28.9062   33.3453 C   0  0  0  0  0  0  0  0  0  0  0  0
   17.9155   29.3528   31.9870 O   0  0  0  0  0  0  0  0  0  0  0  0
   18.3051   29.9399   34.3365 C   0  0  1  0  0  0  0  0  0  0  0  0
   18.1365   29.4847   35.6788 O   0  0  0  0  0  0  0  0  0  0  0  0
   19.7882   30.1876   34.1367 C   0  0  1  0  0  0  0  0  0  0  0  0
   20.0201   31.5961   34.1840 O   0  0  0  0  0  0  0  0  0  0  0  0
   20.4962   29.5350   35.3024 C   0  0  0  0  0  0  0  0  0  0  0  0
   19.4030   29.2679   36.3209 C   0  0  2  0  0  0  0  0  0  0  0  0
   17.7298   26.2065   40.1401 N   0  0  0  0  0  0  0  0  0  0  0  0
   17.5339   27.5277   39.9129 C   0  0  2  0  0  0  0  0  0  0  0  0
   16.7829   28.2575   40.7644 N   0  0  0  0  0  0  0  0  0  0  0  0
   18.0734   28.1490   38.8429 N   0  0  0  0  0  0  0  0  0  0  0  0
   18.8337   27.4830   37.9504 C   0  0  1  0  0  0  0  0  0  0  0  0
   19.0795   26.1399   38.1195 C   0  0  1  0  0  0  0  0  0  0  0  0
   18.4796   25.4670   39.2981 C   0  0  0  0  0  0  0  0  0  0  0  0
   18.6689   24.2485   39.5078 O   0  0  0  0  0  0  0  0  0  0  0  0
   19.8532   25.7343   37.0981 N   0  0  0  0  0  0  0  0  0  0  0  0
   20.0771   26.8161   36.3169 C   0  0  0  0  0  0  0  0  0  0  0  0
   19.4482   27.8775   36.8470 N   0  0  1  0  0  0  0  0  0  0  0  0
  1  2  1  0  0  0  0
  3  1  1  6  0  0  0
  3  4  1  0  0  0  0
  3  5  1  0  0  0  0
  5  6  1  1  0  0  0
  5  7  1  0  0  0  0
  7  8  1  0  0  0  0
  8  4  1  6  0  0  0
  8 19  1  0  0  0  0
  9 15  1  0  0  0  0
  9 10  1  0  0  0  0
 10 11  1  6  0  0  0
 10 12  1  0  0  0  0
 13 12  1  6  0  0  0
 13 14  1  0  0  0  0
 13 19  1  0  0  0  0
 14 15  1  6  0  0  0
 14 17  1  0  0  0  0
 15 16  2  0  0  0  0
 17 18  1  0  0  0  0
 19 18  1  6  0  0  0
M  END
>  <CHROM.1>
179.67077934,-77.16420288,18.74868412,28.05991806,36.76589111,-1.29777516
-1.14553582,2.40331530

>  <Name>
ligand

>  <RI>
0

>  <Rbt.Current_Directory>
/home/itssahil/PROJECTS/Mol_Feturizer/New_Systems/rnas/3SKL

>  <Rbt.Executable>
rbdock ($Id: //depot/dev/client3/rdock/2013.1/src/exe/rbdock.cxx#4 $)

>  <Rbt.Library>
libRbt.so (2013.1, Build901 2013/11/27)

>  <Rbt.Parameter_File>
/export/apps/rDock/src/rDock_2013.1_src/data/scripts/dock_solv.prm

>  <Rbt.Receptor>
prm/pocket_docking_6.prm

>  <SCORE>
-16.9327

>  <SCORE.INTER>
-16.898

>  <SCORE.INTER.CONST>
1

>  <SCORE.INTER.POLAR>
0

>  <SCORE.INTER.ROT>
2

>  <SCORE.INTER.SOLV>
17.949

>  <SCORE.INTER.VDW>
-22.1816

>  <SCORE.INTER.norm>
-0.889366

>  <SCORE.INTRA>
-0.03479

>  <SCORE.INTRA.DIHEDRAL>
-0.317747

>  <SCORE.INTRA.DIHEDRAL.0>
1.50031

>  <SCORE.INTRA.POLAR>
0

>  <SCORE.INTRA.POLAR.0>
0

>  <SCORE.INTRA.REPUL>
0

>  <SCORE.INTRA.REPUL.0>
0

>  <SCORE.INTRA.SOLV>
-0.439291

>  <SCORE.INTRA.SOLV.lig_0>
-37.9941

>  <SCORE.INTRA.VDW>
0.343729

>  <SCORE.INTRA.VDW.0>
-0.964461

>  <SCORE.INTRA.norm>
-0.00183105

>  <SCORE.RESTR>
0

>  <SCORE.RESTR.CAVITY>
0

>  <SCORE.RESTR.norm>
0

>  <SCORE.SYSTEM>
0

>  <SCORE.SYSTEM.CONST>
0

>  <SCORE.SYSTEM.DIHEDRAL>
0

>  <SCORE.SYSTEM.SOLV>
0

>  <SCORE.SYSTEM.norm>
0

>  <SCORE.heavy>
19

>  <SCORE.norm>
-0.891197

>  <RMSD>
0.861

$$$$
ligand
 OpenBabel11021811483D
libRbt.so/2013.1/901 2013/11/27
 19 21  0  0  0  0  0  0  0  0999 V2000
   17.8846   28.8682   33.1224 C   0  0  0  0  0  0  0  0  0  0  0  0
   18.0904   29.3594   31.7863 O   0  0  0  0  0  0  0  0  0  0  0  0
   18.3126   29.9034   34.1679 C   0  0  1  0  0  0  0  0  0  0  0  0
   18.0728   29.4125   35.4866 O   0  0  0  0  0  0  0  0  0  0  0  0
   19.7933   30.2200   34.0764 C   0  0  1  0  0  0  0  0  0  0  0  0
   19.9575   31.6359   34.1656 O   0  0  0  0  0  0  0  0  0  0  0  0
   20.4481   29.5742   35.2765 C   0  0  0  0  0  0  0  0  0  0  0  0
   19.3006   29.2378   36.2114 C   0  0  2  0  0  0  0  0  0  0  0  0
   17.7130   26.0884   39.9954 N   0  0  0  0  0  0  0  0  0  0  0  0
   17.4946   27.4100   39.7921 C   0  0  2  0  0  0  0  0  0  0  0  0
   16.7413   28.1141   40.6630 N   0  0  0  0  0  0  0  0  0  0  0  0
   18.0138   28.0572   38.7273 N   0  0  0  0  0  0  0  0  0  0  0  0
   18.7751   27.4177   37.8164 C   0  0  1  0  0  0  0  0  0  0  0  0
   19.0429   26.0759   37.9608 C   0  0  1  0  0  0  0  0  0  0  0  0
   18.4654   25.3745   39.1338 C   0  0  0  0  0  0  0  0  0  0  0  0
   18.6753   24.1558   39.3214 O   0  0  0  0  0  0  0  0  0  0  0  0
   19.8124   25.6992   36.9252 N   0  0  0  0  0  0  0  0  0  0  0  0
   20.0119   26.7971   36.1599 C   0  0  0  0  0  0  0  0  0  0  0  0
   19.3723   27.8397   36.7137 N   0  0  1  0  0  0  0  0  0  0  0  0
  1  2  1  0  0  0  0
  3  1  1  6  0  0  0
  3  4  1  0  0  0  0
  3  5  1  0  0  0  0
  5  6  1  1  0  0  0
  5  7  1  0  0  0  0
  7  8  1  0  0  0  0
  8  4  1  6  0  0  0
  8 19  1  0  0  0  0
  9 15  1  0  0  0  0
  9 10  1  0  0  0  0
 10 11  1  6  0  0  0
 10 12  1  0  0  0  0
 13 12  1  6  0  0  0
 13 14  1  0  0  0  0
 13 19  1  0  0  0  0
 14 15  1  6  0  0  0
 14 17  1  0  0  0  0
 15 16  2  0  0  0  0
 17 18  1  0  0  0  0
 19 18  1  6  0  0  0
M  END
>  <CHROM.1>
178.64528466,-82.00994946,18.72923261,28.01168906,36.62944550,-1.25067350
-1.18534137,2.46210661

>  <Name>
ligand

>  <RI>
0

>  <Rbt.Current_Directory>
/home/itssahil/PROJECTS/Mol_Feturizer/New_Systems/rnas/3SKL

>  <Rbt.Executable>
rbdock ($Id: //depot/dev/client3/rdock/2013.1/src/exe/rbdock.cxx#4 $)

>  <Rbt.Library>
libRbt.so (2013.1, Build901 2013/11/27)

>  <Rbt.Parameter_File>
/export/apps/rDock/src/rDock_2013.1_src/data/scripts/dock_solv.prm

>  <Rbt.Receptor>
prm/pocket_docking_3.prm

>  <SCORE>
-16.9944

>  <SCORE.INTER>
-16.8985

>  <SCORE.INTER.CONST>
1

>  <SCORE.INTER.POLAR>
0

>  <SCORE.INTER.ROT>
2

>  <SCORE.INTER.SOLV>
18.0996

>  <SCORE.INTER.VDW>
-22.2322

>  <SCORE.INTER.norm>
-0.889393

>  <SCORE.INTRA>
-0.0959794

>  <SCORE.INTRA.DIHEDRAL>
-0.314976

>  <SCORE.INTRA.DIHEDRAL.0>
1.50031

>  <SCORE.INTRA.POLAR>
0

>  <SCORE.INTRA.POLAR.0>
0

>  <SCORE.INTRA.REPUL>
0

>  <SCORE.INTRA.REPUL.0>
0

>  <SCORE.INTRA.SOLV>
-0.447595

>  <SCORE.INTRA.SOLV.lig_0>
-37.9941

>  <SCORE.INTRA.VDW>
0.285306

>  <SCORE.INTRA.VDW.0>
-0.964461

>  <SCORE.INTRA.norm>
-0.00505155

>  <SCORE.RESTR>
0

>  <SCORE.RESTR.CAVITY>
0

>  <SCORE.RESTR.norm>
0

>  <SCORE.SYSTEM>
0

>  <SCORE.SYSTEM.CONST>
0

>  <SCORE.SYSTEM.DIHEDRAL>
0

>  <SCORE.SYSTEM.SOLV>
0

>  <SCORE.SYSTEM.norm>
0

>  <SCORE.heavy>
19

>  <SCORE.norm>
-0.894445

>  <RMSD>
0.863

$$$$
ligand
 OpenBabel11021811483D
libRbt.so/2013.1/901 2013/11/27
 19 21  0  0  0  0  0  0  0  0999 V2000
   18.0230   28.7596   32.8853 C   0  0  0  0  0  0  0  0  0  0  0  0
   16.7289   28.1345   32.8284 O   0  0  0  0  0  0  0  0  0  0  0  0
   18.0704   29.8430   33.9678 C   0  0  1  0  0  0  0  0  0  0  0  0
   17.7473   29.2910   35.2439 O   0  0  0  0  0  0  0  0  0  0  0  0
   19.4507   30.4601   34.0897 C   0  0  1  0  0  0  0  0  0  0  0  0
   19.3037   31.8777   34.1824 O   0  0  0  0  0  0  0  0  0  0  0  0
   20.0425   29.9433   35.3814 C   0  0  0  0  0  0  0  0  0  0  0  0
   18.8655   29.3613   36.1429 C   0  0  2  0  0  0  0  0  0  0  0  0
   18.1206   26.2229   40.1868 N   0  0  0  0  0  0  0  0  0  0  0  0
   17.7373   27.5054   39.9778 C   0  0  2  0  0  0  0  0  0  0  0  0
   17.0296   28.1631   40.9203 N   0  0  0  0  0  0  0  0  0  0  0  0
   18.0439   28.1584   38.8370 N   0  0  0  0  0  0  0  0  0  0  0  0
   18.7474   27.5641   37.8521 C   0  0  1  0  0  0  0  0  0  0  0  0
   19.1743   26.2642   37.9967 C   0  0  1  0  0  0  0  0  0  0  0  0
   18.8297   25.5557   39.2539 C   0  0  0  0  0  0  0  0  0  0  0  0
   19.1917   24.3738   39.4456 O   0  0  0  0  0  0  0  0  0  0  0  0
   19.8417   25.9267   36.8799 N   0  0  0  0  0  0  0  0  0  0  0  0
   19.8228   27.0070   36.0654 C   0  0  0  0  0  0  0  0  0  0  0  0
   19.1505   27.9999   36.6695 N   0  0  1  0  0  0  0  0  0  0  0  0
  1  2  1  0  0  0  0
  3  1  1  6  0  0  0
  3  4  1  0  0  0  0
  3  5  1  0  0  0  0
  5  6  1  1  0  0  0
  5  7  1  0  0  0  0
  7  8  1  0  0  0  0
  8  4  1  6  0  0  0
  8 19  1  0  0  0  0
  9 15  1  0  0  0  0
  9 10  1  0  0  0  0
 10 11  1  6  0  0  0
 10 12  1  0  0  0  0
 13 12  1  6  0  0  0
 13 14  1  0  0  0  0
 13 19  1  0  0  0  0
 14 15  1  6  0  0  0
 14 17  1  0  0  0  0
 15 16  2  0  0  0  0
 17 18  1  0  0  0  0
 19 18  1  6  0  0  0
M  END
>  <CHROM.1>
57.88263802,-99.08164960,18.60488602,28.06029410,36.70537599,-1.52122625
-1.40848128,2.18751648

>  <Name>
ligand

>  <RI>
0

>  <Rbt.Current_Directory>
/home/itssahil/PROJECTS/Mol_Feturizer/New_Systems/rnas/3SKL

>  <Rbt.Executable>
rbdock ($Id: //depot/dev/client3/rdock/2013.1/src/exe/rbdock.cxx#4 $)

>  <Rbt.Library>
libRbt.so (2013.1, Build901 2013/11/27)

>  <Rbt.Parameter_File>
/export/apps/rDock/src/rDock_2013.1_src/data/scripts/dock_solv.prm

>  <Rbt.Receptor>
prm/blind_docking_100.prm

>  <SCORE>
-16.7867

>  <SCORE.INTER>
-16.3883

>  <SCORE.INTER.CONST>
1

>  <SCORE.INTER.POLAR>
0

>  <SCORE.INTER.ROT>
2

>  <SCORE.INTER.SOLV>
17.5488

>  <SCORE.INTER.VDW>
-21.7085

>  <SCORE.INTER.norm>
-0.862541

>  <SCORE.INTRA>
-0.398452

>  <SCORE.INTRA.DIHEDRAL>
-0.304582

>  <SCORE.INTRA.DIHEDRAL.0>
1.50031

>  <SCORE.INTRA.POLAR>
0

>  <SCORE.INTRA.POLAR.0>
0

>  <SCORE.INTRA.REPUL>
0

>  <SCORE.INTRA.REPUL.0>
0

>  <SCORE.INTRA.SOLV>
-0.536116

>  <SCORE.INTRA.SOLV.lig_0>
-37.9941

>  <SCORE.INTRA.VDW>
0.0218974

>  <SCORE.INTRA.VDW.0>
-0.964461

>  <SCORE.INTRA.norm>
-0.0209711

>  <SCORE.RESTR>
0

>  <SCORE.RESTR.CAVITY>
0

>  <SCORE.RESTR.norm>
0

>  <SCORE.SYSTEM>
0

>  <SCORE.SYSTEM.CONST>
0

>  <SCORE.SYSTEM.DIHEDRAL>
0

>  <SCORE.SYSTEM.SOLV>
0

>  <SCORE.SYSTEM.norm>
0

>  <SCORE.heavy>
19

>  <SCORE.norm>
-0.883512

>  <RMSD>
0.864

$$$$
ligand
 OpenBabel11021811483D
libRbt.so/2013.1/901 2013/11/27
 19 21  0  0  0  0  0  0  0  0999 V2000
   17.7993   28.9196   33.2464 C   0  0  0  0  0  0  0  0  0  0  0  0
   17.9882   29.3825   31.8978 O   0  0  0  0  0  0  0  0  0  0  0  0
   18.2986   29.9510   34.2637 C   0  0  1  0  0  0  0  0  0  0  0  0
   18.1003   29.4779   35.5957 O   0  0  0  0  0  0  0  0  0  0  0  0
   19.7823   30.2255   34.1083 C   0  0  1  0  0  0  0  0  0  0  0  0
   19.9890   31.6370   34.1774 O   0  0  0  0  0  0  0  0  0  0  0  0
   20.4684   29.5716   35.2863 C   0  0  0  0  0  0  0  0  0  0  0  0
   19.3519   29.2749   36.2708 C   0  0  2  0  0  0  0  0  0  0  0  0
   17.7338   26.1746   40.0823 N   0  0  0  0  0  0  0  0  0  0  0  0
   17.5332   27.4977   39.8705 C   0  0  2  0  0  0  0  0  0  0  0  0
   16.7928   28.2183   40.7390 N   0  0  0  0  0  0  0  0  0  0  0  0
   18.0575   28.1300   38.7994 N   0  0  0  0  0  0  0  0  0  0  0  0
   18.8067   27.4737   37.8905 C   0  0  1  0  0  0  0  0  0  0  0  0
   19.0564   26.1293   38.0434 C   0  0  1  0  0  0  0  0  0  0  0  0
   18.4732   25.4443   39.2233 C   0  0  0  0  0  0  0  0  0  0  0  0
   18.6668   24.2241   39.4188 O   0  0  0  0  0  0  0  0  0  0  0  0
   19.8169   25.7346   37.0079 N   0  0  0  0  0  0  0  0  0  0  0  0
   20.0289   26.8242   36.2341 C   0  0  0  0  0  0  0  0  0  0  0  0
   19.4059   27.8795   36.7827 N   0  0  1  0  0  0  0  0  0  0  0  0
  1  2  1  0  0  0  0
  3  1  1  6  0  0  0
  3  4  1  0  0  0  0
  3  5  1  0  0  0  0
  5  6  1  1  0  0  0
  5  7  1  0  0  0  0
  7  8  1  0  0  0  0
  8  4  1  6  0  0  0
  8 19  1  0  0  0  0
  9 15  1  0  0  0  0
  9 10  1  0  0  0  0
 10 11  1  6  0  0  0
 10 12  1  0  0  0  0
 13 12  1  6  0  0  0
 13 14  1  0  0  0  0
 13 19  1  0  0  0  0
 14 15  1  6  0  0  0
 14 17  1  0  0  0  0
 15 16  2  0  0  0  0
 17 18  1  0  0  0  0
 19 18  1  6  0  0  0
M  END
>  <CHROM.1>
179.83118177,-79.69653443,18.73714323,28.06014935,36.70522567,-1.27174413
-1.17951566,2.43596779

>  <Name>
ligand

>  <RI>
0

>  <Rbt.Current_Directory>
/home/itssahil/PROJECTS/Mol_Feturizer/New_Systems/rnas/3SKL

>  <Rbt.Executable>
rbdock ($Id: //depot/dev/client3/rdock/2013.1/src/exe/rbdock.cxx#4 $)

>  <Rbt.Library>
libRbt.so (2013.1, Build901 2013/11/27)

>  <Rbt.Parameter_File>
/export/apps/rDock/src/rDock_2013.1_src/data/scripts/dock_solv.prm

>  <Rbt.Receptor>
prm/pocket_docking_6.prm

>  <SCORE>
-16.9431

>  <SCORE.INTER>
-16.8817

>  <SCORE.INTER.CONST>
1

>  <SCORE.INTER.POLAR>
0

>  <SCORE.INTER.ROT>
2

>  <SCORE.INTER.SOLV>
17.9632

>  <SCORE.INTER.VDW>
-22.1755

>  <SCORE.INTER.norm>
-0.888509

>  <SCORE.INTRA>
-0.0614517

>  <SCORE.INTRA.DIHEDRAL>
-0.319812

>  <SCORE.INTRA.DIHEDRAL.0>
1.50031

>  <SCORE.INTRA.POLAR>
0

>  <SCORE.INTRA.POLAR.0>
0

>  <SCORE.INTRA.REPUL>
0

>  <SCORE.INTRA.REPUL.0>
0

>  <SCORE.INTRA.SOLV>
-0.440287

>  <SCORE.INTRA.SOLV.lig_0>
-37.9941

>  <SCORE.INTRA.VDW>
0.318598

>  <SCORE.INTRA.VDW.0>
-0.964461

>  <SCORE.INTRA.norm>
-0.0032343

>  <SCORE.RESTR>
0

>  <SCORE.RESTR.CAVITY>
0

>  <SCORE.RESTR.norm>
0

>  <SCORE.SYSTEM>
0

>  <SCORE.SYSTEM.CONST>
0

>  <SCORE.SYSTEM.DIHEDRAL>
0

>  <SCORE.SYSTEM.SOLV>
0

>  <SCORE.SYSTEM.norm>
0

>  <SCORE.heavy>
19

>  <SCORE.norm>
-0.891743

>  <RMSD>
0.864

$$$$
ligand
 OpenBabel11021811483D
libRbt.so/2013.1/901 2013/11/27
 19 21  0  0  0  0  0  0  0  0999 V2000
   17.8362   28.9481   33.2962 C   0  0  0  0  0  0  0  0  0  0  0  0
   18.0561   29.3981   31.9480 O   0  0  0  0  0  0  0  0  0  0  0  0
   18.3562   29.9678   34.3149 C   0  0  1  0  0  0  0  0  0  0  0  0
   18.1472   29.4975   35.6463 O   0  0  0  0  0  0  0  0  0  0  0  0
   19.8454   30.2116   34.1608 C   0  0  1  0  0  0  0  0  0  0  0  0
   20.0812   31.6184   34.2315 O   0  0  0  0  0  0  0  0  0  0  0  0
   20.5169   29.5423   35.3385 C   0  0  0  0  0  0  0  0  0  0  0  0
   19.3939   29.2679   36.3220 C   0  0  2  0  0  0  0  0  0  0  0  0
   17.6877   26.1923   40.1151 N   0  0  0  0  0  0  0  0  0  0  0  0
   17.5124   27.5189   39.9032 C   0  0  2  0  0  0  0  0  0  0  0  0
   16.7774   28.2515   40.7663 N   0  0  0  0  0  0  0  0  0  0  0  0
   18.0573   28.1431   38.8377 N   0  0  0  0  0  0  0  0  0  0  0  0
   18.8025   27.4746   37.9344 C   0  0  1  0  0  0  0  0  0  0  0  0
   19.0269   26.1259   38.0876 C   0  0  1  0  0  0  0  0  0  0  0  0
   18.4214   25.4499   39.2615 C   0  0  0  0  0  0  0  0  0  0  0  0
   18.5915   24.2262   39.4570 O   0  0  0  0  0  0  0  0  0  0  0  0
   19.7893   25.7190   37.0583 N   0  0  0  0  0  0  0  0  0  0  0  0
   20.0275   26.8055   36.2879 C   0  0  0  0  0  0  0  0  0  0  0  0
   19.4185   27.8711   36.8325 N   0  0  1  0  0  0  0  0  0  0  0  0
  1  2  1  0  0  0  0
  3  1  1  6  0  0  0
  3  4  1  0  0  0  0
  3  5  1  0  0  0  0
  5  6  1  1  0  0  0
  5  7  1  0  0  0  0
  7  8  1  0  0  0  0
  8  4  1  6  0  0  0
  8 19  1  0  0  0  0
  9 15  1  0  0  0  0
  9 10  1  0  0  0  0
 10 11  1  6  0  0  0
 10 12  1  0  0  0  0
 13 12  1  6  0  0  0
 13 14  1  0  0  0  0
 13 19  1  0  0  0  0
 14 15  1  6  0  0  0
 14 17  1  0  0  0  0
 15 16  2  0  0  0  0
 17 18  1  0  0  0  0
 19 18  1  6  0  0  0
M  END
>  <CHROM.1>
-179.18443056,-79.20330250,18.74885150,28.06343349,36.75069657,-1.22857951
-1.18050819,2.47710938

>  <Name>
ligand

>  <RI>
0

>  <Rbt.Current_Directory>
/home/itssahil/PROJECTS/Mol_Feturizer/New_Systems/rnas/3SKL

>  <Rbt.Executable>
rbdock ($Id: //depot/dev/client3/rdock/2013.1/src/exe/rbdock.cxx#4 $)

>  <Rbt.Library>
libRbt.so (2013.1, Build901 2013/11/27)

>  <Rbt.Parameter_File>
/export/apps/rDock/src/rDock_2013.1_src/data/scripts/dock_solv.prm

>  <Rbt.Receptor>
prm/pocket_docking_6.prm

>  <SCORE>
-17.0669

>  <SCORE.INTER>
-17.0216

>  <SCORE.INTER.CONST>
1

>  <SCORE.INTER.POLAR>
0

>  <SCORE.INTER.ROT>
2

>  <SCORE.INTER.SOLV>
17.9374

>  <SCORE.INTER.VDW>
-22.2602

>  <SCORE.INTER.norm>
-0.895874

>  <SCORE.INTRA>
-0.0452857

>  <SCORE.INTRA.DIHEDRAL>
-0.316885

>  <SCORE.INTRA.DIHEDRAL.0>
1.50031

>  <SCORE.INTRA.POLAR>
0

>  <SCORE.INTRA.POLAR.0>
0

>  <SCORE.INTRA.REPUL>
0

>  <SCORE.INTRA.REPUL.0>
0

>  <SCORE.INTRA.SOLV>
-0.435207

>  <SCORE.INTRA.SOLV.lig_0>
-37.9941

>  <SCORE.INTRA.VDW>
0.33076

>  <SCORE.INTRA.VDW.0>
-0.964461

>  <SCORE.INTRA.norm>
-0.00238346

>  <SCORE.RESTR>
0

>  <SCORE.RESTR.CAVITY>
0

>  <SCORE.RESTR.norm>
0

>  <SCORE.SYSTEM>
0

>  <SCORE.SYSTEM.CONST>
0

>  <SCORE.SYSTEM.DIHEDRAL>
0

>  <SCORE.SYSTEM.SOLV>
0

>  <SCORE.SYSTEM.norm>
0

>  <SCORE.heavy>
19

>  <SCORE.norm>
-0.898258

>  <RMSD>
0.866

$$$$
ligand
 OpenBabel11021811483D
libRbt.so/2013.1/901 2013/11/27
 19 21  0  0  0  0  0  0  0  0999 V2000
   17.8160   28.9419   33.2968 C   0  0  0  0  0  0  0  0  0  0  0  0
   18.0410   29.3835   31.9466 O   0  0  0  0  0  0  0  0  0  0  0  0
   18.3350   29.9665   34.3110 C   0  0  1  0  0  0  0  0  0  0  0  0
   18.1390   29.4957   35.6442 O   0  0  0  0  0  0  0  0  0  0  0  0
   19.8211   30.2220   34.1463 C   0  0  1  0  0  0  0  0  0  0  0  0
   20.0462   31.6307   34.2143 O   0  0  0  0  0  0  0  0  0  0  0  0
   20.5061   29.5590   35.3199 C   0  0  0  0  0  0  0  0  0  0  0  0
   19.3921   29.2765   36.3113 C   0  0  2  0  0  0  0  0  0  0  0  0
   17.7198   26.1861   40.1075 N   0  0  0  0  0  0  0  0  0  0  0  0
   17.5309   27.5107   39.8949 C   0  0  2  0  0  0  0  0  0  0  0  0
   16.7889   28.2363   40.7579 N   0  0  0  0  0  0  0  0  0  0  0  0
   18.0687   28.1398   38.8286 N   0  0  0  0  0  0  0  0  0  0  0  0
   18.8202   27.4784   37.9253 C   0  0  1  0  0  0  0  0  0  0  0  0
   19.0585   26.1321   38.0793 C   0  0  1  0  0  0  0  0  0  0  0  0
   18.4606   25.4507   39.2539 C   0  0  0  0  0  0  0  0  0  0  0  0
   18.6434   24.2290   39.4501 O   0  0  0  0  0  0  0  0  0  0  0  0
   19.8244   25.7323   37.0497 N   0  0  0  0  0  0  0  0  0  0  0  0
   20.0509   26.8208   36.2785 C   0  0  0  0  0  0  0  0  0  0  0  0
   19.4314   27.8804   36.8227 N   0  0  1  0  0  0  0  0  0  0  0  0
  1  2  1  0  0  0  0
  3  1  1  6  0  0  0
  3  4  1  0  0  0  0
  3  5  1  0  0  0  0
  5  6  1  1  0  0  0
  5  7  1  0  0  0  0
  7  8  1  0  0  0  0
  8  4  1  6  0  0  0
  8 19  1  0  0  0  0
  9 15  1  0  0  0  0
  9 10  1  0  0  0  0
 10 11  1  6  0  0  0
 10 12  1  0  0  0  0
 13 12  1  6  0  0  0
 13 14  1  0  0  0  0
 13 19  1  0  0  0  0
 14 15  1  6  0  0  0
 14 17  1  0  0  0  0
 15 16  2  0  0  0  0
 17 18  1  0  0  0  0
 19 18  1  6  0  0  0
M  END
>  <CHROM.1>
-178.32664950,-78.81630543,18.75595113,28.06551688,36.74229999,-1.25599989
-1.17187960,2.45107440

>  <Name>
ligand

>  <RI>
0

>  <Rbt.Current_Directory>
/home/itssahil/PROJECTS/Mol_Feturizer/New_Systems/rnas/3SKL

>  <Rbt.Executable>
rbdock ($Id: //depot/dev/client3/rdock/2013.1/src/exe/rbdock.cxx#4 $)

>  <Rbt.Library>
libRbt.so (2013.1, Build901 2013/11/27)

>  <Rbt.Parameter_File>
/export/apps/rDock/src/rDock_2013.1_src/data/scripts/dock_solv.prm

>  <Rbt.Receptor>
prm/pocket_docking_4.prm

>  <SCORE>
-17.0244

>  <SCORE.INTER>
-16.9959

>  <SCORE.INTER.CONST>
1

>  <SCORE.INTER.POLAR>
0

>  <SCORE.INTER.ROT>
2

>  <SCORE.INTER.SOLV>
17.9232

>  <SCORE.INTER.VDW>
-22.2383

>  <SCORE.INTER.norm>
-0.89452

>  <SCORE.INTRA>
-0.0285244

>  <SCORE.INTRA.DIHEDRAL>
-0.308645

>  <SCORE.INTRA.DIHEDRAL.0>
1.50031

>  <SCORE.INTRA.POLAR>
0

>  <SCORE.INTRA.POLAR.0>
0

>  <SCORE.INTRA.REPUL>
0

>  <SCORE.INTRA.REPUL.0>
0

>  <SCORE.INTRA.SOLV>
-0.430821

>  <SCORE.INTRA.SOLV.lig_0>
-37.9941

>  <SCORE.INTRA.VDW>
0.341208

>  <SCORE.INTRA.VDW.0>
-0.964461

>  <SCORE.INTRA.norm>
-0.00150128

>  <SCORE.RESTR>
0

>  <SCORE.RESTR.CAVITY>
0

>  <SCORE.RESTR.norm>
0

>  <SCORE.SYSTEM>
0

>  <SCORE.SYSTEM.CONST>
0

>  <SCORE.SYSTEM.DIHEDRAL>
0

>  <SCORE.SYSTEM.SOLV>
0

>  <SCORE.SYSTEM.norm>
0

>  <SCORE.heavy>
19

>  <SCORE.norm>
-0.896021

>  <RMSD>
0.868

$$$$
ligand
 OpenBabel11021811483D
libRbt.so/2013.1/901 2013/11/27
 19 21  0  0  0  0  0  0  0  0999 V2000
   18.0378   28.7441   32.9311 C   0  0  0  0  0  0  0  0  0  0  0  0
   16.7258   28.1575   32.8727 O   0  0  0  0  0  0  0  0  0  0  0  0
   18.1213   29.8125   34.0262 C   0  0  1  0  0  0  0  0  0  0  0  0
   17.7981   29.2524   35.2987 O   0  0  0  0  0  0  0  0  0  0  0  0
   19.5168   30.3958   34.1414 C   0  0  1  0  0  0  0  0  0  0  0  0
   19.4040   31.8152   34.2529 O   0  0  0  0  0  0  0  0  0  0  0  0
   20.1092   29.8493   35.4206 C   0  0  0  0  0  0  0  0  0  0  0  0
   18.9265   29.2855   36.1869 C   0  0  2  0  0  0  0  0  0  0  0  0
   18.1685   26.1223   40.2091 N   0  0  0  0  0  0  0  0  0  0  0  0
   17.8151   27.4166   40.0205 C   0  0  2  0  0  0  0  0  0  0  0  0
   17.1408   28.0818   40.9820 N   0  0  0  0  0  0  0  0  0  0  0  0
   18.1195   28.0742   38.8816 N   0  0  0  0  0  0  0  0  0  0  0  0
   18.7906   27.4730   37.8785 C   0  0  1  0  0  0  0  0  0  0  0  0
   19.1859   26.1609   38.0018 C   0  0  1  0  0  0  0  0  0  0  0  0
   18.8441   25.4475   39.2571 C   0  0  0  0  0  0  0  0  0  0  0  0
   19.1784   24.2546   39.4299 O   0  0  0  0  0  0  0  0  0  0  0  0
   19.8254   25.8188   36.8703 N   0  0  0  0  0  0  0  0  0  0  0  0
   19.8209   26.9082   36.0678 C   0  0  0  0  0  0  0  0  0  0  0  0
   19.1849   27.9114   36.6940 N   0  0  1  0  0  0  0  0  0  0  0  0
  1  2  1  0  0  0  0
  3  1  1  6  0  0  0
  3  4  1  0  0  0  0
  3  5  1  0  0  0  0
  5  6  1  1  0  0  0
  5  7  1  0  0  0  0
  7  8  1  0  0  0  0
  8  4  1  6  0  0  0
  8 19  1  0  0  0  0
  9 15  1  0  0  0  0
  9 10  1  0  0  0  0
 10 11  1  6  0  0  0
 10 12  1  0  0  0  0
 13 12  1  6  0  0  0
 13 14  1  0  0  0  0
 13 19  1  0  0  0  0
 14 15  1  6  0  0  0
 14 17  1  0  0  0  0
 15 16  2  0  0  0  0
 17 18  1  0  0  0  0
 19 18  1  6  0  0  0
M  END
>  <CHROM.1>
58.34552895,-99.50808003,18.64662561,27.98647671,36.73842037,-1.49802282
-1.44052159,2.22096737

>  <Name>
ligand

>  <RI>
0

>  <Rbt.Current_Directory>
/home/itssahil/PROJECTS/Mol_Feturizer/New_Systems/rnas/3SKL

>  <Rbt.Executable>
rbdock ($Id: //depot/dev/client3/rdock/2013.1/src/exe/rbdock.cxx#4 $)

>  <Rbt.Library>
libRbt.so (2013.1, Build901 2013/11/27)

>  <Rbt.Parameter_File>
/export/apps/rDock/src/rDock_2013.1_src/data/scripts/dock_solv.prm

>  <Rbt.Receptor>
prm/pocket_docking_8.prm

>  <SCORE>
-16.6479

>  <SCORE.INTER>
-16.2396

>  <SCORE.INTER.CONST>
1

>  <SCORE.INTER.POLAR>
0

>  <SCORE.INTER.ROT>
2

>  <SCORE.INTER.SOLV>
17.0762

>  <SCORE.INTER.VDW>
-21.4518

>  <SCORE.INTER.norm>
-0.854714

>  <SCORE.INTRA>
-0.408318

>  <SCORE.INTRA.DIHEDRAL>
-0.310475

>  <SCORE.INTRA.DIHEDRAL.0>
1.50031

>  <SCORE.INTRA.POLAR>
0

>  <SCORE.INTRA.POLAR.0>
0

>  <SCORE.INTRA.REPUL>
0

>  <SCORE.INTRA.REPUL.0>
0

>  <SCORE.INTRA.SOLV>
-0.538732

>  <SCORE.INTRA.SOLV.lig_0>
-37.9941

>  <SCORE.INTRA.VDW>
0.016285

>  <SCORE.INTRA.VDW.0>
-0.964461

>  <SCORE.INTRA.norm>
-0.0214904

>  <SCORE.RESTR>
0

>  <SCORE.RESTR.CAVITY>
0

>  <SCORE.RESTR.norm>
0

>  <SCORE.SYSTEM>
0

>  <SCORE.SYSTEM.CONST>
0

>  <SCORE.SYSTEM.DIHEDRAL>
0

>  <SCORE.SYSTEM.SOLV>
0

>  <SCORE.SYSTEM.norm>
0

>  <SCORE.heavy>
19

>  <SCORE.norm>
-0.876205

>  <RMSD>
0.868

$$$$
ligand
 OpenBabel11021811483D
libRbt.so/2013.1/901 2013/11/27
 19 21  0  0  0  0  0  0  0  0999 V2000
   17.7833   28.8372   33.1883 C   0  0  0  0  0  0  0  0  0  0  0  0
   17.9841   29.3251   31.8502 O   0  0  0  0  0  0  0  0  0  0  0  0
   18.2270   29.8701   34.2295 C   0  0  1  0  0  0  0  0  0  0  0  0
   18.0167   29.3721   35.5506 O   0  0  0  0  0  0  0  0  0  0  0  0
   19.7038   30.1951   34.1094 C   0  0  1  0  0  0  0  0  0  0  0  0
   19.8623   31.6115   34.2017 O   0  0  0  0  0  0  0  0  0  0  0  0
   20.3863   29.5475   35.2930 C   0  0  0  0  0  0  0  0  0  0  0  0
   19.2599   29.2008   36.2495 C   0  0  2  0  0  0  0  0  0  0  0  0
   17.8248   26.0427   40.0868 N   0  0  0  0  0  0  0  0  0  0  0  0
   17.6013   27.3655   39.8970 C   0  0  2  0  0  0  0  0  0  0  0  0
   16.8869   28.0684   40.8011 N   0  0  0  0  0  0  0  0  0  0  0  0
   18.0769   28.0149   38.8135 N   0  0  0  0  0  0  0  0  0  0  0  0
   18.7977   27.3767   37.8694 C   0  0  1  0  0  0  0  0  0  0  0  0
   19.0682   26.0338   37.9981 C   0  0  1  0  0  0  0  0  0  0  0  0
   18.5386   25.3299   39.1921 C   0  0  0  0  0  0  0  0  0  0  0  0
   18.7532   24.1101   39.3669 O   0  0  0  0  0  0  0  0  0  0  0  0
   19.7926   25.6587   36.9300 N   0  0  0  0  0  0  0  0  0  0  0  0
   19.9624   26.7586   36.1604 C   0  0  0  0  0  0  0  0  0  0  0  0
   19.3492   27.8009   36.7439 N   0  0  1  0  0  0  0  0  0  0  0  0
  1  2  1  0  0  0  0
  3  1  1  6  0  0  0
  3  4  1  0  0  0  0
  3  5  1  0  0  0  0
  5  6  1  1  0  0  0
  5  7  1  0  0  0  0
  7  8  1  0  0  0  0
  8  4  1  6  0  0  0
  8 19  1  0  0  0  0
  9 15  1  0  0  0  0
  9 10  1  0  0  0  0
 10 11  1  6  0  0  0
 10 12  1  0  0  0  0
 13 12  1  6  0  0  0
 13 14  1  0  0  0  0
 13 19  1  0  0  0  0
 14 15  1  6  0  0  0
 14 17  1  0  0  0  0
 15 16  2  0  0  0  0
 17 18  1  0  0  0  0
 19 18  1  6  0  0  0
M  END
>  <CHROM.1>
179.79691272,-83.32893134,18.72179672,27.97387304,36.68380349,-1.29157932
-1.22782760,2.42628650

>  <Name>
ligand

>  <RI>
0

>  <Rbt.Current_Directory>
/home/itssahil/PROJECTS/Mol_Feturizer/New_Systems/rnas/3SKL

>  <Rbt.Executable>
rbdock ($Id: //depot/dev/client3/rdock/2013.1/src/exe/rbdock.cxx#4 $)

>  <Rbt.Library>
libRbt.so (2013.1, Build901 2013/11/27)

>  <Rbt.Parameter_File>
/export/apps/rDock/src/rDock_2013.1_src/data/scripts/dock_solv.prm

>  <Rbt.Receptor>
prm/pocket_docking_3.prm

>  <SCORE>
-16.8829

>  <SCORE.INTER>
-16.7783

>  <SCORE.INTER.CONST>
1

>  <SCORE.INTER.POLAR>
0

>  <SCORE.INTER.ROT>
2

>  <SCORE.INTER.SOLV>
17.7311

>  <SCORE.INTER.VDW>
-22.0292

>  <SCORE.INTER.norm>
-0.883069

>  <SCORE.INTRA>
-0.10462

>  <SCORE.INTRA.DIHEDRAL>
-0.321722

>  <SCORE.INTRA.DIHEDRAL.0>
1.50031

>  <SCORE.INTRA.POLAR>
0

>  <SCORE.INTRA.POLAR.0>
0

>  <SCORE.INTRA.REPUL>
0

>  <SCORE.INTRA.REPUL.0>
0

>  <SCORE.INTRA.SOLV>
-0.442923

>  <SCORE.INTRA.SOLV.lig_0>
-37.9941

>  <SCORE.INTRA.VDW>
0.277703

>  <SCORE.INTRA.VDW.0>
-0.964461

>  <SCORE.INTRA.norm>
-0.0055063

>  <SCORE.RESTR>
0

>  <SCORE.RESTR.CAVITY>
0

>  <SCORE.RESTR.norm>
0

>  <SCORE.SYSTEM>
0

>  <SCORE.SYSTEM.CONST>
0

>  <SCORE.SYSTEM.DIHEDRAL>
0

>  <SCORE.SYSTEM.SOLV>
0

>  <SCORE.SYSTEM.norm>
0

>  <SCORE.heavy>
19

>  <SCORE.norm>
-0.888575

>  <RMSD>
0.870

$$$$
ligand
 OpenBabel11021811483D
libRbt.so/2013.1/901 2013/11/27
 19 21  0  0  0  0  0  0  0  0999 V2000
   17.8443   28.6518   33.0371 C   0  0  0  0  0  0  0  0  0  0  0  0
   16.5133   28.1089   33.0843 O   0  0  0  0  0  0  0  0  0  0  0  0
   18.0419   29.7339   34.1039 C   0  0  1  0  0  0  0  0  0  0  0  0
   17.7865   29.2068   35.4056 O   0  0  0  0  0  0  0  0  0  0  0  0
   19.4625   30.2657   34.1131 C   0  0  1  0  0  0  0  0  0  0  0  0
   19.4097   31.6899   34.2056 O   0  0  0  0  0  0  0  0  0  0  0  0
   20.1208   29.7178   35.3591 C   0  0  0  0  0  0  0  0  0  0  0  0
   18.9737   29.2115   36.2144 C   0  0  2  0  0  0  0  0  0  0  0  0
   18.1877   26.0808   40.2565 N   0  0  0  0  0  0  0  0  0  0  0  0
   17.8508   27.3785   40.0619 C   0  0  2  0  0  0  0  0  0  0  0  0
   17.1884   28.0578   41.0219 N   0  0  0  0  0  0  0  0  0  0  0  0
   18.1599   28.0258   38.9184 N   0  0  0  0  0  0  0  0  0  0  0  0
   18.8196   27.4103   37.9164 C   0  0  1  0  0  0  0  0  0  0  0  0
   19.1981   26.0938   38.0457 C   0  0  1  0  0  0  0  0  0  0  0  0
   18.8513   25.3919   39.3061 C   0  0  0  0  0  0  0  0  0  0  0  0
   19.1705   24.1957   39.4844 O   0  0  0  0  0  0  0  0  0  0  0  0
   19.8293   25.7371   36.9140 N   0  0  0  0  0  0  0  0  0  0  0  0
   19.8364   26.8221   36.1055 C   0  0  0  0  0  0  0  0  0  0  0  0
   19.2157   27.8369   36.7282 N   0  0  1  0  0  0  0  0  0  0  0  0
  1  2  1  0  0  0  0
  3  1  1  6  0  0  0
  3  4  1  0  0  0  0
  3  5  1  0  0  0  0
  5  6  1  1  0  0  0
  5  7  1  0  0  0  0
  7  8  1  0  0  0  0
  8  4  1  6  0  0  0
  8 19  1  0  0  0  0
  9 15  1  0  0  0  0
  9 10  1  0  0  0  0
 10 11  1  6  0  0  0
 10 12  1  0  0  0  0
 13 12  1  6  0  0  0
 13 14  1  0  0  0  0
 13 19  1  0  0  0  0
 14 15  1  6  0  0  0
 14 17  1  0  0  0  0
 15 16  2  0  0  0  0
 17 18  1  0  0  0  0
 19 18  1  6  0  0  0
M  END
>  <CHROM.1>
57.99768633,-95.47555157,18.63087014,27.91460883,36.78508738,-1.59813526
-1.43488552,2.12058889

>  <Name>
ligand

>  <RI>
0

>  <Rbt.Current_Directory>
/home/itssahil/PROJECTS/Mol_Feturizer/New_Systems/rnas/3SKL

>  <Rbt.Executable>
rbdock ($Id: //depot/dev/client3/rdock/2013.1/src/exe/rbdock.cxx#4 $)

>  <Rbt.Library>
libRbt.so (2013.1, Build901 2013/11/27)

>  <Rbt.Parameter_File>
/export/apps/rDock/src/rDock_2013.1_src/data/scripts/dock_solv.prm

>  <Rbt.Receptor>
prm/pocket_docking_6.prm

>  <SCORE>
-16.686

>  <SCORE.INTER>
-16.3328

>  <SCORE.INTER.CONST>
1

>  <SCORE.INTER.POLAR>
0

>  <SCORE.INTER.ROT>
2

>  <SCORE.INTER.SOLV>
16.9643

>  <SCORE.INTER.VDW>
-21.4767

>  <SCORE.INTER.norm>
-0.859624

>  <SCORE.INTRA>
-0.353191

>  <SCORE.INTRA.DIHEDRAL>
-0.308097

>  <SCORE.INTRA.DIHEDRAL.0>
1.50031

>  <SCORE.INTRA.POLAR>
0

>  <SCORE.INTRA.POLAR.0>
0

>  <SCORE.INTRA.REPUL>
0

>  <SCORE.INTRA.REPUL.0>
0

>  <SCORE.INTRA.SOLV>
-0.534363

>  <SCORE.INTRA.SOLV.lig_0>
-37.9941

>  <SCORE.INTRA.VDW>
0.0680391

>  <SCORE.INTRA.VDW.0>
-0.964461

>  <SCORE.INTRA.norm>
-0.018589

>  <SCORE.RESTR>
0

>  <SCORE.RESTR.CAVITY>
0

>  <SCORE.RESTR.norm>
0

>  <SCORE.SYSTEM>
0

>  <SCORE.SYSTEM.CONST>
0

>  <SCORE.SYSTEM.DIHEDRAL>
0

>  <SCORE.SYSTEM.SOLV>
0

>  <SCORE.SYSTEM.norm>
0

>  <SCORE.heavy>
19

>  <SCORE.norm>
-0.878213

>  <RMSD>
0.875

$$$$
ligand
 OpenBabel11021811483D
libRbt.so/2013.1/901 2013/11/27
 19 21  0  0  0  0  0  0  0  0999 V2000
   17.7282   28.9375   33.3575 C   0  0  0  0  0  0  0  0  0  0  0  0
   16.3721   28.5904   33.6878 O   0  0  0  0  0  0  0  0  0  0  0  0
   18.2963   29.9625   34.3448 C   0  0  1  0  0  0  0  0  0  0  0  0
   18.1291   29.5103   35.6883 O   0  0  0  0  0  0  0  0  0  0  0  0
   19.7820   30.1857   34.1352 C   0  0  1  0  0  0  0  0  0  0  0  0
   20.0373   31.5902   34.1806 O   0  0  0  0  0  0  0  0  0  0  0  0
   20.4867   29.5218   35.2965 C   0  0  0  0  0  0  0  0  0  0  0  0
   19.3960   29.2729   36.3223 C   0  0  2  0  0  0  0  0  0  0  0  0
   17.6095   26.2159   40.0932 N   0  0  0  0  0  0  0  0  0  0  0  0
   17.4247   27.5379   39.8617 C   0  0  2  0  0  0  0  0  0  0  0  0
   16.6539   28.2702   40.6933 N   0  0  0  0  0  0  0  0  0  0  0  0
   17.9950   28.1578   38.8070 N   0  0  0  0  0  0  0  0  0  0  0  0
   18.7764   27.4894   37.9348 C   0  0  1  0  0  0  0  0  0  0  0  0
   19.0125   26.1452   38.1096 C   0  0  1  0  0  0  0  0  0  0  0  0
   18.3787   25.4740   39.2711 C   0  0  0  0  0  0  0  0  0  0  0  0
   18.5577   24.2546   39.4852 O   0  0  0  0  0  0  0  0  0  0  0  0
   19.8118   25.7372   37.1090 N   0  0  0  0  0  0  0  0  0  0  0  0
   20.0607   26.8186   36.3347 C   0  0  0  0  0  0  0  0  0  0  0  0
   19.4218   27.8821   36.8484 N   0  0  1  0  0  0  0  0  0  0  0  0
  1  2  1  0  0  0  0
  3  1  1  6  0  0  0
  3  4  1  0  0  0  0
  3  5  1  0  0  0  0
  5  6  1  1  0  0  0
  5  7  1  0  0  0  0
  7  8  1  0  0  0  0
  8  4  1  6  0  0  0
  8 19  1  0  0  0  0
  9 15  1  0  0  0  0
  9 10  1  0  0  0  0
 10 11  1  6  0  0  0
 10 12  1  0  0  0  0
 13 12  1  6  0  0  0
 13 14  1  0  0  0  0
 13 19  1  0  0  0  0
 14 15  1  6  0  0  0
 14 17  1  0  0  0  0
 15 16  2  0  0  0  0
 17 18  1  0  0  0  0
 19 18  1  6  0  0  0
M  END
>  <CHROM.1>
52.54545535,-75.12039954,18.60725265,28.02055574,36.85826482,-1.39380930
-0.82784295,2.32747924

>  <Name>
ligand

>  <RI>
0

>  <Rbt.Current_Directory>
/home/itssahil/PROJECTS/Mol_Feturizer/New_Systems/rnas/3SKL

>  <Rbt.Executable>
rbdock ($Id: //depot/dev/client3/rdock/2013.1/src/exe/rbdock.cxx#4 $)

>  <Rbt.Library>
libRbt.so (2013.1, Build901 2013/11/27)

>  <Rbt.Parameter_File>
/export/apps/rDock/src/rDock_2013.1_src/data/scripts/dock_solv.prm

>  <Rbt.Receptor>
prm/pocket_docking_4.prm

>  <SCORE>
-16.7714

>  <SCORE.INTER>
-16.7686

>  <SCORE.INTER.CONST>
1

>  <SCORE.INTER.POLAR>
0

>  <SCORE.INTER.ROT>
2

>  <SCORE.INTER.SOLV>
18.0674

>  <SCORE.INTER.VDW>
-22.1348

>  <SCORE.INTER.norm>
-0.882556

>  <SCORE.INTRA>
-0.00283513

>  <SCORE.INTRA.DIHEDRAL>
-0.120116

>  <SCORE.INTRA.DIHEDRAL.0>
1.50031

>  <SCORE.INTRA.POLAR>
0

>  <SCORE.INTRA.POLAR.0>
0

>  <SCORE.INTRA.REPUL>
0

>  <SCORE.INTRA.REPUL.0>
0

>  <SCORE.INTRA.SOLV>
-0.492843

>  <SCORE.INTRA.SOLV.lig_0>
-37.9941

>  <SCORE.INTRA.VDW>
0.303644

>  <SCORE.INTRA.VDW.0>
-0.964461

>  <SCORE.INTRA.norm>
-0.000149218

>  <SCORE.RESTR>
0

>  <SCORE.RESTR.CAVITY>
0

>  <SCORE.RESTR.norm>
0

>  <SCORE.SYSTEM>
0

>  <SCORE.SYSTEM.CONST>
0

>  <SCORE.SYSTEM.DIHEDRAL>
0

>  <SCORE.SYSTEM.SOLV>
0

>  <SCORE.SYSTEM.norm>
0

>  <SCORE.heavy>
19

>  <SCORE.norm>
-0.882705

>  <RMSD>
0.886

$$$$
ligand
 OpenBabel11021811483D
libRbt.so/2013.1/901 2013/11/27
 19 21  0  0  0  0  0  0  0  0999 V2000
   18.0549   28.7514   32.8718 C   0  0  0  0  0  0  0  0  0  0  0  0
   16.7687   28.1123   32.7937 O   0  0  0  0  0  0  0  0  0  0  0  0
   18.0700   29.8414   33.9486 C   0  0  1  0  0  0  0  0  0  0  0  0
   17.7632   29.2869   35.2275 O   0  0  0  0  0  0  0  0  0  0  0  0
   19.4314   30.4997   34.0672 C   0  0  1  0  0  0  0  0  0  0  0  0
   19.2426   31.9128   34.1524 O   0  0  0  0  0  0  0  0  0  0  0  0
   20.0381   30.0075   35.3616 C   0  0  0  0  0  0  0  0  0  0  0  0
   18.8786   29.3950   36.1261 C   0  0  2  0  0  0  0  0  0  0  0  0
   18.2463   26.2662   40.1966 N   0  0  0  0  0  0  0  0  0  0  0  0
   17.8273   27.5365   39.9816 C   0  0  2  0  0  0  0  0  0  0  0  0
   17.1088   28.1817   40.9247 N   0  0  0  0  0  0  0  0  0  0  0  0
   18.1084   28.1895   38.8342 N   0  0  0  0  0  0  0  0  0  0  0  0
   18.8207   27.6074   37.8483 C   0  0  1  0  0  0  0  0  0  0  0  0
   19.2833   26.3203   37.9988 C   0  0  1  0  0  0  0  0  0  0  0  0
   18.9665   25.6117   39.2632 C   0  0  0  0  0  0  0  0  0  0  0  0
   19.3613   24.4413   39.4604 O   0  0  0  0  0  0  0  0  0  0  0  0
   19.9517   25.9930   36.8796 N   0  0  0  0  0  0  0  0  0  0  0  0
   19.8982   27.0666   36.0579 C   0  0  0  0  0  0  0  0  0  0  0  0
   19.2037   28.0455   36.6600 N   0  0  1  0  0  0  0  0  0  0  0  0
  1  2  1  0  0  0  0
  3  1  1  6  0  0  0
  3  4  1  0  0  0  0
  3  5  1  0  0  0  0
  5  6  1  1  0  0  0
  5  7  1  0  0  0  0
  7  8  1  0  0  0  0
  8  4  1  6  0  0  0
  8 19  1  0  0  0  0
  9 15  1  0  0  0  0
  9 10  1  0  0  0  0
 10 11  1  6  0  0  0
 10 12  1  0  0  0  0
 13 12  1  6  0  0  0
 13 14  1  0  0  0  0
 13 19  1  0  0  0  0
 14 15  1  6  0  0  0
 14 17  1  0  0  0  0
 15 16  2  0  0  0  0
 17 18  1  0  0  0  0
 19 18  1  6  0  0  0
M  END
>  <CHROM.1>
59.43130526,-99.53013421,18.66157204,28.09385900,36.69688217,-1.63257108
-1.39044020,2.07015893

>  <Name>
ligand

>  <RI>
0

>  <Rbt.Current_Directory>
/home/itssahil/PROJECTS/Mol_Feturizer/New_Systems/rnas/3SKL

>  <Rbt.Executable>
rbdock ($Id: //depot/dev/client3/rdock/2013.1/src/exe/rbdock.cxx#4 $)

>  <Rbt.Library>
libRbt.so (2013.1, Build901 2013/11/27)

>  <Rbt.Parameter_File>
/export/apps/rDock/src/rDock_2013.1_src/data/scripts/dock_solv.prm

>  <Rbt.Receptor>
prm/pocket_docking_3.prm

>  <SCORE>
-16.7403

>  <SCORE.INTER>
-16.3242

>  <SCORE.INTER.CONST>
1

>  <SCORE.INTER.POLAR>
0

>  <SCORE.INTER.ROT>
2

>  <SCORE.INTER.SOLV>
17.6133

>  <SCORE.INTER.VDW>
-21.6873

>  <SCORE.INTER.norm>
-0.85917

>  <SCORE.INTRA>
-0.416054

>  <SCORE.INTRA.DIHEDRAL>
-0.318854

>  <SCORE.INTRA.DIHEDRAL.0>
1.50031

>  <SCORE.INTRA.POLAR>
0

>  <SCORE.INTRA.POLAR.0>
0

>  <SCORE.INTRA.REPUL>
0

>  <SCORE.INTRA.REPUL.0>
0

>  <SCORE.INTRA.SOLV>
-0.544203

>  <SCORE.INTRA.SOLV.lig_0>
-37.9941

>  <SCORE.INTRA.VDW>
0.0154745

>  <SCORE.INTRA.VDW.0>
-0.964461

>  <SCORE.INTRA.norm>
-0.0218976

>  <SCORE.RESTR>
0

>  <SCORE.RESTR.CAVITY>
0

>  <SCORE.RESTR.norm>
0

>  <SCORE.SYSTEM>
0

>  <SCORE.SYSTEM.CONST>
0

>  <SCORE.SYSTEM.DIHEDRAL>
0

>  <SCORE.SYSTEM.SOLV>
0

>  <SCORE.SYSTEM.norm>
0

>  <SCORE.heavy>
19

>  <SCORE.norm>
-0.881067

>  <RMSD>
0.897

$$$$
ligand
 OpenBabel11021811483D
libRbt.so/2013.1/901 2013/11/27
 19 21  0  0  0  0  0  0  0  0999 V2000
   17.9409   28.9521   33.2076 C   0  0  0  0  0  0  0  0  0  0  0  0
   16.5926   28.5050   33.4331 O   0  0  0  0  0  0  0  0  0  0  0  0
   18.3867   29.9425   34.2885 C   0  0  1  0  0  0  0  0  0  0  0  0
   18.1283   29.4146   35.5893 O   0  0  0  0  0  0  0  0  0  0  0  0
   19.8747   30.2276   34.2146 C   0  0  1  0  0  0  0  0  0  0  0  0
   20.0708   31.6357   34.3508 O   0  0  0  0  0  0  0  0  0  0  0  0
   20.5078   29.5281   35.3960 C   0  0  0  0  0  0  0  0  0  0  0  0
   19.3478   29.1880   36.3139 C   0  0  2  0  0  0  0  0  0  0  0  0
   17.7097   25.9647   40.0132 N   0  0  0  0  0  0  0  0  0  0  0  0
   17.5272   27.2978   39.8546 C   0  0  2  0  0  0  0  0  0  0  0  0
   16.8035   27.9945   40.7560 N   0  0  0  0  0  0  0  0  0  0  0  0
   18.0537   27.9639   38.8053 N   0  0  0  0  0  0  0  0  0  0  0  0
   18.7869   27.3328   37.8659 C   0  0  1  0  0  0  0  0  0  0  0  0
   19.0177   25.9800   37.9644 C   0  0  1  0  0  0  0  0  0  0  0  0
   18.4324   25.2578   39.1209 C   0  0  0  0  0  0  0  0  0  0  0  0
   18.6092   24.0282   39.2671 O   0  0  0  0  0  0  0  0  0  0  0  0
   19.7653   25.6152   36.9087 N   0  0  0  0  0  0  0  0  0  0  0  0
   19.9882   26.7310   36.1766 C   0  0  0  0  0  0  0  0  0  0  0  0
   19.3845   27.7730   36.7705 N   0  0  1  0  0  0  0  0  0  0  0  0
  1  2  1  0  0  0  0
  3  1  1  6  0  0  0
  3  4  1  0  0  0  0
  3  5  1  0  0  0  0
  5  6  1  1  0  0  0
  5  7  1  0  0  0  0
  7  8  1  0  0  0  0
  8  4  1  6  0  0  0
  8 19  1  0  0  0  0
  9 15  1  0  0  0  0
  9 10  1  0  0  0  0
 10 11  1  6  0  0  0
 10 12  1  0  0  0  0
 13 12  1  6  0  0  0
 13 14  1  0  0  0  0
 13 19  1  0  0  0  0
 14 15  1  6  0  0  0
 14 17  1  0  0  0  0
 15 16  2  0  0  0  0
 17 18  1  0  0  0  0
 19 18  1  6  0  0  0
M  END
>  <CHROM.1>
50.49502482,-82.97945113,18.66181201,27.90550369,36.79141892,-1.24122675
-1.19497154,2.53212880

>  <Name>
ligand

>  <RI>
0

>  <Rbt.Current_Directory>
/home/itssahil/PROJECTS/Mol_Feturizer/New_Systems/rnas/3SKL

>  <Rbt.Executable>
rbdock ($Id: //depot/dev/client3/rdock/2013.1/src/exe/rbdock.cxx#4 $)

>  <Rbt.Library>
libRbt.so (2013.1, Build901 2013/11/27)

>  <Rbt.Parameter_File>
/export/apps/rDock/src/rDock_2013.1_src/data/scripts/dock_solv.prm

>  <Rbt.Receptor>
prm/pocket_docking_4.prm

>  <SCORE>
-16.7603

>  <SCORE.INTER>
-16.7191

>  <SCORE.INTER.CONST>
1

>  <SCORE.INTER.POLAR>
0

>  <SCORE.INTER.ROT>
2

>  <SCORE.INTER.SOLV>
17.4966

>  <SCORE.INTER.VDW>
-21.9116

>  <SCORE.INTER.norm>
-0.879951

>  <SCORE.INTRA>
-0.0412148

>  <SCORE.INTRA.DIHEDRAL>
-0.00443104

>  <SCORE.INTRA.DIHEDRAL.0>
1.50031

>  <SCORE.INTRA.POLAR>
0

>  <SCORE.INTRA.POLAR.0>
0

>  <SCORE.INTRA.REPUL>
0

>  <SCORE.INTRA.REPUL.0>
0

>  <SCORE.INTRA.SOLV>
-0.487304

>  <SCORE.INTRA.SOLV.lig_0>
-37.9941

>  <SCORE.INTRA.VDW>
0.204653

>  <SCORE.INTRA.VDW.0>
-0.964461

>  <SCORE.INTRA.norm>
-0.0021692

>  <SCORE.RESTR>
0

>  <SCORE.RESTR.CAVITY>
0

>  <SCORE.RESTR.norm>
0

>  <SCORE.SYSTEM>
0

>  <SCORE.SYSTEM.CONST>
0

>  <SCORE.SYSTEM.DIHEDRAL>
0

>  <SCORE.SYSTEM.SOLV>
0

>  <SCORE.SYSTEM.norm>
0

>  <SCORE.heavy>
19

>  <SCORE.norm>
-0.882121

>  <RMSD>
0.897

$$$$
ligand
 OpenBabel11021811483D
libRbt.so/2013.1/901 2013/11/27
 19 21  0  0  0  0  0  0  0  0999 V2000
   18.4423   28.8606   32.6819 C   0  0  0  0  0  0  0  0  0  0  0  0
   17.2086   28.1739   32.4079 O   0  0  0  0  0  0  0  0  0  0  0  0
   18.2597   29.9171   33.7766 C   0  0  1  0  0  0  0  0  0  0  0  0
   17.8330   29.3079   34.9949 O   0  0  0  0  0  0  0  0  0  0  0  0
   19.5542   30.6484   34.0777 C   0  0  1  0  0  0  0  0  0  0  0  0
   19.2712   32.0452   34.1709 O   0  0  0  0  0  0  0  0  0  0  0  0
   20.0267   30.1532   35.4259 C   0  0  0  0  0  0  0  0  0  0  0  0
   18.8217   29.4528   36.0269 C   0  0  2  0  0  0  0  0  0  0  0  0
   18.1845   26.3181   40.0921 N   0  0  0  0  0  0  0  0  0  0  0  0
   17.7492   27.5819   39.8705 C   0  0  2  0  0  0  0  0  0  0  0  0
   17.0092   28.2170   40.8037 N   0  0  0  0  0  0  0  0  0  0  0  0
   18.0351   28.2381   38.7262 N   0  0  0  0  0  0  0  0  0  0  0  0
   18.7686   27.6658   37.7500 C   0  0  1  0  0  0  0  0  0  0  0  0
   19.2484   26.3860   37.9076 C   0  0  1  0  0  0  0  0  0  0  0  0
   18.9262   25.6737   39.1687 C   0  0  0  0  0  0  0  0  0  0  0  0
   19.3360   24.5095   39.3721 O   0  0  0  0  0  0  0  0  0  0  0  0
   19.9359   26.0678   36.7974 N   0  0  0  0  0  0  0  0  0  0  0  0
   19.8768   27.1399   35.9740 C   0  0  0  0  0  0  0  0  0  0  0  0
   19.1601   28.1086   36.5662 N   0  0  1  0  0  0  0  0  0  0  0  0
  1  2  1  0  0  0  0
  3  1  1  6  0  0  0
  3  4  1  0  0  0  0
  3  5  1  0  0  0  0
  5  6  1  1  0  0  0
  5  7  1  0  0  0  0
  7  8  1  0  0  0  0
  8  4  1  6  0  0  0
  8 19  1  0  0  0  0
  9 15  1  0  0  0  0
  9 10  1  0  0  0  0
 10 11  1  6  0  0  0
 10 12  1  0  0  0  0
 13 12  1  6  0  0  0
 13 14  1  0  0  0  0
 13 19  1  0  0  0  0
 14 15  1  6  0  0  0
 14 17  1  0  0  0  0
 15 16  2  0  0  0  0
 17 18  1  0  0  0  0
 19 18  1  6  0  0  0
M  END
>  <CHROM.1>
60.83733270,-106.53199560,18.69972443,28.16764688,36.58564680,-1.45224577
-1.37617864,2.24323269

>  <Name>
ligand

>  <RI>
0

>  <Rbt.Current_Directory>
/home/itssahil/PROJECTS/Mol_Feturizer/New_Systems/rnas/3SKL

>  <Rbt.Executable>
rbdock ($Id: //depot/dev/client3/rdock/2013.1/src/exe/rbdock.cxx#4 $)

>  <Rbt.Library>
libRbt.so (2013.1, Build901 2013/11/27)

>  <Rbt.Parameter_File>
/export/apps/rDock/src/rDock_2013.1_src/data/scripts/dock_solv.prm

>  <Rbt.Receptor>
prm/blind_docking_80.prm

>  <SCORE>
-16.7242

>  <SCORE.INTER>
-16.2242

>  <SCORE.INTER.CONST>
1

>  <SCORE.INTER.POLAR>
0

>  <SCORE.INTER.ROT>
2

>  <SCORE.INTER.SOLV>
17.6185

>  <SCORE.INTER.VDW>
-21.6223

>  <SCORE.INTER.norm>
-0.853908

>  <SCORE.INTRA>
-0.499923

>  <SCORE.INTRA.DIHEDRAL>
-0.311184

>  <SCORE.INTRA.DIHEDRAL.0>
1.50031

>  <SCORE.INTRA.POLAR>
0

>  <SCORE.INTRA.POLAR.0>
0

>  <SCORE.INTRA.REPUL>
0

>  <SCORE.INTRA.REPUL.0>
0

>  <SCORE.INTRA.SOLV>
-0.555709

>  <SCORE.INTRA.SOLV.lig_0>
-37.9941

>  <SCORE.INTRA.VDW>
-0.066476

>  <SCORE.INTRA.VDW.0>
-0.964461

>  <SCORE.INTRA.norm>
-0.0263117

>  <SCORE.RESTR>
0

>  <SCORE.RESTR.CAVITY>
0

>  <SCORE.RESTR.norm>
0

>  <SCORE.SYSTEM>
0

>  <SCORE.SYSTEM.CONST>
0

>  <SCORE.SYSTEM.DIHEDRAL>
0

>  <SCORE.SYSTEM.SOLV>
0

>  <SCORE.SYSTEM.norm>
0

>  <SCORE.heavy>
19

>  <SCORE.norm>
-0.880219

>  <RMSD>
0.900

$$$$
ligand
 OpenBabel11021811483D
libRbt.so/2013.1/901 2013/11/27
 19 21  0  0  0  0  0  0  0  0999 V2000
   17.6718   28.8677   33.3042 C   0  0  0  0  0  0  0  0  0  0  0  0
   16.3314   28.4914   33.6653 O   0  0  0  0  0  0  0  0  0  0  0  0
   18.2592   29.8652   34.3081 C   0  0  1  0  0  0  0  0  0  0  0  0
   18.1135   29.3785   35.6420 O   0  0  0  0  0  0  0  0  0  0  0  0
   19.7417   30.0907   34.0792 C   0  0  1  0  0  0  0  0  0  0  0  0
   20.0013   31.4930   34.1568 O   0  0  0  0  0  0  0  0  0  0  0  0
   20.4643   29.3952   35.2106 C   0  0  0  0  0  0  0  0  0  0  0  0
   19.3904   29.1219   36.2479 C   0  0  2  0  0  0  0  0  0  0  0  0
   17.7378   25.9909   40.0193 N   0  0  0  0  0  0  0  0  0  0  0  0
   17.5605   27.3207   39.8299 C   0  0  2  0  0  0  0  0  0  0  0  0
   16.8388   28.0407   40.7145 N   0  0  0  0  0  0  0  0  0  0  0  0
   18.0901   27.9605   38.7659 N   0  0  0  0  0  0  0  0  0  0  0  0
   18.8215   27.3052   37.8419 C   0  0  1  0  0  0  0  0  0  0  0  0
   19.0471   25.9541   37.9716 C   0  0  1  0  0  0  0  0  0  0  0  0
   18.4584   25.2610   39.1440 C   0  0  0  0  0  0  0  0  0  0  0  0
   18.6305   24.0344   39.3187 O   0  0  0  0  0  0  0  0  0  0  0  0
   19.7940   25.5622   36.9252 N   0  0  0  0  0  0  0  0  0  0  0  0
   20.0216   26.6601   36.1678 C   0  0  0  0  0  0  0  0  0  0  0  0
   19.4216   27.7177   36.7371 N   0  0  1  0  0  0  0  0  0  0  0  0
  1  2  1  0  0  0  0
  3  1  1  6  0  0  0
  3  4  1  0  0  0  0
  3  5  1  0  0  0  0
  5  6  1  1  0  0  0
  5  7  1  0  0  0  0
  7  8  1  0  0  0  0
  8  4  1  6  0  0  0
  8 19  1  0  0  0  0
  9 15  1  0  0  0  0
  9 10  1  0  0  0  0
 10 11  1  6  0  0  0
 10 12  1  0  0  0  0
 13 12  1  6  0  0  0
 13 14  1  0  0  0  0
 13 19  1  0  0  0  0
 14 15  1  6  0  0  0
 14 17  1  0  0  0  0
 15 16  2  0  0  0  0
 17 18  1  0  0  0  0
 19 18  1  6  0  0  0
M  END
>  <CHROM.1>
51.22052328,-76.90017225,18.63040368,27.86183979,36.78014179,-1.40249570
-0.94935392,2.35115020

>  <Name>
ligand

>  <RI>
0

>  <Rbt.Current_Directory>
/home/itssahil/PROJECTS/Mol_Feturizer/New_Systems/rnas/3SKL

>  <Rbt.Executable>
rbdock ($Id: //depot/dev/client3/rdock/2013.1/src/exe/rbdock.cxx#4 $)

>  <Rbt.Library>
libRbt.so (2013.1, Build901 2013/11/27)

>  <Rbt.Parameter_File>
/export/apps/rDock/src/rDock_2013.1_src/data/scripts/dock_solv.prm

>  <Rbt.Receptor>
prm/pocket_docking_7.prm

>  <SCORE>
-16.8226

>  <SCORE.INTER>
-16.8266

>  <SCORE.INTER.CONST>
1

>  <SCORE.INTER.POLAR>
0

>  <SCORE.INTER.ROT>
2

>  <SCORE.INTER.SOLV>
17.4823

>  <SCORE.INTER.VDW>
-21.9785

>  <SCORE.INTER.norm>
-0.885612

>  <SCORE.INTRA>
0.00399466

>  <SCORE.INTRA.DIHEDRAL>
-0.0465587

>  <SCORE.INTRA.DIHEDRAL.0>
1.50031

>  <SCORE.INTRA.POLAR>
0

>  <SCORE.INTRA.POLAR.0>
0

>  <SCORE.INTRA.REPUL>
0

>  <SCORE.INTRA.REPUL.0>
0

>  <SCORE.INTRA.SOLV>
-0.487159

>  <SCORE.INTRA.SOLV.lig_0>
-37.9941

>  <SCORE.INTRA.VDW>
0.270853

>  <SCORE.INTRA.VDW.0>
-0.964461

>  <SCORE.INTRA.norm>
0.000210245

>  <SCORE.RESTR>
0

>  <SCORE.RESTR.CAVITY>
0

>  <SCORE.RESTR.norm>
0

>  <SCORE.SYSTEM>
0

>  <SCORE.SYSTEM.CONST>
0

>  <SCORE.SYSTEM.DIHEDRAL>
0

>  <SCORE.SYSTEM.SOLV>
0

>  <SCORE.SYSTEM.norm>
0

>  <SCORE.heavy>
19

>  <SCORE.norm>
-0.885402

>  <RMSD>
0.900

$$$$
ligand
 OpenBabel11021811483D
libRbt.so/2013.1/901 2013/11/27
 19 21  0  0  0  0  0  0  0  0999 V2000
   17.9986   28.7559   32.9337 C   0  0  0  0  0  0  0  0  0  0  0  0
   16.6939   28.1535   32.8753 O   0  0  0  0  0  0  0  0  0  0  0  0
   18.0583   29.8511   34.0037 C   0  0  1  0  0  0  0  0  0  0  0  0
   17.7750   29.3082   35.2930 O   0  0  0  0  0  0  0  0  0  0  0  0
   19.4326   30.4880   34.0844 C   0  0  1  0  0  0  0  0  0  0  0  0
   19.2687   31.9044   34.1665 O   0  0  0  0  0  0  0  0  0  0  0  0
   20.0638   29.9927   35.3659 C   0  0  0  0  0  0  0  0  0  0  0  0
   18.9143   29.4029   36.1627 C   0  0  2  0  0  0  0  0  0  0  0  0
   18.2165   26.2553   40.2078 N   0  0  0  0  0  0  0  0  0  0  0  0
   17.8004   27.5264   39.9918 C   0  0  2  0  0  0  0  0  0  0  0  0
   17.0662   28.1670   40.9258 N   0  0  0  0  0  0  0  0  0  0  0  0
   18.1001   28.1847   38.8522 N   0  0  0  0  0  0  0  0  0  0  0  0
   18.8288   27.6074   37.8755 C   0  0  1  0  0  0  0  0  0  0  0  0
   19.2894   26.3198   38.0277 C   0  0  1  0  0  0  0  0  0  0  0  0
   18.9522   25.6053   39.2835 C   0  0  0  0  0  0  0  0  0  0  0  0
   19.3442   24.4342   39.4818 O   0  0  0  0  0  0  0  0  0  0  0  0
   19.9763   25.9979   36.9182 N   0  0  0  0  0  0  0  0  0  0  0  0
   19.9359   27.0752   36.1006 C   0  0  0  0  0  0  0  0  0  0  0  0
   19.2312   28.0510   36.6957 N   0  0  1  0  0  0  0  0  0  0  0  0
  1  2  1  0  0  0  0
  3  1  1  6  0  0  0
  3  4  1  0  0  0  0
  3  5  1  0  0  0  0
  5  6  1  1  0  0  0
  5  7  1  0  0  0  0
  7  8  1  0  0  0  0
  8  4  1  6  0  0  0
  8 19  1  0  0  0  0
  9 15  1  0  0  0  0
  9 10  1  0  0  0  0
 10 11  1  6  0  0  0
 10 12  1  0  0  0  0
 13 12  1  6  0  0  0
 13 14  1  0  0  0  0
 13 19  1  0  0  0  0
 14 15  1  6  0  0  0
 14 17  1  0  0  0  0
 15 16  2  0  0  0  0
 17 18  1  0  0  0  0
 19 18  1  6  0  0  0
M  END
>  <CHROM.1>
60.45652147,-96.90209531,18.65684490,28.09501913,36.72860732,-1.61933452
-1.37032152,2.08960083

>  <Name>
ligand

>  <RI>
0

>  <Rbt.Current_Directory>
/home/itssahil/PROJECTS/Mol_Feturizer/New_Systems/rnas/3SKL

>  <Rbt.Executable>
rbdock ($Id: //depot/dev/client3/rdock/2013.1/src/exe/rbdock.cxx#4 $)

>  <Rbt.Library>
libRbt.so (2013.1, Build901 2013/11/27)

>  <Rbt.Parameter_File>
/export/apps/rDock/src/rDock_2013.1_src/data/scripts/dock_solv.prm

>  <Rbt.Receptor>
prm/pocket_docking_7.prm

>  <SCORE>
-16.7292

>  <SCORE.INTER>
-16.3435

>  <SCORE.INTER.CONST>
1

>  <SCORE.INTER.POLAR>
0

>  <SCORE.INTER.ROT>
2

>  <SCORE.INTER.SOLV>
17.7249

>  <SCORE.INTER.VDW>
-21.7373

>  <SCORE.INTER.norm>
-0.860186

>  <SCORE.INTRA>
-0.385661

>  <SCORE.INTRA.DIHEDRAL>
-0.320452

>  <SCORE.INTRA.DIHEDRAL.0>
1.50031

>  <SCORE.INTRA.POLAR>
0

>  <SCORE.INTRA.POLAR.0>
0

>  <SCORE.INTRA.REPUL>
0

>  <SCORE.INTRA.REPUL.0>
0

>  <SCORE.INTRA.SOLV>
-0.547609

>  <SCORE.INTRA.SOLV.lig_0>
-37.9941

>  <SCORE.INTRA.VDW>
0.0483695

>  <SCORE.INTRA.VDW.0>
-0.964461

>  <SCORE.INTRA.norm>
-0.020298

>  <SCORE.RESTR>
0

>  <SCORE.RESTR.CAVITY>
0

>  <SCORE.RESTR.norm>
0

>  <SCORE.SYSTEM>
0

>  <SCORE.SYSTEM.CONST>
0

>  <SCORE.SYSTEM.DIHEDRAL>
0

>  <SCORE.SYSTEM.SOLV>
0

>  <SCORE.SYSTEM.norm>
0

>  <SCORE.heavy>
19

>  <SCORE.norm>
-0.880484

>  <RMSD>
0.905

$$$$
ligand
 OpenBabel11021811483D
libRbt.so/2013.1/901 2013/11/27
 19 21  0  0  0  0  0  0  0  0999 V2000
   18.4325   28.8668   32.6823 C   0  0  0  0  0  0  0  0  0  0  0  0
   17.2017   28.1766   32.4041 O   0  0  0  0  0  0  0  0  0  0  0  0
   18.2449   29.9175   33.7818 C   0  0  1  0  0  0  0  0  0  0  0  0
   17.8189   29.3011   34.9967 O   0  0  0  0  0  0  0  0  0  0  0  0
   19.5363   30.6519   34.0878 C   0  0  1  0  0  0  0  0  0  0  0  0
   19.2483   32.0473   34.1871 O   0  0  0  0  0  0  0  0  0  0  0  0
   20.0090   30.1521   35.4342 C   0  0  0  0  0  0  0  0  0  0  0  0
   18.8058   29.4447   36.0305 C   0  0  2  0  0  0  0  0  0  0  0  0
   18.1708   26.2870   40.0782 N   0  0  0  0  0  0  0  0  0  0  0  0
   17.7309   27.5500   39.8618 C   0  0  2  0  0  0  0  0  0  0  0  0
   16.9858   28.1773   40.7962 N   0  0  0  0  0  0  0  0  0  0  0  0
   18.0171   28.2131   38.7215 N   0  0  0  0  0  0  0  0  0  0  0  0
   18.7555   27.6489   37.7445 C   0  0  1  0  0  0  0  0  0  0  0  0
   19.2402   26.3702   37.8969 C   0  0  1  0  0  0  0  0  0  0  0  0
   18.9176   25.6503   39.1536 C   0  0  0  0  0  0  0  0  0  0  0  0
   19.3317   24.4868   39.3522 O   0  0  0  0  0  0  0  0  0  0  0  0
   19.9319   26.0605   36.7870 N   0  0  0  0  0  0  0  0  0  0  0  0
   19.8706   27.1364   35.9688 C   0  0  0  0  0  0  0  0  0  0  0  0
   19.1484   28.0992   36.5640 N   0  0  1  0  0  0  0  0  0  0  0  0
  1  2  1  0  0  0  0
  3  1  1  6  0  0  0
  3  4  1  0  0  0  0
  3  5  1  0  0  0  0
  5  6  1  1  0  0  0
  5  7  1  0  0  0  0
  7  8  1  0  0  0  0
  8  4  1  6  0  0  0
  8 19  1  0  0  0  0
  9 15  1  0  0  0  0
  9 10  1  0  0  0  0
 10 11  1  6  0  0  0
 10 12  1  0  0  0  0
 13 12  1  6  0  0  0
 13 14  1  0  0  0  0
 13 19  1  0  0  0  0
 14 15  1  6  0  0  0
 14 17  1  0  0  0  0
 15 16  2  0  0  0  0
 17 18  1  0  0  0  0
 19 18  1  6  0  0  0
M  END
>  <CHROM.1>
60.81243359,-106.44000529,18.68658626,28.15595012,36.58255445,-1.45682950
-1.37140377,2.24378535

>  <Name>
ligand

>  <RI>
0

>  <Rbt.Current_Directory>
/home/itssahil/PROJECTS/Mol_Feturizer/New_Systems/rnas/3SKL

>  <Rbt.Executable>
rbdock ($Id: //depot/dev/client3/rdock/2013.1/src/exe/rbdock.cxx#4 $)

>  <Rbt.Library>
libRbt.so (2013.1, Build901 2013/11/27)

>  <Rbt.Parameter_File>
/export/apps/rDock/src/rDock_2013.1_src/data/scripts/dock_solv.prm

>  <Rbt.Receptor>
prm/pocket_docking_8.prm

>  <SCORE>
-16.6643

>  <SCORE.INTER>
-16.1654

>  <SCORE.INTER.CONST>
1

>  <SCORE.INTER.POLAR>
0

>  <SCORE.INTER.ROT>
2

>  <SCORE.INTER.SOLV>
17.6713

>  <SCORE.INTER.VDW>
-21.6007

>  <SCORE.INTER.norm>
-0.850809

>  <SCORE.INTRA>
-0.498964

>  <SCORE.INTRA.DIHEDRAL>
-0.311433

>  <SCORE.INTRA.DIHEDRAL.0>
1.50031

>  <SCORE.INTRA.POLAR>
0

>  <SCORE.INTRA.POLAR.0>
0

>  <SCORE.INTRA.REPUL>
0

>  <SCORE.INTRA.REPUL.0>
0

>  <SCORE.INTRA.SOLV>
-0.555527

>  <SCORE.INTRA.SOLV.lig_0>
-37.9941

>  <SCORE.INTRA.VDW>
-0.065484

>  <SCORE.INTRA.VDW.0>
-0.964461

>  <SCORE.INTRA.norm>
-0.0262613

>  <SCORE.RESTR>
0

>  <SCORE.RESTR.CAVITY>
0

>  <SCORE.RESTR.norm>
0

>  <SCORE.SYSTEM>
0

>  <SCORE.SYSTEM.CONST>
0

>  <SCORE.SYSTEM.DIHEDRAL>
0

>  <SCORE.SYSTEM.SOLV>
0

>  <SCORE.SYSTEM.norm>
0

>  <SCORE.heavy>
19

>  <SCORE.norm>
-0.87707

>  <RMSD>
0.905

$$$$
ligand
 OpenBabel11021811483D
libRbt.so/2013.1/901 2013/11/27
 19 21  0  0  0  0  0  0  0  0999 V2000
   18.5237   28.8851   32.6341 C   0  0  0  0  0  0  0  0  0  0  0  0
   17.3414   28.1021   32.3940 O   0  0  0  0  0  0  0  0  0  0  0  0
   18.2918   29.9173   33.7426 C   0  0  1  0  0  0  0  0  0  0  0  0
   17.8463   29.2772   34.9381 O   0  0  0  0  0  0  0  0  0  0  0  0
   19.5630   30.6682   34.0905 C   0  0  1  0  0  0  0  0  0  0  0  0
   19.2496   32.0572   34.2015 O   0  0  0  0  0  0  0  0  0  0  0  0
   20.0106   30.1574   35.4413 C   0  0  0  0  0  0  0  0  0  0  0  0
   18.8049   29.4223   35.9980 C   0  0  2  0  0  0  0  0  0  0  0  0
   18.2156   26.2421   40.0349 N   0  0  0  0  0  0  0  0  0  0  0  0
   17.7698   27.5047   39.8289 C   0  0  2  0  0  0  0  0  0  0  0  0
   17.0309   28.1249   40.7729 N   0  0  0  0  0  0  0  0  0  0  0  0
   18.0439   28.1746   38.6895 N   0  0  0  0  0  0  0  0  0  0  0  0
   18.7754   27.6177   37.7032 C   0  0  1  0  0  0  0  0  0  0  0  0
   19.2656   26.3399   37.8448 C   0  0  1  0  0  0  0  0  0  0  0  0
   18.9563   25.6125   39.1005 C   0  0  0  0  0  0  0  0  0  0  0  0
   19.3758   24.4494   39.2895 O   0  0  0  0  0  0  0  0  0  0  0  0
   19.9485   26.0380   36.7272 N   0  0  0  0  0  0  0  0  0  0  0  0
   19.8765   27.1179   35.9151 C   0  0  0  0  0  0  0  0  0  0  0  0
   19.1565   28.0753   36.5215 N   0  0  1  0  0  0  0  0  0  0  0  0
  1  2  1  0  0  0  0
  3  1  1  6  0  0  0
  3  4  1  0  0  0  0
  3  5  1  0  0  0  0
  5  6  1  1  0  0  0
  5  7  1  0  0  0  0
  7  8  1  0  0  0  0
  8  4  1  6  0  0  0
  8 19  1  0  0  0  0
  9 15  1  0  0  0  0
  9 10  1  0  0  0  0
 10 11  1  6  0  0  0
 10 12  1  0  0  0  0
 13 12  1  6  0  0  0
 13 14  1  0  0  0  0
 13 19  1  0  0  0  0
 14 15  1  6  0  0  0
 14 17  1  0  0  0  0
 15 16  2  0  0  0  0
 17 18  1  0  0  0  0
 19 18  1  6  0  0  0
M  END
>  <CHROM.1>
55.95717198,-108.55859250,18.72171237,28.13191551,36.54825214,-1.44330892
-1.37112012,2.26341070

>  <Name>
ligand

>  <RI>
0

>  <Rbt.Current_Directory>
/home/itssahil/PROJECTS/Mol_Feturizer/New_Systems/rnas/3SKL

>  <Rbt.Executable>
rbdock ($Id: //depot/dev/client3/rdock/2013.1/src/exe/rbdock.cxx#4 $)

>  <Rbt.Library>
libRbt.so (2013.1, Build901 2013/11/27)

>  <Rbt.Parameter_File>
/export/apps/rDock/src/rDock_2013.1_src/data/scripts/dock_solv.prm

>  <Rbt.Receptor>
prm/pocket_docking_6.prm

>  <SCORE>
-16.5565

>  <SCORE.INTER>
-16.0778

>  <SCORE.INTER.CONST>
1

>  <SCORE.INTER.POLAR>
0

>  <SCORE.INTER.ROT>
2

>  <SCORE.INTER.SOLV>
17.4721

>  <SCORE.INTER.VDW>
-21.4759

>  <SCORE.INTER.norm>
-0.8462

>  <SCORE.INTRA>
-0.478683

>  <SCORE.INTRA.DIHEDRAL>
-0.254176

>  <SCORE.INTRA.DIHEDRAL.0>
1.50031

>  <SCORE.INTRA.POLAR>
0

>  <SCORE.INTRA.POLAR.0>
0

>  <SCORE.INTRA.REPUL>
0

>  <SCORE.INTRA.REPUL.0>
0

>  <SCORE.INTRA.SOLV>
-0.532431

>  <SCORE.INTRA.SOLV.lig_0>
-37.9941

>  <SCORE.INTRA.VDW>
-0.0853797

>  <SCORE.INTRA.VDW.0>
-0.964461

>  <SCORE.INTRA.norm>
-0.0251939

>  <SCORE.RESTR>
0

>  <SCORE.RESTR.CAVITY>
0

>  <SCORE.RESTR.norm>
0

>  <SCORE.SYSTEM>
0

>  <SCORE.SYSTEM.CONST>
0

>  <SCORE.SYSTEM.DIHEDRAL>
0

>  <SCORE.SYSTEM.SOLV>
0

>  <SCORE.SYSTEM.norm>
0

>  <SCORE.heavy>
19

>  <SCORE.norm>
-0.871394

>  <RMSD>
0.913

$$$$
ligand
 OpenBabel11021811483D
libRbt.so/2013.1/901 2013/11/27
 19 21  0  0  0  0  0  0  0  0999 V2000
   16.9502   28.0835   33.7948 C   0  0  0  0  0  0  0  0  0  0  0  0
   16.7433   28.1058   32.3716 O   0  0  0  0  0  0  0  0  0  0  0  0
   18.0899   29.0216   34.2060 C   0  0  1  0  0  0  0  0  0  0  0  0
   18.2819   28.9872   35.6200 O   0  0  0  0  0  0  0  0  0  0  0  0
   19.4081   28.6214   33.5710 C   0  0  1  0  0  0  0  0  0  0  0  0
   20.0461   29.7998   33.0768 O   0  0  0  0  0  0  0  0  0  0  0  0
   20.2570   28.0303   34.6737 C   0  0  0  0  0  0  0  0  0  0  0  0
   19.5694   28.4488   35.9604 C   0  0  2  0  0  0  0  0  0  0  0  0
   17.3442   27.0433   40.4136 N   0  0  0  0  0  0  0  0  0  0  0  0
   17.3603   28.2344   39.7681 C   0  0  2  0  0  0  0  0  0  0  0  0
   16.7087   29.2958   40.2882 N   0  0  0  0  0  0  0  0  0  0  0  0
   18.0172   28.3971   38.6002 N   0  0  0  0  0  0  0  0  0  0  0  0
   18.6890   27.3810   38.0219 C   0  0  1  0  0  0  0  0  0  0  0  0
   18.7202   26.1438   38.6231 C   0  0  1  0  0  0  0  0  0  0  0  0
   17.9930   25.9761   39.9055 C   0  0  0  0  0  0  0  0  0  0  0  0
   17.9865   24.8765   40.5017 O   0  0  0  0  0  0  0  0  0  0  0  0
   19.4488   25.3282   37.8419 N   0  0  0  0  0  0  0  0  0  0  0  0
   19.8573   26.0586   36.7787 C   0  0  0  0  0  0  0  0  0  0  0  0
   19.3858   27.3100   36.8993 N   0  0  1  0  0  0  0  0  0  0  0  0
  1  2  1  0  0  0  0
  3  1  1  1  0  0  0
  3  4  1  0  0  0  0
  3  5  1  0  0  0  0
  5  6  1  1  0  0  0
  5  7  1  0  0  0  0
  7  8  1  0  0  0  0
  8  4  1  6  0  0  0
  8 19  1  0  0  0  0
  9 15  1  0  0  0  0
  9 10  1  0  0  0  0
 10 11  1  6  0  0  0
 10 12  1  0  0  0  0
 13 12  1  6  0  0  0
 13 14  1  0  0  0  0
 13 19  1  0  0  0  0
 14 15  1  6  0  0  0
 14 17  1  0  0  0  0
 15 16  2  0  0  0  0
 17 18  1  0  0  0  0
 19 18  1  6  0  0  0
M  END
>  <CHROM.1>
-179.99161569,-52.83014588,18.45149735,27.67006231,36.80437237,1.40573663
0.84047012,-1.13227100

>  <Name>
ligand

>  <RI>
0

>  <Rbt.Current_Directory>
/home/itssahil/PROJECTS/Mol_Feturizer/New_Systems/rnas/3SKL

>  <Rbt.Executable>
rbdock ($Id: //depot/dev/client3/rdock/2013.1/src/exe/rbdock.cxx#4 $)

>  <Rbt.Library>
libRbt.so (2013.1, Build901 2013/11/27)

>  <Rbt.Parameter_File>
/export/apps/rDock/src/rDock_2013.1_src/data/scripts/dock_solv.prm

>  <Rbt.Receptor>
prm/pocket_docking_2.prm

>  <SCORE>
-15.8726

>  <SCORE.INTER>
-15.9585

>  <SCORE.INTER.CONST>
1

>  <SCORE.INTER.POLAR>
0

>  <SCORE.INTER.ROT>
2

>  <SCORE.INTER.SOLV>
19.4187

>  <SCORE.INTER.VDW>
-22.0452

>  <SCORE.INTER.norm>
-0.839922

>  <SCORE.INTRA>
0.085911

>  <SCORE.INTRA.DIHEDRAL>
-0.28955

>  <SCORE.INTRA.DIHEDRAL.0>
1.50031

>  <SCORE.INTRA.POLAR>
0

>  <SCORE.INTRA.POLAR.0>
0

>  <SCORE.INTRA.REPUL>
0

>  <SCORE.INTRA.REPUL.0>
0

>  <SCORE.INTRA.SOLV>
-0.418504

>  <SCORE.INTRA.SOLV.lig_0>
-37.9941

>  <SCORE.INTRA.VDW>
0.439938

>  <SCORE.INTRA.VDW.0>
-0.964461

>  <SCORE.INTRA.norm>
0.00452163

>  <SCORE.RESTR>
0

>  <SCORE.RESTR.CAVITY>
0

>  <SCORE.RESTR.norm>
0

>  <SCORE.SYSTEM>
0

>  <SCORE.SYSTEM.CONST>
0

>  <SCORE.SYSTEM.DIHEDRAL>
0

>  <SCORE.SYSTEM.SOLV>
0

>  <SCORE.SYSTEM.norm>
0

>  <SCORE.heavy>
19

>  <SCORE.norm>
-0.8354

>  <RMSD>
0.914

$$$$
ligand
 OpenBabel11021811483D
libRbt.so/2013.1/901 2013/11/27
 19 21  0  0  0  0  0  0  0  0999 V2000
   17.8950   28.7461   32.9844 C   0  0  0  0  0  0  0  0  0  0  0  0
   16.6022   28.1168   32.9489 O   0  0  0  0  0  0  0  0  0  0  0  0
   17.9638   29.8142   34.0809 C   0  0  1  0  0  0  0  0  0  0  0  0
   17.6669   29.2441   35.3554 O   0  0  0  0  0  0  0  0  0  0  0  0
   19.3461   30.4305   34.1835 C   0  0  1  0  0  0  0  0  0  0  0  0
   19.2005   31.8466   34.2991 O   0  0  0  0  0  0  0  0  0  0  0  0
   19.9642   29.8960   35.4556 C   0  0  0  0  0  0  0  0  0  0  0  0
   18.8030   29.3026   36.2324 C   0  0  2  0  0  0  0  0  0  0  0  0
   18.2174   26.1362   40.2808 N   0  0  0  0  0  0  0  0  0  0  0  0
   17.8370   27.4240   40.1005 C   0  0  2  0  0  0  0  0  0  0  0  0
   17.1803   28.0800   41.0804 N   0  0  0  0  0  0  0  0  0  0  0  0
   18.0964   28.0840   38.9520 N   0  0  0  0  0  0  0  0  0  0  0  0
   18.7475   27.4918   37.9305 C   0  0  1  0  0  0  0  0  0  0  0  0
   19.1682   26.1868   38.0443 C   0  0  1  0  0  0  0  0  0  0  0  0
   18.8757   25.4706   39.3104 C   0  0  0  0  0  0  0  0  0  0  0  0
   19.2349   24.2839   39.4753 O   0  0  0  0  0  0  0  0  0  0  0  0
   19.7796   25.8529   36.8949 N   0  0  0  0  0  0  0  0  0  0  0  0
   19.7331   26.9403   36.0910 C   0  0  0  0  0  0  0  0  0  0  0  0
   19.0993   27.9341   36.7340 N   0  0  1  0  0  0  0  0  0  0  0  0
  1  2  1  0  0  0  0
  3  1  1  6  0  0  0
  3  4  1  0  0  0  0
  3  5  1  0  0  0  0
  5  6  1  1  0  0  0
  5  7  1  0  0  0  0
  7  8  1  0  0  0  0
  8  4  1  6  0  0  0
  8 19  1  0  0  0  0
  9 15  1  0  0  0  0
  9 10  1  0  0  0  0
 10 11  1  6  0  0  0
 10 12  1  0  0  0  0
 13 12  1  6  0  0  0
 13 14  1  0  0  0  0
 13 19  1  0  0  0  0
 14 15  1  6  0  0  0
 14 17  1  0  0  0  0
 15 16  2  0  0  0  0
 17 18  1  0  0  0  0
 19 18  1  6  0  0  0
M  END
>  <CHROM.1>
57.62274031,-100.72972251,18.57612583,28.00162806,36.79190364,-1.71995952
-1.44479275,1.99792076

>  <Name>
ligand

>  <RI>
0

>  <Rbt.Current_Directory>
/home/itssahil/PROJECTS/Mol_Feturizer/New_Systems/rnas/3SKL

>  <Rbt.Executable>
rbdock ($Id: //depot/dev/client3/rdock/2013.1/src/exe/rbdock.cxx#4 $)

>  <Rbt.Library>
libRbt.so (2013.1, Build901 2013/11/27)

>  <Rbt.Parameter_File>
/export/apps/rDock/src/rDock_2013.1_src/data/scripts/dock_solv.prm

>  <Rbt.Receptor>
prm/pocket_docking_4.prm

>  <SCORE>
-16.7488

>  <SCORE.INTER>
-16.3329

>  <SCORE.INTER.CONST>
1

>  <SCORE.INTER.POLAR>
0

>  <SCORE.INTER.ROT>
2

>  <SCORE.INTER.SOLV>
17.3145

>  <SCORE.INTER.VDW>
-21.5934

>  <SCORE.INTER.norm>
-0.859625

>  <SCORE.INTRA>
-0.415949

>  <SCORE.INTRA.DIHEDRAL>
-0.299341

>  <SCORE.INTRA.DIHEDRAL.0>
1.50031

>  <SCORE.INTRA.POLAR>
0

>  <SCORE.INTRA.POLAR.0>
0

>  <SCORE.INTRA.REPUL>
0

>  <SCORE.INTRA.REPUL.0>
0

>  <SCORE.INTRA.SOLV>
-0.535859

>  <SCORE.INTRA.SOLV.lig_0>
-37.9941

>  <SCORE.INTRA.VDW>
0.00165161

>  <SCORE.INTRA.VDW.0>
-0.964461

>  <SCORE.INTRA.norm>
-0.021892

>  <SCORE.RESTR>
0

>  <SCORE.RESTR.CAVITY>
0

>  <SCORE.RESTR.norm>
0

>  <SCORE.SYSTEM>
0

>  <SCORE.SYSTEM.CONST>
0

>  <SCORE.SYSTEM.DIHEDRAL>
0

>  <SCORE.SYSTEM.SOLV>
0

>  <SCORE.SYSTEM.norm>
0

>  <SCORE.heavy>
19

>  <SCORE.norm>
-0.881517

>  <RMSD>
0.919

$$$$
ligand
 OpenBabel11021811483D
libRbt.so/2013.1/901 2013/11/27
 19 21  0  0  0  0  0  0  0  0999 V2000
   18.4430   28.8381   32.6972 C   0  0  0  0  0  0  0  0  0  0  0  0
   17.2308   28.1216   32.4043 O   0  0  0  0  0  0  0  0  0  0  0  0
   18.2204   29.8819   33.7967 C   0  0  1  0  0  0  0  0  0  0  0  0
   17.8008   29.2530   35.0074 O   0  0  0  0  0  0  0  0  0  0  0  0
   19.4905   30.6483   34.1137 C   0  0  1  0  0  0  0  0  0  0  0  0
   19.1665   32.0358   34.2128 O   0  0  0  0  0  0  0  0  0  0  0  0
   19.9653   30.1585   35.4630 C   0  0  0  0  0  0  0  0  0  0  0  0
   18.7758   29.4198   36.0490 C   0  0  2  0  0  0  0  0  0  0  0  0
   18.2566   26.2727   40.1213 N   0  0  0  0  0  0  0  0  0  0  0  0
   17.7933   27.5275   39.9062 C   0  0  2  0  0  0  0  0  0  0  0  0
   17.0536   28.1477   40.8496 N   0  0  0  0  0  0  0  0  0  0  0  0
   18.0505   28.1894   38.7583 N   0  0  0  0  0  0  0  0  0  0  0  0
   18.7818   27.6320   37.7720 C   0  0  1  0  0  0  0  0  0  0  0  0
   19.2891   26.3620   37.9226 C   0  0  1  0  0  0  0  0  0  0  0  0
   18.9983   25.6432   39.1877 C   0  0  0  0  0  0  0  0  0  0  0  0
   19.4339   24.4874   39.3850 O   0  0  0  0  0  0  0  0  0  0  0  0
   19.9675   26.0576   36.8030 N   0  0  0  0  0  0  0  0  0  0  0  0
   19.8759   27.1283   35.9808 C   0  0  0  0  0  0  0  0  0  0  0  0
   19.1483   28.0826   36.5831 N   0  0  1  0  0  0  0  0  0  0  0  0
  1  2  1  0  0  0  0
  3  1  1  6  0  0  0
  3  4  1  0  0  0  0
  3  5  1  0  0  0  0
  5  6  1  1  0  0  0
  5  7  1  0  0  0  0
  7  8  1  0  0  0  0
  8  4  1  6  0  0  0
  8 19  1  0  0  0  0
  9 15  1  0  0  0  0
  9 10  1  0  0  0  0
 10 11  1  6  0  0  0
 10 12  1  0  0  0  0
 13 12  1  6  0  0  0
 13 14  1  0  0  0  0
 13 19  1  0  0  0  0
 14 15  1  6  0  0  0
 14 17  1  0  0  0  0
 15 16  2  0  0  0  0
 17 18  1  0  0  0  0
 19 18  1  6  0  0  0
M  END
>  <CHROM.1>
61.07384060,-107.96011702,18.70394514,28.13703773,36.60773857,-1.53523217
-1.36635570,2.16198261

>  <Name>
ligand

>  <RI>
0

>  <Rbt.Current_Directory>
/home/itssahil/PROJECTS/Mol_Feturizer/New_Systems/rnas/3SKL

>  <Rbt.Executable>
rbdock ($Id: //depot/dev/client3/rdock/2013.1/src/exe/rbdock.cxx#4 $)

>  <Rbt.Library>
libRbt.so (2013.1, Build901 2013/11/27)

>  <Rbt.Parameter_File>
/export/apps/rDock/src/rDock_2013.1_src/data/scripts/dock_solv.prm

>  <Rbt.Receptor>
prm/pocket_docking_3.prm

>  <SCORE>
-16.698

>  <SCORE.INTER>
-16.1836

>  <SCORE.INTER.CONST>
1

>  <SCORE.INTER.POLAR>
0

>  <SCORE.INTER.ROT>
2

>  <SCORE.INTER.SOLV>
17.6462

>  <SCORE.INTER.VDW>
-21.6044

>  <SCORE.INTER.norm>
-0.851768

>  <SCORE.INTRA>
-0.514433

>  <SCORE.INTRA.DIHEDRAL>
-0.307991

>  <SCORE.INTRA.DIHEDRAL.0>
1.50031

>  <SCORE.INTRA.POLAR>
0

>  <SCORE.INTRA.POLAR.0>
0

>  <SCORE.INTRA.REPUL>
0

>  <SCORE.INTRA.REPUL.0>
0

>  <SCORE.INTRA.SOLV>
-0.557826

>  <SCORE.INTRA.SOLV.lig_0>
-37.9941

>  <SCORE.INTRA.VDW>
-0.0815245

>  <SCORE.INTRA.VDW.0>
-0.964461

>  <SCORE.INTRA.norm>
-0.0270754

>  <SCORE.RESTR>
0

>  <SCORE.RESTR.CAVITY>
0

>  <SCORE.RESTR.norm>
0

>  <SCORE.SYSTEM>
0

>  <SCORE.SYSTEM.CONST>
0

>  <SCORE.SYSTEM.DIHEDRAL>
0

>  <SCORE.SYSTEM.SOLV>
0

>  <SCORE.SYSTEM.norm>
0

>  <SCORE.heavy>
19

>  <SCORE.norm>
-0.878843

>  <RMSD>
0.921

$$$$
ligand
 OpenBabel11021811483D
libRbt.so/2013.1/901 2013/11/27
 19 21  0  0  0  0  0  0  0  0999 V2000
   18.3945   28.9360   32.7105 C   0  0  0  0  0  0  0  0  0  0  0  0
   17.1543   28.2538   32.4557 O   0  0  0  0  0  0  0  0  0  0  0  0
   18.2377   29.9787   33.8223 C   0  0  1  0  0  0  0  0  0  0  0  0
   17.8185   29.3571   35.0369 O   0  0  0  0  0  0  0  0  0  0  0  0
   19.5442   30.6905   34.1179 C   0  0  1  0  0  0  0  0  0  0  0  0
   19.2789   32.0890   34.2344 O   0  0  0  0  0  0  0  0  0  0  0  0
   20.0271   30.1705   35.4530 C   0  0  0  0  0  0  0  0  0  0  0  0
   18.8212   29.4756   36.0587 C   0  0  2  0  0  0  0  0  0  0  0  0
   18.1526   26.2715   40.0643 N   0  0  0  0  0  0  0  0  0  0  0  0
   17.7252   27.5415   39.8642 C   0  0  2  0  0  0  0  0  0  0  0  0
   16.9857   28.1638   40.8064 N   0  0  0  0  0  0  0  0  0  0  0  0
   18.0187   28.2167   38.7329 N   0  0  0  0  0  0  0  0  0  0  0  0
   18.7522   27.6581   37.7490 C   0  0  1  0  0  0  0  0  0  0  0  0
   19.2243   26.3729   37.8849 C   0  0  1  0  0  0  0  0  0  0  0  0
   18.8938   25.6397   39.1318 C   0  0  0  0  0  0  0  0  0  0  0  0
   19.2963   24.4697   39.3153 O   0  0  0  0  0  0  0  0  0  0  0  0
   19.9137   26.0710   36.7713 N   0  0  0  0  0  0  0  0  0  0  0  0
   19.8635   27.1581   35.9673 C   0  0  0  0  0  0  0  0  0  0  0  0
   19.1503   28.1200   36.5746 N   0  0  1  0  0  0  0  0  0  0  0  0
  1  2  1  0  0  0  0
  3  1  1  6  0  0  0
  3  4  1  0  0  0  0
  3  5  1  0  0  0  0
  5  6  1  1  0  0  0
  5  7  1  0  0  0  0
  7  8  1  0  0  0  0
  8  4  1  6  0  0  0
  8 19  1  0  0  0  0
  9 15  1  0  0  0  0
  9 10  1  0  0  0  0
 10 11  1  6  0  0  0
 10 12  1  0  0  0  0
 13 12  1  6  0  0  0
 13 14  1  0  0  0  0
 13 19  1  0  0  0  0
 14 15  1  6  0  0  0
 14 17  1  0  0  0  0
 15 16  2  0  0  0  0
 17 18  1  0  0  0  0
 19 18  1  6  0  0  0
M  END
>  <CHROM.1>
59.97385624,-105.55419506,18.67876529,28.17783181,36.59508602,-1.44077524
-1.37955387,2.27302605

>  <Name>
ligand

>  <RI>
0

>  <Rbt.Current_Directory>
/home/itssahil/PROJECTS/Mol_Feturizer/New_Systems/rnas/3SKL

>  <Rbt.Executable>
rbdock ($Id: //depot/dev/client3/rdock/2013.1/src/exe/rbdock.cxx#4 $)

>  <Rbt.Library>
libRbt.so (2013.1, Build901 2013/11/27)

>  <Rbt.Parameter_File>
/export/apps/rDock/src/rDock_2013.1_src/data/scripts/dock_solv.prm

>  <Rbt.Receptor>
prm/pocket_docking_5.prm

>  <SCORE>
-16.6757

>  <SCORE.INTER>
-16.1872

>  <SCORE.INTER.CONST>
1

>  <SCORE.INTER.POLAR>
0

>  <SCORE.INTER.ROT>
2

>  <SCORE.INTER.SOLV>
17.7395

>  <SCORE.INTER.VDW>
-21.638

>  <SCORE.INTER.norm>
-0.851958

>  <SCORE.INTRA>
-0.488533

>  <SCORE.INTRA.DIHEDRAL>
-0.314947

>  <SCORE.INTRA.DIHEDRAL.0>
1.50031

>  <SCORE.INTRA.POLAR>
0

>  <SCORE.INTRA.POLAR.0>
0

>  <SCORE.INTRA.REPUL>
0

>  <SCORE.INTRA.REPUL.0>
0

>  <SCORE.INTRA.SOLV>
-0.550794

>  <SCORE.INTRA.SOLV.lig_0>
-37.9941

>  <SCORE.INTRA.VDW>
-0.0556629

>  <SCORE.INTRA.VDW.0>
-0.964461

>  <SCORE.INTRA.norm>
-0.0257123

>  <SCORE.RESTR>
0

>  <SCORE.RESTR.CAVITY>
0

>  <SCORE.RESTR.norm>
0

>  <SCORE.SYSTEM>
0

>  <SCORE.SYSTEM.CONST>
0

>  <SCORE.SYSTEM.DIHEDRAL>
0

>  <SCORE.SYSTEM.SOLV>
0

>  <SCORE.SYSTEM.norm>
0

>  <SCORE.heavy>
19

>  <SCORE.norm>
-0.87767

>  <RMSD>
0.927

$$$$
ligand
 OpenBabel11021811483D
libRbt.so/2013.1/901 2013/11/27
 19 21  0  0  0  0  0  0  0  0999 V2000
   18.4365   28.8621   32.7281 C   0  0  0  0  0  0  0  0  0  0  0  0
   17.2327   28.1270   32.4467 O   0  0  0  0  0  0  0  0  0  0  0  0
   18.2083   29.9029   33.8292 C   0  0  1  0  0  0  0  0  0  0  0  0
   17.7901   29.2700   35.0383 O   0  0  0  0  0  0  0  0  0  0  0  0
   19.4747   30.6741   34.1491 C   0  0  1  0  0  0  0  0  0  0  0  0
   19.1448   32.0600   34.2503 O   0  0  0  0  0  0  0  0  0  0  0  0
   19.9502   30.1838   35.4980 C   0  0  0  0  0  0  0  0  0  0  0  0
   18.7632   29.4391   36.0813 C   0  0  2  0  0  0  0  0  0  0  0  0
   18.2251   26.2690   40.1334 N   0  0  0  0  0  0  0  0  0  0  0  0
   17.7539   27.5210   39.9188 C   0  0  2  0  0  0  0  0  0  0  0  0
   16.9988   28.1307   40.8568 N   0  0  0  0  0  0  0  0  0  0  0  0
   18.0182   28.1902   38.7768 N   0  0  0  0  0  0  0  0  0  0  0  0
   18.7649   27.6434   37.7962 C   0  0  1  0  0  0  0  0  0  0  0  0
   19.2809   26.3769   37.9465 C   0  0  1  0  0  0  0  0  0  0  0  0
   18.9822   25.6499   39.2051 C   0  0  0  0  0  0  0  0  0  0  0  0
   19.4251   24.4968   39.4019 O   0  0  0  0  0  0  0  0  0  0  0  0
   19.9741   26.0833   36.8331 N   0  0  0  0  0  0  0  0  0  0  0  0
   19.8828   27.1570   36.0149 C   0  0  0  0  0  0  0  0  0  0  0  0
   19.1407   28.1025   36.6135 N   0  0  1  0  0  0  0  0  0  0  0  0
  1  2  1  0  0  0  0
  3  1  1  6  0  0  0
  3  4  1  0  0  0  0
  3  5  1  0  0  0  0
  5  6  1  1  0  0  0
  5  7  1  0  0  0  0
  7  8  1  0  0  0  0
  8  4  1  6  0  0  0
  8 19  1  0  0  0  0
  9 15  1  0  0  0  0
  9 10  1  0  0  0  0
 10 11  1  6  0  0  0
 10 12  1  0  0  0  0
 13 12  1  6  0  0  0
 13 14  1  0  0  0  0
 13 19  1  0  0  0  0
 14 15  1  6  0  0  0
 14 17  1  0  0  0  0
 15 16  2  0  0  0  0
 17 18  1  0  0  0  0
 19 18  1  6  0  0  0
M  END
>  <CHROM.1>
60.19700206,-107.32829757,18.68854278,28.15032340,36.63453617,-1.52561370
-1.35428254,2.17621012

>  <Name>
ligand

>  <RI>
0

>  <Rbt.Current_Directory>
/home/itssahil/PROJECTS/Mol_Feturizer/New_Systems/rnas/3SKL

>  <Rbt.Executable>
rbdock ($Id: //depot/dev/client3/rdock/2013.1/src/exe/rbdock.cxx#4 $)

>  <Rbt.Library>
libRbt.so (2013.1, Build901 2013/11/27)

>  <Rbt.Parameter_File>
/export/apps/rDock/src/rDock_2013.1_src/data/scripts/dock_solv.prm

>  <Rbt.Receptor>
prm/pocket_docking_5.prm

>  <SCORE>
-16.6622

>  <SCORE.INTER>
-16.1544

>  <SCORE.INTER.CONST>
1

>  <SCORE.INTER.POLAR>
0

>  <SCORE.INTER.ROT>
2

>  <SCORE.INTER.SOLV>
17.8114

>  <SCORE.INTER.VDW>
-21.64

>  <SCORE.INTER.norm>
-0.850231

>  <SCORE.INTRA>
-0.507821

>  <SCORE.INTRA.DIHEDRAL>
-0.312954

>  <SCORE.INTRA.DIHEDRAL.0>
1.50031

>  <SCORE.INTRA.POLAR>
0

>  <SCORE.INTRA.POLAR.0>
0

>  <SCORE.INTRA.REPUL>
0

>  <SCORE.INTRA.REPUL.0>
0

>  <SCORE.INTRA.SOLV>
-0.553056

>  <SCORE.INTRA.SOLV.lig_0>
-37.9941

>  <SCORE.INTRA.VDW>
-0.0748155

>  <SCORE.INTRA.VDW.0>
-0.964461

>  <SCORE.INTRA.norm>
-0.0267274

>  <SCORE.RESTR>
0

>  <SCORE.RESTR.CAVITY>
0

>  <SCORE.RESTR.norm>
0

>  <SCORE.SYSTEM>
0

>  <SCORE.SYSTEM.CONST>
0

>  <SCORE.SYSTEM.DIHEDRAL>
0

>  <SCORE.SYSTEM.SOLV>
0

>  <SCORE.SYSTEM.norm>
0

>  <SCORE.heavy>
19

>  <SCORE.norm>
-0.876958

>  <RMSD>
0.929

$$$$
ligand
 OpenBabel11021811483D
libRbt.so/2013.1/901 2013/11/27
 19 21  0  0  0  0  0  0  0  0999 V2000
   17.2458   29.4002   34.2974 C   0  0  0  0  0  0  0  0  0  0  0  0
   17.3347   27.9647   34.3056 O   0  0  0  0  0  0  0  0  0  0  0  0
   18.4869   30.0381   34.9305 C   0  0  1  0  0  0  0  0  0  0  0  0
   18.6636   29.5711   36.2677 O   0  0  0  0  0  0  0  0  0  0  0  0
   19.7519   29.6893   34.1696 C   0  0  1  0  0  0  0  0  0  0  0  0
   20.5301   30.8776   34.0206 O   0  0  0  0  0  0  0  0  0  0  0  0
   20.5162   28.7077   35.0289 C   0  0  0  0  0  0  0  0  0  0  0  0
   19.8749   28.8105   36.4007 C   0  0  2  0  0  0  0  0  0  0  0  0
   17.1918   26.4223   40.1231 N   0  0  0  0  0  0  0  0  0  0  0  0
   17.3271   27.7390   39.8336 C   0  0  2  0  0  0  0  0  0  0  0  0
   16.6875   28.6655   40.5781 N   0  0  0  0  0  0  0  0  0  0  0  0
   18.0929   28.1622   38.8059 N   0  0  0  0  0  0  0  0  0  0  0  0
   18.7601   27.2934   38.0196 C   0  0  1  0  0  0  0  0  0  0  0  0
   18.6734   25.9409   38.2572 C   0  0  1  0  0  0  0  0  0  0  0  0
   17.8271   25.4872   39.3883 C   0  0  0  0  0  0  0  0  0  0  0  0
   17.7106   24.2710   39.6563 O   0  0  0  0  0  0  0  0  0  0  0  0
   19.4256   25.3152   37.3357 N   0  0  0  0  0  0  0  0  0  0  0  0
   19.9645   26.2735   36.5470 C   0  0  0  0  0  0  0  0  0  0  0  0
   19.5496   27.4771   36.9738 N   0  0  1  0  0  0  0  0  0  0  0  0
  1  2  1  0  0  0  0
  3  1  1  6  0  0  0
  3  4  1  0  0  0  0
  3  5  1  0  0  0  0
  5  6  1  1  0  0  0
  5  7  1  0  0  0  0
  7  8  1  0  0  0  0
  8  4  1  6  0  0  0
  8 19  1  0  0  0  0
  9 15  1  0  0  0  0
  9 10  1  0  0  0  0
 10 11  1  6  0  0  0
 10 12  1  0  0  0  0
 13 12  1  6  0  0  0
 13 14  1  0  0  0  0
 13 19  1  0  0  0  0
 14 15  1  6  0  0  0
 14 17  1  0  0  0  0
 15 16  2  0  0  0  0
 17 18  1  0  0  0  0
 19 18  1  6  0  0  0
M  END
>  <CHROM.1>
-57.64080123,-46.55654712,18.60496963,27.83495417,37.04200013,1.12980660
0.94738822,-0.59205123

>  <Name>
ligand

>  <RI>
0

>  <Rbt.Current_Directory>
/home/itssahil/PROJECTS/Mol_Feturizer/New_Systems/rnas/3SKL

>  <Rbt.Executable>
rbdock ($Id: //depot/dev/client3/rdock/2013.1/src/exe/rbdock.cxx#4 $)

>  <Rbt.Library>
libRbt.so (2013.1, Build901 2013/11/27)

>  <Rbt.Parameter_File>
/export/apps/rDock/src/rDock_2013.1_src/data/scripts/dock_solv.prm

>  <Rbt.Receptor>
prm/pocket_docking_2.prm

>  <SCORE>
-17.1057

>  <SCORE.INTER>
-17.0079

>  <SCORE.INTER.CONST>
1

>  <SCORE.INTER.POLAR>
0

>  <SCORE.INTER.ROT>
2

>  <SCORE.INTER.SOLV>
18.26

>  <SCORE.INTER.VDW>
-22.3586

>  <SCORE.INTER.norm>
-0.895152

>  <SCORE.INTRA>
-0.0978248

>  <SCORE.INTRA.DIHEDRAL>
-0.261658

>  <SCORE.INTRA.DIHEDRAL.0>
1.50031

>  <SCORE.INTRA.POLAR>
0

>  <SCORE.INTRA.POLAR.0>
0

>  <SCORE.INTRA.REPUL>
0

>  <SCORE.INTRA.REPUL.0>
0

>  <SCORE.INTRA.SOLV>
-0.00760521

>  <SCORE.INTRA.SOLV.lig_0>
-37.9941

>  <SCORE.INTRA.VDW>
0.0368067

>  <SCORE.INTRA.VDW.0>
-0.964461

>  <SCORE.INTRA.norm>
-0.00514867

>  <SCORE.RESTR>
0

>  <SCORE.RESTR.CAVITY>
0

>  <SCORE.RESTR.norm>
0

>  <SCORE.SYSTEM>
0

>  <SCORE.SYSTEM.CONST>
0

>  <SCORE.SYSTEM.DIHEDRAL>
0

>  <SCORE.SYSTEM.SOLV>
0

>  <SCORE.SYSTEM.norm>
0

>  <SCORE.heavy>
19

>  <SCORE.norm>
-0.900301

>  <RMSD>
0.942

$$$$
ligand
 OpenBabel11021811483D
libRbt.so/2013.1/901 2013/11/27
 19 21  0  0  0  0  0  0  0  0999 V2000
   17.1669   29.3803   34.3327 C   0  0  0  0  0  0  0  0  0  0  0  0
   17.3089   27.9508   34.2623 O   0  0  0  0  0  0  0  0  0  0  0  0
   18.4058   30.0324   34.9555 C   0  0  1  0  0  0  0  0  0  0  0  0
   18.6149   29.5467   36.2813 O   0  0  0  0  0  0  0  0  0  0  0  0
   19.6642   29.7222   34.1674 C   0  0  1  0  0  0  0  0  0  0  0  0
   20.4157   30.9284   34.0256 O   0  0  0  0  0  0  0  0  0  0  0  0
   20.4626   28.7420   34.9966 C   0  0  0  0  0  0  0  0  0  0  0  0
   19.8432   28.8086   36.3806 C   0  0  2  0  0  0  0  0  0  0  0  0
   17.2454   26.3015   40.0852 N   0  0  0  0  0  0  0  0  0  0  0  0
   17.3465   27.6251   39.8143 C   0  0  2  0  0  0  0  0  0  0  0  0
   16.6898   28.5248   40.5766 N   0  0  0  0  0  0  0  0  0  0  0  0
   18.0946   28.0819   38.7878 N   0  0  0  0  0  0  0  0  0  0  0  0
   18.7772   27.2412   37.9844 C   0  0  1  0  0  0  0  0  0  0  0  0
   18.7252   25.8838   38.2026 C   0  0  1  0  0  0  0  0  0  0  0  0
   17.8982   25.3930   39.3325 C   0  0  0  0  0  0  0  0  0  0  0  0
   17.8133   24.1705   39.5834 O   0  0  0  0  0  0  0  0  0  0  0  0
   19.4859   25.2901   37.2670 N   0  0  0  0  0  0  0  0  0  0  0  0
   19.9957   26.2727   36.4890 C   0  0  0  0  0  0  0  0  0  0  0  0
   19.5546   27.4595   36.9361 N   0  0  1  0  0  0  0  0  0  0  0  0
  1  2  1  0  0  0  0
  3  1  1  6  0  0  0
  3  4  1  0  0  0  0
  3  5  1  0  0  0  0
  5  6  1  1  0  0  0
  5  7  1  0  0  0  0
  7  8  1  0  0  0  0
  8  4  1  6  0  0  0
  8 19  1  0  0  0  0
  9 15  1  0  0  0  0
  9 10  1  0  0  0  0
 10 11  1  6  0  0  0
 10 12  1  0  0  0  0
 13 12  1  6  0  0  0
 13 14  1  0  0  0  0
 13 19  1  0  0  0  0
 14 15  1  6  0  0  0
 14 17  1  0  0  0  0
 15 16  2  0  0  0  0
 17 18  1  0  0  0  0
 19 18  1  6  0  0  0
M  END
>  <CHROM.1>
-60.11472103,-45.90345033,18.59793425,27.79634321,37.01727080,1.17569792
0.93839986,-0.61376471

>  <Name>
ligand

>  <RI>
0

>  <Rbt.Current_Directory>
/home/itssahil/PROJECTS/Mol_Feturizer/New_Systems/rnas/3SKL

>  <Rbt.Executable>
rbdock ($Id: //depot/dev/client3/rdock/2013.1/src/exe/rbdock.cxx#4 $)

>  <Rbt.Library>
libRbt.so (2013.1, Build901 2013/11/27)

>  <Rbt.Parameter_File>
/export/apps/rDock/src/rDock_2013.1_src/data/scripts/dock_solv.prm

>  <Rbt.Receptor>
prm/pocket_docking_2.prm

>  <SCORE>
-17.2149

>  <SCORE.INTER>
-17.1264

>  <SCORE.INTER.CONST>
1

>  <SCORE.INTER.POLAR>
0

>  <SCORE.INTER.ROT>
2

>  <SCORE.INTER.SOLV>
17.8393

>  <SCORE.INTER.VDW>
-22.2974

>  <SCORE.INTER.norm>
-0.901391

>  <SCORE.INTRA>
-0.0884309

>  <SCORE.INTRA.DIHEDRAL>
-0.281808

>  <SCORE.INTRA.DIHEDRAL.0>
1.50031

>  <SCORE.INTRA.POLAR>
0

>  <SCORE.INTRA.POLAR.0>
0

>  <SCORE.INTRA.REPUL>
0

>  <SCORE.INTRA.REPUL.0>
0

>  <SCORE.INTRA.SOLV>
-0.0130697

>  <SCORE.INTRA.SOLV.lig_0>
-37.9941

>  <SCORE.INTRA.VDW>
0.0590078

>  <SCORE.INTRA.VDW.0>
-0.964461

>  <SCORE.INTRA.norm>
-0.00465426

>  <SCORE.RESTR>
0

>  <SCORE.RESTR.CAVITY>
0

>  <SCORE.RESTR.norm>
0

>  <SCORE.SYSTEM>
0

>  <SCORE.SYSTEM.CONST>
0

>  <SCORE.SYSTEM.DIHEDRAL>
0

>  <SCORE.SYSTEM.SOLV>
0

>  <SCORE.SYSTEM.norm>
0

>  <SCORE.heavy>
19

>  <SCORE.norm>
-0.906045

>  <RMSD>
0.945

$$$$
ligand
 OpenBabel11021811483D
libRbt.so/2013.1/901 2013/11/27
 19 21  0  0  0  0  0  0  0  0999 V2000
   17.5152   29.4389   33.8611 C   0  0  0  0  0  0  0  0  0  0  0  0
   17.8942   28.0533   33.7883 O   0  0  0  0  0  0  0  0  0  0  0  0
   18.4368   30.2189   34.8046 C   0  0  1  0  0  0  0  0  0  0  0  0
   18.4348   29.6319   36.1057 O   0  0  0  0  0  0  0  0  0  0  0  0
   19.8744   30.2161   34.3205 C   0  0  1  0  0  0  0  0  0  0  0  0
   20.3941   31.5405   34.4448 O   0  0  0  0  0  0  0  0  0  0  0  0
   20.6407   29.3000   35.2477 C   0  0  0  0  0  0  0  0  0  0  0  0
   19.7281   29.1068   36.4450 C   0  0  2  0  0  0  0  0  0  0  0  0
   17.5996   25.9062   39.9068 N   0  0  0  0  0  0  0  0  0  0  0  0
   17.5767   27.2579   39.8180 C   0  0  2  0  0  0  0  0  0  0  0  0
   16.9052   27.9858   40.7352 N   0  0  0  0  0  0  0  0  0  0  0  0
   18.2134   27.9125   38.8240 N   0  0  0  0  0  0  0  0  0  0  0  0
   18.9030   27.2506   37.8729 C   0  0  1  0  0  0  0  0  0  0  0  0
   18.9739   25.8769   37.9020 C   0  0  1  0  0  0  0  0  0  0  0  0
   18.2685   25.1679   38.9981 C   0  0  0  0  0  0  0  0  0  0  0  0
   18.2981   23.9202   39.0802 O   0  0  0  0  0  0  0  0  0  0  0  0
   19.7125   25.4835   36.8502 N   0  0  0  0  0  0  0  0  0  0  0  0
   20.0878   26.6027   36.1890 C   0  0  0  0  0  0  0  0  0  0  0  0
   19.5863   27.6752   36.8223 N   0  0  1  0  0  0  0  0  0  0  0  0
  1  2  1  0  0  0  0
  3  1  1  6  0  0  0
  3  4  1  0  0  0  0
  3  5  1  0  0  0  0
  5  6  1  1  0  0  0
  5  7  1  0  0  0  0
  7  8  1  0  0  0  0
  8  4  1  6  0  0  0
  8 19  1  0  0  0  0
  9 15  1  0  0  0  0
  9 10  1  0  0  0  0
 10 11  1  6  0  0  0
 10 12  1  0  0  0  0
 13 12  1  6  0  0  0
 13 14  1  0  0  0  0
 13 19  1  0  0  0  0
 14 15  1  6  0  0  0
 14 17  1  0  0  0  0
 15 16  2  0  0  0  0
 17 18  1  0  0  0  0
 19 18  1  6  0  0  0
M  END
>  <CHROM.1>
-56.84505492,-64.08665915,18.78552041,27.86269122,36.88829976,-1.09892497
-1.14289154,2.72197906

>  <Name>
ligand

>  <RI>
0

>  <Rbt.Current_Directory>
/home/itssahil/PROJECTS/Mol_Feturizer/New_Systems/rnas/3SKL

>  <Rbt.Executable>
rbdock ($Id: //depot/dev/client3/rdock/2013.1/src/exe/rbdock.cxx#4 $)

>  <Rbt.Library>
libRbt.so (2013.1, Build901 2013/11/27)

>  <Rbt.Parameter_File>
/export/apps/rDock/src/rDock_2013.1_src/data/scripts/dock_solv.prm

>  <Rbt.Receptor>
prm/pocket_docking_3.prm

>  <SCORE>
-17.2203

>  <SCORE.INTER>
-17.1434

>  <SCORE.INTER.CONST>
1

>  <SCORE.INTER.POLAR>
0

>  <SCORE.INTER.ROT>
2

>  <SCORE.INTER.SOLV>
17.1487

>  <SCORE.INTER.VDW>
-22.0785

>  <SCORE.INTER.norm>
-0.902282

>  <SCORE.INTRA>
-0.0769227

>  <SCORE.INTRA.DIHEDRAL>
-0.267146

>  <SCORE.INTRA.DIHEDRAL.0>
1.50031

>  <SCORE.INTRA.POLAR>
0

>  <SCORE.INTRA.POLAR.0>
0

>  <SCORE.INTRA.REPUL>
0

>  <SCORE.INTRA.REPUL.0>
0

>  <SCORE.INTRA.SOLV>
0.00996552

>  <SCORE.INTRA.SOLV.lig_0>
-37.9941

>  <SCORE.INTRA.VDW>
0.0516675

>  <SCORE.INTRA.VDW.0>
-0.964461

>  <SCORE.INTRA.norm>
-0.00404856

>  <SCORE.RESTR>
0

>  <SCORE.RESTR.CAVITY>
0

>  <SCORE.RESTR.norm>
0

>  <SCORE.SYSTEM>
0

>  <SCORE.SYSTEM.CONST>
0

>  <SCORE.SYSTEM.DIHEDRAL>
0

>  <SCORE.SYSTEM.SOLV>
0

>  <SCORE.SYSTEM.norm>
0

>  <SCORE.heavy>
19

>  <SCORE.norm>
-0.906331

>  <RMSD>
0.946

$$$$
ligand
 OpenBabel11021811483D
libRbt.so/2013.1/901 2013/11/27
 19 21  0  0  0  0  0  0  0  0999 V2000
   17.1403   29.3848   34.3534 C   0  0  0  0  0  0  0  0  0  0  0  0
   17.2794   27.9547   34.2898 O   0  0  0  0  0  0  0  0  0  0  0  0
   18.3823   30.0377   34.9690 C   0  0  1  0  0  0  0  0  0  0  0  0
   18.6014   29.5496   36.2923 O   0  0  0  0  0  0  0  0  0  0  0  0
   19.6358   29.7313   34.1716 C   0  0  1  0  0  0  0  0  0  0  0  0
   20.3843   30.9391   34.0271 O   0  0  0  0  0  0  0  0  0  0  0  0
   20.4417   28.7507   34.9932 C   0  0  0  0  0  0  0  0  0  0  0  0
   19.8317   28.8135   36.3817 C   0  0  2  0  0  0  0  0  0  0  0  0
   17.2819   26.2961   40.1126 N   0  0  0  0  0  0  0  0  0  0  0  0
   17.3808   27.6206   39.8449 C   0  0  2  0  0  0  0  0  0  0  0  0
   16.7355   28.5182   40.6192 N   0  0  0  0  0  0  0  0  0  0  0  0
   18.1153   28.0802   38.8099 N   0  0  0  0  0  0  0  0  0  0  0  0
   18.7859   27.2416   37.9943 C   0  0  1  0  0  0  0  0  0  0  0  0
   18.7355   25.8834   38.2085 C   0  0  1  0  0  0  0  0  0  0  0  0
   17.9234   25.3895   39.3479 C   0  0  0  0  0  0  0  0  0  0  0  0
   17.8405   24.1663   39.5956 O   0  0  0  0  0  0  0  0  0  0  0  0
   19.4826   25.2923   37.2605 N   0  0  0  0  0  0  0  0  0  0  0  0
   19.9829   26.2771   36.4791 C   0  0  0  0  0  0  0  0  0  0  0  0
   19.5492   27.4627   36.9363 N   0  0  1  0  0  0  0  0  0  0  0  0
  1  2  1  0  0  0  0
  3  1  1  6  0  0  0
  3  4  1  0  0  0  0
  3  5  1  0  0  0  0
  5  6  1  1  0  0  0
  5  7  1  0  0  0  0
  7  8  1  0  0  0  0
  8  4  1  6  0  0  0
  8 19  1  0  0  0  0
  9 15  1  0  0  0  0
  9 10  1  0  0  0  0
 10 11  1  6  0  0  0
 10 12  1  0  0  0  0
 13 12  1  6  0  0  0
 13 14  1  0  0  0  0
 13 19  1  0  0  0  0
 14 15  1  6  0  0  0
 14 17  1  0  0  0  0
 15 16  2  0  0  0  0
 17 18  1  0  0  0  0
 19 18  1  6  0  0  0
M  END
>  <CHROM.1>
-59.61329490,-46.32883449,18.59740855,27.79821440,37.02933946,1.18342005
0.95319763,-0.61707601

>  <Name>
ligand

>  <RI>
0

>  <Rbt.Current_Directory>
/home/itssahil/PROJECTS/Mol_Feturizer/New_Systems/rnas/3SKL

>  <Rbt.Executable>
rbdock ($Id: //depot/dev/client3/rdock/2013.1/src/exe/rbdock.cxx#4 $)

>  <Rbt.Library>
libRbt.so (2013.1, Build901 2013/11/27)

>  <Rbt.Parameter_File>
/export/apps/rDock/src/rDock_2013.1_src/data/scripts/dock_solv.prm

>  <Rbt.Receptor>
prm/pocket_docking_2.prm

>  <SCORE>
-17.1682

>  <SCORE.INTER>
-17.0766

>  <SCORE.INTER.CONST>
1

>  <SCORE.INTER.POLAR>
0

>  <SCORE.INTER.ROT>
2

>  <SCORE.INTER.SOLV>
17.7724

>  <SCORE.INTER.VDW>
-22.2419

>  <SCORE.INTER.norm>
-0.89877

>  <SCORE.INTRA>
-0.0915809

>  <SCORE.INTRA.DIHEDRAL>
-0.281585

>  <SCORE.INTRA.DIHEDRAL.0>
1.50031

>  <SCORE.INTRA.POLAR>
0

>  <SCORE.INTRA.POLAR.0>
0

>  <SCORE.INTRA.REPUL>
0

>  <SCORE.INTRA.REPUL.0>
0

>  <SCORE.INTRA.SOLV>
-0.0116044

>  <SCORE.INTRA.SOLV.lig_0>
-37.9941

>  <SCORE.INTRA.VDW>
0.0550137

>  <SCORE.INTRA.VDW.0>
-0.964461

>  <SCORE.INTRA.norm>
-0.00482005

>  <SCORE.RESTR>
0

>  <SCORE.RESTR.CAVITY>
0

>  <SCORE.RESTR.norm>
0

>  <SCORE.SYSTEM>
0

>  <SCORE.SYSTEM.CONST>
0

>  <SCORE.SYSTEM.DIHEDRAL>
0

>  <SCORE.SYSTEM.SOLV>
0

>  <SCORE.SYSTEM.norm>
0

>  <SCORE.heavy>
19

>  <SCORE.norm>
-0.90359

>  <RMSD>
0.950

$$$$
ligand
 OpenBabel11021811483D
libRbt.so/2013.1/901 2013/11/27
 19 21  0  0  0  0  0  0  0  0999 V2000
   17.5002   29.4983   33.9041 C   0  0  0  0  0  0  0  0  0  0  0  0
   17.8679   28.1149   33.7638 O   0  0  0  0  0  0  0  0  0  0  0  0
   18.4866   30.2474   34.8062 C   0  0  1  0  0  0  0  0  0  0  0  0
   18.5180   29.6634   36.1082 O   0  0  0  0  0  0  0  0  0  0  0  0
   19.9020   30.1934   34.2632 C   0  0  1  0  0  0  0  0  0  0  0  0
   20.4722   31.4992   34.3614 O   0  0  0  0  0  0  0  0  0  0  0  0
   20.6736   29.2529   35.1610 C   0  0  0  0  0  0  0  0  0  0  0  0
   19.8051   29.0941   36.3956 C   0  0  2  0  0  0  0  0  0  0  0  0
   17.6872   25.9752   39.9376 N   0  0  0  0  0  0  0  0  0  0  0  0
   17.7053   27.3267   39.8440 C   0  0  2  0  0  0  0  0  0  0  0  0
   17.0879   28.0789   40.7793 N   0  0  0  0  0  0  0  0  0  0  0  0
   18.3303   27.9571   38.8272 N   0  0  0  0  0  0  0  0  0  0  0  0
   18.9669   27.2702   37.8571 C   0  0  1  0  0  0  0  0  0  0  0  0
   18.9941   25.8949   37.8896 C   0  0  1  0  0  0  0  0  0  0  0  0
   18.3020   25.2128   39.0109 C   0  0  0  0  0  0  0  0  0  0  0  0
   18.2938   23.9650   39.0972 O   0  0  0  0  0  0  0  0  0  0  0  0
   19.6851   25.4745   36.8162 N   0  0  0  0  0  0  0  0  0  0  0  0
   20.0749   26.5788   36.1386 C   0  0  0  0  0  0  0  0  0  0  0  0
   19.6292   27.6690   36.7833 N   0  0  1  0  0  0  0  0  0  0  0  0
  1  2  1  0  0  0  0
  3  1  1  6  0  0  0
  3  4  1  0  0  0  0
  3  5  1  0  0  0  0
  5  6  1  1  0  0  0
  5  7  1  0  0  0  0
  7  8  1  0  0  0  0
  8  4  1  6  0  0  0
  8 19  1  0  0  0  0
  9 15  1  0  0  0  0
  9 10  1  0  0  0  0
 10 11  1  6  0  0  0
 10 12  1  0  0  0  0
 13 12  1  6  0  0  0
 13 14  1  0  0  0  0
 13 19  1  0  0  0  0
 14 15  1  6  0  0  0
 14 17  1  0  0  0  0
 15 16  2  0  0  0  0
 17 18  1  0  0  0  0
 19 18  1  6  0  0  0
M  END
>  <CHROM.1>
-59.89286288,-63.55148436,18.83450890,27.88506431,36.87374647,-1.06365923
-1.18367618,2.74996717

>  <Name>
ligand

>  <RI>
0

>  <Rbt.Current_Directory>
/home/itssahil/PROJECTS/Mol_Feturizer/New_Systems/rnas/3SKL

>  <Rbt.Executable>
rbdock ($Id: //depot/dev/client3/rdock/2013.1/src/exe/rbdock.cxx#4 $)

>  <Rbt.Library>
libRbt.so (2013.1, Build901 2013/11/27)

>  <Rbt.Parameter_File>
/export/apps/rDock/src/rDock_2013.1_src/data/scripts/dock_solv.prm

>  <Rbt.Receptor>
prm/pocket_docking_4.prm

>  <SCORE>
-17.245

>  <SCORE.INTER>
-17.1761

>  <SCORE.INTER.CONST>
1

>  <SCORE.INTER.POLAR>
0

>  <SCORE.INTER.ROT>
2

>  <SCORE.INTER.SOLV>
16.5761

>  <SCORE.INTER.VDW>
-21.9095

>  <SCORE.INTER.norm>
-0.904007

>  <SCORE.INTRA>
-0.0688322

>  <SCORE.INTRA.DIHEDRAL>
-0.303254

>  <SCORE.INTRA.DIHEDRAL.0>
1.50031

>  <SCORE.INTRA.POLAR>
0

>  <SCORE.INTRA.POLAR.0>
0

>  <SCORE.INTRA.REPUL>
0

>  <SCORE.INTRA.REPUL.0>
0

>  <SCORE.INTRA.SOLV>
0.00370081

>  <SCORE.INTRA.SOLV.lig_0>
-37.9941

>  <SCORE.INTRA.VDW>
0.0809445

>  <SCORE.INTRA.VDW.0>
-0.964461

>  <SCORE.INTRA.norm>
-0.00362274

>  <SCORE.RESTR>
0

>  <SCORE.RESTR.CAVITY>
0

>  <SCORE.RESTR.norm>
0

>  <SCORE.SYSTEM>
0

>  <SCORE.SYSTEM.CONST>
0

>  <SCORE.SYSTEM.DIHEDRAL>
0

>  <SCORE.SYSTEM.SOLV>
0

>  <SCORE.SYSTEM.norm>
0

>  <SCORE.heavy>
19

>  <SCORE.norm>
-0.90763

>  <RMSD>
0.951

$$$$
ligand
 OpenBabel11021811483D
libRbt.so/2013.1/901 2013/11/27
 19 21  0  0  0  0  0  0  0  0999 V2000
   17.1382   29.3716   34.3192 C   0  0  0  0  0  0  0  0  0  0  0  0
   17.3175   27.9479   34.2217 O   0  0  0  0  0  0  0  0  0  0  0  0
   18.3547   30.0426   34.9656 C   0  0  1  0  0  0  0  0  0  0  0  0
   18.5689   29.5314   36.2810 O   0  0  0  0  0  0  0  0  0  0  0  0
   19.6260   29.7859   34.1790 C   0  0  1  0  0  0  0  0  0  0  0  0
   20.3447   31.0153   34.0708 O   0  0  0  0  0  0  0  0  0  0  0  0
   20.4462   28.8086   34.9903 C   0  0  0  0  0  0  0  0  0  0  0  0
   19.8166   28.8253   36.3713 C   0  0  2  0  0  0  0  0  0  0  0  0
   17.2860   26.1627   40.0134 N   0  0  0  0  0  0  0  0  0  0  0  0
   17.3542   27.4948   39.7758 C   0  0  2  0  0  0  0  0  0  0  0  0
   16.6765   28.3585   40.5609 N   0  0  0  0  0  0  0  0  0  0  0  0
   18.0895   27.9955   38.7606 N   0  0  0  0  0  0  0  0  0  0  0  0
   18.7915   27.1923   37.9358 C   0  0  1  0  0  0  0  0  0  0  0  0
   18.7733   25.8289   38.1199 C   0  0  1  0  0  0  0  0  0  0  0  0
   17.9600   25.2897   39.2376 C   0  0  0  0  0  0  0  0  0  0  0  0
   17.9055   24.0596   39.4577 O   0  0  0  0  0  0  0  0  0  0  0  0
   19.5471   25.2779   37.1691 N   0  0  0  0  0  0  0  0  0  0  0  0
   20.0316   26.2920   36.4157 C   0  0  0  0  0  0  0  0  0  0  0  0
   19.5620   27.4559   36.8929 N   0  0  1  0  0  0  0  0  0  0  0  0
  1  2  1  0  0  0  0
  3  1  1  6  0  0  0
  3  4  1  0  0  0  0
  3  5  1  0  0  0  0
  5  6  1  1  0  0  0
  5  7  1  0  0  0  0
  7  8  1  0  0  0  0
  8  4  1  6  0  0  0
  8 19  1  0  0  0  0
  9 15  1  0  0  0  0
  9 10  1  0  0  0  0
 10 11  1  6  0  0  0
 10 12  1  0  0  0  0
 13 12  1  6  0  0  0
 13 14  1  0  0  0  0
 13 19  1  0  0  0  0
 14 15  1  6  0  0  0
 14 17  1  0  0  0  0
 15 16  2  0  0  0  0
 17 18  1  0  0  0  0
 19 18  1  6  0  0  0
M  END
>  <CHROM.1>
-59.85299278,-46.37069759,18.60132543,27.76492991,36.98015161,1.20568702
0.92901379,-0.61332304

>  <Name>
ligand

>  <RI>
0

>  <Rbt.Current_Directory>
/home/itssahil/PROJECTS/Mol_Feturizer/New_Systems/rnas/3SKL

>  <Rbt.Executable>
rbdock ($Id: //depot/dev/client3/rdock/2013.1/src/exe/rbdock.cxx#4 $)

>  <Rbt.Library>
libRbt.so (2013.1, Build901 2013/11/27)

>  <Rbt.Parameter_File>
/export/apps/rDock/src/rDock_2013.1_src/data/scripts/dock_solv.prm

>  <Rbt.Receptor>
prm/pocket_docking_2.prm

>  <SCORE>
-17.1632

>  <SCORE.INTER>
-17.0737

>  <SCORE.INTER.CONST>
1

>  <SCORE.INTER.POLAR>
0

>  <SCORE.INTER.ROT>
2

>  <SCORE.INTER.SOLV>
17.6634

>  <SCORE.INTER.VDW>
-22.2036

>  <SCORE.INTER.norm>
-0.898614

>  <SCORE.INTRA>
-0.0894798

>  <SCORE.INTRA.DIHEDRAL>
-0.282162

>  <SCORE.INTRA.DIHEDRAL.0>
1.50031

>  <SCORE.INTRA.POLAR>
0

>  <SCORE.INTRA.POLAR.0>
0

>  <SCORE.INTRA.REPUL>
0

>  <SCORE.INTRA.REPUL.0>
0

>  <SCORE.INTRA.SOLV>
-0.0120719

>  <SCORE.INTRA.SOLV.lig_0>
-37.9941

>  <SCORE.INTRA.VDW>
0.0576372

>  <SCORE.INTRA.VDW.0>
-0.964461

>  <SCORE.INTRA.norm>
-0.00470946

>  <SCORE.RESTR>
0

>  <SCORE.RESTR.CAVITY>
0

>  <SCORE.RESTR.norm>
0

>  <SCORE.SYSTEM>
0

>  <SCORE.SYSTEM.CONST>
0

>  <SCORE.SYSTEM.DIHEDRAL>
0

>  <SCORE.SYSTEM.SOLV>
0

>  <SCORE.SYSTEM.norm>
0

>  <SCORE.heavy>
19

>  <SCORE.norm>
-0.903324

>  <RMSD>
0.955

$$$$
ligand
 OpenBabel11021811483D
libRbt.so/2013.1/901 2013/11/27
 19 21  0  0  0  0  0  0  0  0999 V2000
   17.1452   29.3856   34.3579 C   0  0  0  0  0  0  0  0  0  0  0  0
   17.2826   27.9554   34.2932 O   0  0  0  0  0  0  0  0  0  0  0  0
   18.3873   30.0364   34.9757 C   0  0  1  0  0  0  0  0  0  0  0  0
   18.6061   29.5441   36.2975 O   0  0  0  0  0  0  0  0  0  0  0  0
   19.6407   29.7324   34.1774 C   0  0  1  0  0  0  0  0  0  0  0  0
   20.3894   30.9405   34.0368 O   0  0  0  0  0  0  0  0  0  0  0  0
   20.4464   28.7491   34.9960 C   0  0  0  0  0  0  0  0  0  0  0  0
   19.8363   28.8075   36.3846 C   0  0  2  0  0  0  0  0  0  0  0  0
   17.2768   26.2778   40.1004 N   0  0  0  0  0  0  0  0  0  0  0  0
   17.3748   27.6030   39.8363 C   0  0  2  0  0  0  0  0  0  0  0  0
   16.7258   28.4979   40.6106 N   0  0  0  0  0  0  0  0  0  0  0  0
   18.1124   28.0661   38.8050 N   0  0  0  0  0  0  0  0  0  0  0  0
   18.7869   27.2303   37.9897 C   0  0  1  0  0  0  0  0  0  0  0  0
   18.7374   25.8716   38.2004 C   0  0  1  0  0  0  0  0  0  0  0  0
   17.9220   25.3739   39.3357 C   0  0  0  0  0  0  0  0  0  0  0  0
   17.8398   24.1499   39.5801 O   0  0  0  0  0  0  0  0  0  0  0  0
   19.4886   25.2837   37.2535 N   0  0  0  0  0  0  0  0  0  0  0  0
   19.9903   26.2711   36.4762 C   0  0  0  0  0  0  0  0  0  0  0  0
   19.5536   27.4550   36.9349 N   0  0  1  0  0  0  0  0  0  0  0  0
  1  2  1  0  0  0  0
  3  1  1  6  0  0  0
  3  4  1  0  0  0  0
  3  5  1  0  0  0  0
  5  6  1  1  0  0  0
  5  7  1  0  0  0  0
  7  8  1  0  0  0  0
  8  4  1  6  0  0  0
  8 19  1  0  0  0  0
  9 15  1  0  0  0  0
  9 10  1  0  0  0  0
 10 11  1  6  0  0  0
 10 12  1  0  0  0  0
 13 12  1  6  0  0  0
 13 14  1  0  0  0  0
 13 19  1  0  0  0  0
 14 15  1  6  0  0  0
 14 17  1  0  0  0  0
 15 16  2  0  0  0  0
 17 18  1  0  0  0  0
 19 18  1  6  0  0  0
M  END
>  <CHROM.1>
-59.44969188,-46.11531314,18.59913607,27.79009044,37.02717228,1.18420542
0.94719243,-0.61494085

>  <Name>
ligand

>  <RI>
0

>  <Rbt.Current_Directory>
/home/itssahil/PROJECTS/Mol_Feturizer/New_Systems/rnas/3SKL

>  <Rbt.Executable>
rbdock ($Id: //depot/dev/client3/rdock/2013.1/src/exe/rbdock.cxx#4 $)

>  <Rbt.Library>
libRbt.so (2013.1, Build901 2013/11/27)

>  <Rbt.Parameter_File>
/export/apps/rDock/src/rDock_2013.1_src/data/scripts/dock_solv.prm

>  <Rbt.Receptor>
prm/pocket_docking_2.prm

>  <SCORE>
-17.2013

>  <SCORE.INTER>
-17.1079

>  <SCORE.INTER.CONST>
1

>  <SCORE.INTER.POLAR>
0

>  <SCORE.INTER.ROT>
2

>  <SCORE.INTER.SOLV>
17.7524

>  <SCORE.INTER.VDW>
-22.2561

>  <SCORE.INTER.norm>
-0.900415

>  <SCORE.INTRA>
-0.0934264

>  <SCORE.INTRA.DIHEDRAL>
-0.280768

>  <SCORE.INTRA.DIHEDRAL.0>
1.50031

>  <SCORE.INTRA.POLAR>
0

>  <SCORE.INTRA.POLAR.0>
0

>  <SCORE.INTRA.REPUL>
0

>  <SCORE.INTRA.REPUL.0>
0

>  <SCORE.INTRA.SOLV>
-0.0114626

>  <SCORE.INTRA.SOLV.lig_0>
-37.9941

>  <SCORE.INTRA.VDW>
0.0526888

>  <SCORE.INTRA.VDW.0>
-0.964461

>  <SCORE.INTRA.norm>
-0.00491718

>  <SCORE.RESTR>
0

>  <SCORE.RESTR.CAVITY>
0

>  <SCORE.RESTR.norm>
0

>  <SCORE.SYSTEM>
0

>  <SCORE.SYSTEM.CONST>
0

>  <SCORE.SYSTEM.DIHEDRAL>
0

>  <SCORE.SYSTEM.SOLV>
0

>  <SCORE.SYSTEM.norm>
0

>  <SCORE.heavy>
19

>  <SCORE.norm>
-0.905332

>  <RMSD>
0.955

$$$$
ligand
 OpenBabel11021811483D
libRbt.so/2013.1/901 2013/11/27
 19 21  0  0  0  0  0  0  0  0999 V2000
   17.2174   29.3712   34.3349 C   0  0  0  0  0  0  0  0  0  0  0  0
   17.3543   27.9415   34.2592 O   0  0  0  0  0  0  0  0  0  0  0  0
   18.4550   30.0159   34.9677 C   0  0  1  0  0  0  0  0  0  0  0  0
   18.6564   29.5213   36.2914 O   0  0  0  0  0  0  0  0  0  0  0  0
   19.7164   29.7072   34.1838 C   0  0  1  0  0  0  0  0  0  0  0  0
   20.4719   30.9121   34.0532 O   0  0  0  0  0  0  0  0  0  0  0  0
   20.5081   28.7195   35.0106 C   0  0  0  0  0  0  0  0  0  0  0  0
   19.8822   28.7793   36.3921 C   0  0  2  0  0  0  0  0  0  0  0  0
   17.2577   26.2561   40.0668 N   0  0  0  0  0  0  0  0  0  0  0  0
   17.3635   27.5811   39.8046 C   0  0  2  0  0  0  0  0  0  0  0  0
   16.7048   28.4777   40.5687 N   0  0  0  0  0  0  0  0  0  0  0  0
   18.1184   28.0423   38.7851 N   0  0  0  0  0  0  0  0  0  0  0  0
   18.8033   27.2048   37.9803 C   0  0  1  0  0  0  0  0  0  0  0  0
   18.7468   25.8461   38.1899 C   0  0  1  0  0  0  0  0  0  0  0  0
   17.9123   25.3505   39.3122 C   0  0  0  0  0  0  0  0  0  0  0  0
   17.8230   24.1268   39.5551 O   0  0  0  0  0  0  0  0  0  0  0  0
   19.5112   25.2563   37.2549 N   0  0  0  0  0  0  0  0  0  0  0  0
   20.0278   26.2424   36.4857 C   0  0  0  0  0  0  0  0  0  0  0  0
   19.5871   27.4275   36.9377 N   0  0  1  0  0  0  0  0  0  0  0  0
  1  2  1  0  0  0  0
  3  1  1  6  0  0  0
  3  4  1  0  0  0  0
  3  5  1  0  0  0  0
  5  6  1  1  0  0  0
  5  7  1  0  0  0  0
  7  8  1  0  0  0  0
  8  4  1  6  0  0  0
  8 19  1  0  0  0  0
  9 15  1  0  0  0  0
  9 10  1  0  0  0  0
 10 11  1  6  0  0  0
 10 12  1  0  0  0  0
 13 12  1  6  0  0  0
 13 14  1  0  0  0  0
 13 19  1  0  0  0  0
 14 15  1  6  0  0  0
 14 17  1  0  0  0  0
 15 16  2  0  0  0  0
 17 18  1  0  0  0  0
 19 18  1  6  0  0  0
M  END
>  <CHROM.1>
-59.97004100,-45.85953721,18.63040207,27.76642566,37.01611062,1.16749819
0.93454276,-0.60097792

>  <Name>
ligand

>  <RI>
0

>  <Rbt.Current_Directory>
/home/itssahil/PROJECTS/Mol_Feturizer/New_Systems/rnas/3SKL

>  <Rbt.Executable>
rbdock ($Id: //depot/dev/client3/rdock/2013.1/src/exe/rbdock.cxx#4 $)

>  <Rbt.Library>
libRbt.so (2013.1, Build901 2013/11/27)

>  <Rbt.Parameter_File>
/export/apps/rDock/src/rDock_2013.1_src/data/scripts/dock_solv.prm

>  <Rbt.Receptor>
prm/pocket_docking_2.prm

>  <SCORE>
-17.1507

>  <SCORE.INTER>
-17.0607

>  <SCORE.INTER.CONST>
1

>  <SCORE.INTER.POLAR>
0

>  <SCORE.INTER.ROT>
2

>  <SCORE.INTER.SOLV>
17.6489

>  <SCORE.INTER.VDW>
-22.1901

>  <SCORE.INTER.norm>
-0.897934

>  <SCORE.INTRA>
-0.0899529

>  <SCORE.INTRA.DIHEDRAL>
-0.281765

>  <SCORE.INTRA.DIHEDRAL.0>
1.50031

>  <SCORE.INTRA.POLAR>
0

>  <SCORE.INTRA.POLAR.0>
0

>  <SCORE.INTRA.REPUL>
0

>  <SCORE.INTRA.REPUL.0>
0

>  <SCORE.INTRA.SOLV>
-0.0127973

>  <SCORE.INTRA.SOLV.lig_0>
-37.9941

>  <SCORE.INTRA.VDW>
0.0573283

>  <SCORE.INTRA.VDW.0>
-0.964461

>  <SCORE.INTRA.norm>
-0.00473436

>  <SCORE.RESTR>
0

>  <SCORE.RESTR.CAVITY>
0

>  <SCORE.RESTR.norm>
0

>  <SCORE.SYSTEM>
0

>  <SCORE.SYSTEM.CONST>
0

>  <SCORE.SYSTEM.DIHEDRAL>
0

>  <SCORE.SYSTEM.SOLV>
0

>  <SCORE.SYSTEM.norm>
0

>  <SCORE.heavy>
19

>  <SCORE.norm>
-0.902668

>  <RMSD>
0.956

$$$$
ligand
 OpenBabel11021811483D
libRbt.so/2013.1/901 2013/11/27
 19 21  0  0  0  0  0  0  0  0999 V2000
   17.2045   29.4273   34.3407 C   0  0  0  0  0  0  0  0  0  0  0  0
   17.3262   27.9957   34.2745 O   0  0  0  0  0  0  0  0  0  0  0  0
   18.4471   30.0626   34.9734 C   0  0  1  0  0  0  0  0  0  0  0  0
   18.6452   29.5659   36.2968 O   0  0  0  0  0  0  0  0  0  0  0  0
   19.7058   29.7450   34.1889 C   0  0  1  0  0  0  0  0  0  0  0  0
   20.4702   30.9444   34.0586 O   0  0  0  0  0  0  0  0  0  0  0  0
   20.4906   28.7512   35.0150 C   0  0  0  0  0  0  0  0  0  0  0  0
   19.8656   28.8148   36.3967 C   0  0  2  0  0  0  0  0  0  0  0  0
   17.2400   26.3106   40.0836 N   0  0  0  0  0  0  0  0  0  0  0  0
   17.3572   27.6350   39.8230 C   0  0  2  0  0  0  0  0  0  0  0  0
   16.7122   28.5366   40.5930 N   0  0  0  0  0  0  0  0  0  0  0  0
   18.1100   28.0907   38.7996 N   0  0  0  0  0  0  0  0  0  0  0  0
   18.7816   27.2480   37.9889 C   0  0  1  0  0  0  0  0  0  0  0  0
   18.7131   25.8896   38.1965 C   0  0  1  0  0  0  0  0  0  0  0  0
   17.8810   25.4001   39.3232 C   0  0  0  0  0  0  0  0  0  0  0  0
   17.7812   24.1768   39.5645 O   0  0  0  0  0  0  0  0  0  0  0  0
   19.4657   25.2941   37.2555 N   0  0  0  0  0  0  0  0  0  0  0  0
   19.9870   26.2765   36.4848 C   0  0  0  0  0  0  0  0  0  0  0  0
   19.5608   27.4650   36.9418 N   0  0  1  0  0  0  0  0  0  0  0  0
  1  2  1  0  0  0  0
  3  1  1  6  0  0  0
  3  4  1  0  0  0  0
  3  5  1  0  0  0  0
  5  6  1  1  0  0  0
  5  7  1  0  0  0  0
  7  8  1  0  0  0  0
  8  4  1  6  0  0  0
  8 19  1  0  0  0  0
  9 15  1  0  0  0  0
  9 10  1  0  0  0  0
 10 11  1  6  0  0  0
 10 12  1  0  0  0  0
 13 12  1  6  0  0  0
 13 14  1  0  0  0  0
 13 19  1  0  0  0  0
 14 15  1  6  0  0  0
 14 17  1  0  0  0  0
 15 16  2  0  0  0  0
 17 18  1  0  0  0  0
 19 18  1  6  0  0  0
M  END
>  <CHROM.1>
-59.48804658,-46.23987965,18.61093785,27.81125320,37.02484537,1.15604209
0.94792262,-0.59035346

>  <Name>
ligand

>  <RI>
0

>  <Rbt.Current_Directory>
/home/itssahil/PROJECTS/Mol_Feturizer/New_Systems/rnas/3SKL

>  <Rbt.Executable>
rbdock ($Id: //depot/dev/client3/rdock/2013.1/src/exe/rbdock.cxx#4 $)

>  <Rbt.Library>
libRbt.so (2013.1, Build901 2013/11/27)

>  <Rbt.Parameter_File>
/export/apps/rDock/src/rDock_2013.1_src/data/scripts/dock_solv.prm

>  <Rbt.Receptor>
prm/pocket_docking_2.prm

>  <SCORE>
-17.1541

>  <SCORE.INTER>
-17.0613

>  <SCORE.INTER.CONST>
1

>  <SCORE.INTER.POLAR>
0

>  <SCORE.INTER.ROT>
2

>  <SCORE.INTER.SOLV>
17.8262

>  <SCORE.INTER.VDW>
-22.2496

>  <SCORE.INTER.norm>
-0.897963

>  <SCORE.INTRA>
-0.0927803

>  <SCORE.INTRA.DIHEDRAL>
-0.281051

>  <SCORE.INTRA.DIHEDRAL.0>
1.50031

>  <SCORE.INTRA.POLAR>
0

>  <SCORE.INTRA.POLAR.0>
0

>  <SCORE.INTRA.REPUL>
0

>  <SCORE.INTRA.REPUL.0>
0

>  <SCORE.INTRA.SOLV>
-0.0114263

>  <SCORE.INTRA.SOLV.lig_0>
-37.9941

>  <SCORE.INTRA.VDW>
0.0534582

>  <SCORE.INTRA.VDW.0>
-0.964461

>  <SCORE.INTRA.norm>
-0.00488317

>  <SCORE.RESTR>
0

>  <SCORE.RESTR.CAVITY>
0

>  <SCORE.RESTR.norm>
0

>  <SCORE.SYSTEM>
0

>  <SCORE.SYSTEM.CONST>
0

>  <SCORE.SYSTEM.DIHEDRAL>
0

>  <SCORE.SYSTEM.SOLV>
0

>  <SCORE.SYSTEM.norm>
0

>  <SCORE.heavy>
19

>  <SCORE.norm>
-0.902846

>  <RMSD>
0.959

$$$$
ligand
 OpenBabel11021811483D
libRbt.so/2013.1/901 2013/11/27
 19 21  0  0  0  0  0  0  0  0999 V2000
   17.3870   29.5215   34.1303 C   0  0  0  0  0  0  0  0  0  0  0  0
   17.6188   28.1033   34.0720 O   0  0  0  0  0  0  0  0  0  0  0  0
   18.4825   30.2318   34.9325 C   0  0  1  0  0  0  0  0  0  0  0  0
   18.5759   29.6841   36.2473 O   0  0  0  0  0  0  0  0  0  0  0  0
   19.8470   30.0728   34.2893 C   0  0  1  0  0  0  0  0  0  0  0  0
   20.5018   31.3420   34.3024 O   0  0  0  0  0  0  0  0  0  0  0  0
   20.6250   29.1110   35.1586 C   0  0  0  0  0  0  0  0  0  0  0  0
   19.8437   29.0426   36.4582 C   0  0  2  0  0  0  0  0  0  0  0  0
   17.3378   26.1452   39.9343 N   0  0  0  0  0  0  0  0  0  0  0  0
   17.3832   27.4891   39.7682 C   0  0  2  0  0  0  0  0  0  0  0  0
   16.6846   28.2976   40.5928 N   0  0  0  0  0  0  0  0  0  0  0  0
   18.1160   28.0561   38.7867 N   0  0  0  0  0  0  0  0  0  0  0  0
   18.8381   27.3107   37.9259 C   0  0  1  0  0  0  0  0  0  0  0  0
   18.8436   25.9393   38.0372 C   0  0  1  0  0  0  0  0  0  0  0  0
   18.0328   25.3269   39.1185 C   0  0  0  0  0  0  0  0  0  0  0  0
   17.9993   24.0861   39.2726 O   0  0  0  0  0  0  0  0  0  0  0  0
   19.6337   25.4536   37.0645 N   0  0  0  0  0  0  0  0  0  0  0  0
   20.1047   26.5148   36.3698 C   0  0  0  0  0  0  0  0  0  0  0  0
   19.6107   27.6431   36.9044 N   0  0  1  0  0  0  0  0  0  0  0  0
  1  2  1  0  0  0  0
  3  1  1  6  0  0  0
  3  4  1  0  0  0  0
  3  5  1  0  0  0  0
  5  6  1  1  0  0  0
  5  7  1  0  0  0  0
  7  8  1  0  0  0  0
  8  4  1  6  0  0  0
  8 19  1  0  0  0  0
  9 15  1  0  0  0  0
  9 10  1  0  0  0  0
 10 11  1  6  0  0  0
 10 12  1  0  0  0  0
 13 12  1  6  0  0  0
 13 14  1  0  0  0  0
 13 19  1  0  0  0  0
 14 15  1  6  0  0  0
 14 17  1  0  0  0  0
 15 16  2  0  0  0  0
 17 18  1  0  0  0  0
 19 18  1  6  0  0  0
M  END
>  <CHROM.1>
-56.68987106,-52.94735053,18.70260374,27.90499457,36.96052062,1.14794732
0.97719149,-0.51804437

>  <Name>
ligand

>  <RI>
0

>  <Rbt.Current_Directory>
/home/itssahil/PROJECTS/Mol_Feturizer/New_Systems/rnas/3SKL

>  <Rbt.Executable>
rbdock ($Id: //depot/dev/client3/rdock/2013.1/src/exe/rbdock.cxx#4 $)

>  <Rbt.Library>
libRbt.so (2013.1, Build901 2013/11/27)

>  <Rbt.Parameter_File>
/export/apps/rDock/src/rDock_2013.1_src/data/scripts/dock_solv.prm

>  <Rbt.Receptor>
prm/pocket_docking_3.prm

>  <SCORE>
-17.3664

>  <SCORE.INTER>
-17.2988

>  <SCORE.INTER.CONST>
1

>  <SCORE.INTER.POLAR>
0

>  <SCORE.INTER.ROT>
2

>  <SCORE.INTER.SOLV>
17.6931

>  <SCORE.INTER.VDW>
-22.3636

>  <SCORE.INTER.norm>
-0.910465

>  <SCORE.INTRA>
-0.0675665

>  <SCORE.INTRA.DIHEDRAL>
-0.249175

>  <SCORE.INTRA.DIHEDRAL.0>
1.50031

>  <SCORE.INTRA.POLAR>
0

>  <SCORE.INTRA.POLAR.0>
0

>  <SCORE.INTRA.REPUL>
0

>  <SCORE.INTRA.REPUL.0>
0

>  <SCORE.INTRA.SOLV>
-0.000304604

>  <SCORE.INTRA.SOLV.lig_0>
-37.9941

>  <SCORE.INTRA.VDW>
0.0571734

>  <SCORE.INTRA.VDW.0>
-0.964461

>  <SCORE.INTRA.norm>
-0.00355613

>  <SCORE.RESTR>
0

>  <SCORE.RESTR.CAVITY>
0

>  <SCORE.RESTR.norm>
0

>  <SCORE.SYSTEM>
0

>  <SCORE.SYSTEM.CONST>
0

>  <SCORE.SYSTEM.DIHEDRAL>
0

>  <SCORE.SYSTEM.SOLV>
0

>  <SCORE.SYSTEM.norm>
0

>  <SCORE.heavy>
19

>  <SCORE.norm>
-0.914021

>  <RMSD>
0.960

$$$$
ligand
 OpenBabel11021811483D
libRbt.so/2013.1/901 2013/11/27
 19 21  0  0  0  0  0  0  0  0999 V2000
   17.3535   29.5056   34.2098 C   0  0  0  0  0  0  0  0  0  0  0  0
   17.5829   28.0890   34.1133 O   0  0  0  0  0  0  0  0  0  0  0  0
   18.4799   30.2003   34.9822 C   0  0  1  0  0  0  0  0  0  0  0  0
   18.5841   29.6684   36.3027 O   0  0  0  0  0  0  0  0  0  0  0  0
   19.8283   29.9998   34.3171 C   0  0  1  0  0  0  0  0  0  0  0  0
   20.5132   31.2530   34.3007 O   0  0  0  0  0  0  0  0  0  0  0  0
   20.5989   29.0316   35.1858 C   0  0  0  0  0  0  0  0  0  0  0  0
   19.8400   28.9996   36.4999 C   0  0  2  0  0  0  0  0  0  0  0  0
   17.2864   26.2074   40.0270 N   0  0  0  0  0  0  0  0  0  0  0  0
   17.3562   27.5472   39.8383 C   0  0  2  0  0  0  0  0  0  0  0  0
   16.6737   28.3822   40.6501 N   0  0  0  0  0  0  0  0  0  0  0  0
   18.0979   28.0842   38.8467 N   0  0  0  0  0  0  0  0  0  0  0  0
   18.8049   27.3113   37.9977 C   0  0  1  0  0  0  0  0  0  0  0  0
   18.7854   25.9421   38.1320 C   0  0  1  0  0  0  0  0  0  0  0  0
   17.9651   25.3629   39.2243 C   0  0  0  0  0  0  0  0  0  0  0  0
   17.9091   24.1257   39.3993 O   0  0  0  0  0  0  0  0  0  0  0  0
   19.5651   25.4257   37.1667 N   0  0  0  0  0  0  0  0  0  0  0  0
   20.0544   26.4663   36.4537 C   0  0  0  0  0  0  0  0  0  0  0  0
   19.5820   27.6123   36.9698 N   0  0  1  0  0  0  0  0  0  0  0  0
  1  2  1  0  0  0  0
  3  1  1  6  0  0  0
  3  4  1  0  0  0  0
  3  5  1  0  0  0  0
  5  6  1  1  0  0  0
  5  7  1  0  0  0  0
  7  8  1  0  0  0  0
  8  4  1  6  0  0  0
  8 19  1  0  0  0  0
  9 15  1  0  0  0  0
  9 10  1  0  0  0  0
 10 11  1  6  0  0  0
 10 12  1  0  0  0  0
 13 12  1  6  0  0  0
 13 14  1  0  0  0  0
 13 19  1  0  0  0  0
 14 15  1  6  0  0  0
 14 17  1  0  0  0  0
 15 16  2  0  0  0  0
 17 18  1  0  0  0  0
 19 18  1  6  0  0  0
M  END
>  <CHROM.1>
-59.40326151,-51.92302487,18.67122732,27.89615362,37.02561436,1.13158007
0.98188786,-0.52099672

>  <Name>
ligand

>  <RI>
0

>  <Rbt.Current_Directory>
/home/itssahil/PROJECTS/Mol_Feturizer/New_Systems/rnas/3SKL

>  <Rbt.Executable>
rbdock ($Id: //depot/dev/client3/rdock/2013.1/src/exe/rbdock.cxx#4 $)

>  <Rbt.Library>
libRbt.so (2013.1, Build901 2013/11/27)

>  <Rbt.Parameter_File>
/export/apps/rDock/src/rDock_2013.1_src/data/scripts/dock_solv.prm

>  <Rbt.Receptor>
prm/pocket_docking_6.prm

>  <SCORE>
-17.2911

>  <SCORE.INTER>
-17.2245

>  <SCORE.INTER.CONST>
1

>  <SCORE.INTER.POLAR>
0

>  <SCORE.INTER.ROT>
2

>  <SCORE.INTER.SOLV>
17.8178

>  <SCORE.INTER.VDW>
-22.3556

>  <SCORE.INTER.norm>
-0.90655

>  <SCORE.INTRA>
-0.0666922

>  <SCORE.INTRA.DIHEDRAL>
-0.286984

>  <SCORE.INTRA.DIHEDRAL.0>
1.50031

>  <SCORE.INTRA.POLAR>
0

>  <SCORE.INTRA.POLAR.0>
0

>  <SCORE.INTRA.REPUL>
0

>  <SCORE.INTRA.REPUL.0>
0

>  <SCORE.INTRA.SOLV>
-0.0061364

>  <SCORE.INTRA.SOLV.lig_0>
-37.9941

>  <SCORE.INTRA.VDW>
0.0798677

>  <SCORE.INTRA.VDW.0>
-0.964461

>  <SCORE.INTRA.norm>
-0.00351012

>  <SCORE.RESTR>
0

>  <SCORE.RESTR.CAVITY>
0

>  <SCORE.RESTR.norm>
0

>  <SCORE.SYSTEM>
0

>  <SCORE.SYSTEM.CONST>
0

>  <SCORE.SYSTEM.DIHEDRAL>
0

>  <SCORE.SYSTEM.SOLV>
0

>  <SCORE.SYSTEM.norm>
0

>  <SCORE.heavy>
19

>  <SCORE.norm>
-0.91006

>  <RMSD>
0.962

$$$$
ligand
 OpenBabel11021811483D
libRbt.so/2013.1/901 2013/11/27
 19 21  0  0  0  0  0  0  0  0999 V2000
   17.1724   29.4301   34.3261 C   0  0  0  0  0  0  0  0  0  0  0  0
   17.3082   27.9998   34.2595 O   0  0  0  0  0  0  0  0  0  0  0  0
   18.4045   30.0767   34.9679 C   0  0  1  0  0  0  0  0  0  0  0  0
   18.6146   29.5598   36.2817 O   0  0  0  0  0  0  0  0  0  0  0  0
   19.6671   29.7966   34.1753 C   0  0  1  0  0  0  0  0  0  0  0  0
   20.4089   31.0121   34.0654 O   0  0  0  0  0  0  0  0  0  0  0  0
   20.4719   28.8026   34.9818 C   0  0  0  0  0  0  0  0  0  0  0  0
   19.8489   28.8297   36.3656 C   0  0  2  0  0  0  0  0  0  0  0  0
   17.2835   26.2116   40.0156 N   0  0  0  0  0  0  0  0  0  0  0  0
   17.3763   27.5424   39.7793 C   0  0  2  0  0  0  0  0  0  0  0  0
   16.7188   28.4181   40.5685 N   0  0  0  0  0  0  0  0  0  0  0  0
   18.1166   28.0302   38.7615 N   0  0  0  0  0  0  0  0  0  0  0  0
   18.7994   27.2147   37.9327 C   0  0  1  0  0  0  0  0  0  0  0  0
   18.7557   25.8517   38.1152 C   0  0  1  0  0  0  0  0  0  0  0  0
   17.9371   25.3268   39.2358 C   0  0  0  0  0  0  0  0  0  0  0  0
   17.8599   24.0977   39.4547 O   0  0  0  0  0  0  0  0  0  0  0  0
   19.5146   25.2871   37.1603 N   0  0  0  0  0  0  0  0  0  0  0  0
   20.0152   26.2927   36.4060 C   0  0  0  0  0  0  0  0  0  0  0  0
   19.5702   27.4648   36.8867 N   0  0  1  0  0  0  0  0  0  0  0  0
  1  2  1  0  0  0  0
  3  1  1  6  0  0  0
  3  4  1  0  0  0  0
  3  5  1  0  0  0  0
  5  6  1  1  0  0  0
  5  7  1  0  0  0  0
  7  8  1  0  0  0  0
  8  4  1  6  0  0  0
  8 19  1  0  0  0  0
  9 15  1  0  0  0  0
  9 10  1  0  0  0  0
 10 11  1  6  0  0  0
 10 12  1  0  0  0  0
 13 12  1  6  0  0  0
 13 14  1  0  0  0  0
 13 19  1  0  0  0  0
 14 15  1  6  0  0  0
 14 17  1  0  0  0  0
 15 16  2  0  0  0  0
 17 18  1  0  0  0  0
 19 18  1  6  0  0  0
M  END
>  <CHROM.1>
-58.26227220,-46.37041508,18.61510911,27.79189638,36.98057862,1.18455581
0.94002117,-0.59500844

>  <Name>
ligand

>  <RI>
0

>  <Rbt.Current_Directory>
/home/itssahil/PROJECTS/Mol_Feturizer/New_Systems/rnas/3SKL

>  <Rbt.Executable>
rbdock ($Id: //depot/dev/client3/rdock/2013.1/src/exe/rbdock.cxx#4 $)

>  <Rbt.Library>
libRbt.so (2013.1, Build901 2013/11/27)

>  <Rbt.Parameter_File>
/export/apps/rDock/src/rDock_2013.1_src/data/scripts/dock_solv.prm

>  <Rbt.Receptor>
prm/pocket_docking_2.prm

>  <SCORE>
-17.2193

>  <SCORE.INTER>
-17.1213

>  <SCORE.INTER.CONST>
1

>  <SCORE.INTER.POLAR>
0

>  <SCORE.INTER.ROT>
2

>  <SCORE.INTER.SOLV>
17.6214

>  <SCORE.INTER.VDW>
-22.2213

>  <SCORE.INTER.norm>
-0.90112

>  <SCORE.INTRA>
-0.097997

>  <SCORE.INTRA.DIHEDRAL>
-0.270846

>  <SCORE.INTRA.DIHEDRAL.0>
1.50031

>  <SCORE.INTRA.POLAR>
0

>  <SCORE.INTRA.POLAR.0>
0

>  <SCORE.INTRA.REPUL>
0

>  <SCORE.INTRA.REPUL.0>
0

>  <SCORE.INTRA.SOLV>
-0.00889817

>  <SCORE.INTRA.SOLV.lig_0>
-37.9941

>  <SCORE.INTRA.VDW>
0.0418752

>  <SCORE.INTRA.VDW.0>
-0.964461

>  <SCORE.INTRA.norm>
-0.00515774

>  <SCORE.RESTR>
0

>  <SCORE.RESTR.CAVITY>
0

>  <SCORE.RESTR.norm>
0

>  <SCORE.SYSTEM>
0

>  <SCORE.SYSTEM.CONST>
0

>  <SCORE.SYSTEM.DIHEDRAL>
0

>  <SCORE.SYSTEM.SOLV>
0

>  <SCORE.SYSTEM.norm>
0

>  <SCORE.heavy>
19

>  <SCORE.norm>
-0.906278

>  <RMSD>
0.964

$$$$
ligand
 OpenBabel11021811483D
libRbt.so/2013.1/901 2013/11/27
 19 21  0  0  0  0  0  0  0  0999 V2000
   17.1800   29.4470   34.3271 C   0  0  0  0  0  0  0  0  0  0  0  0
   17.3245   28.0184   34.2438 O   0  0  0  0  0  0  0  0  0  0  0  0
   18.4115   30.0941   34.9695 C   0  0  1  0  0  0  0  0  0  0  0  0
   18.6219   29.5768   36.2831 O   0  0  0  0  0  0  0  0  0  0  0  0
   19.6745   29.8154   34.1770 C   0  0  1  0  0  0  0  0  0  0  0  0
   20.4154   31.0315   34.0678 O   0  0  0  0  0  0  0  0  0  0  0  0
   20.4799   28.8216   34.9831 C   0  0  0  0  0  0  0  0  0  0  0  0
   19.8566   28.8475   36.3669 C   0  0  2  0  0  0  0  0  0  0  0  0
   17.2788   26.2245   40.0045 N   0  0  0  0  0  0  0  0  0  0  0  0
   17.3692   27.5554   39.7679 C   0  0  2  0  0  0  0  0  0  0  0  0
   16.7051   28.4297   40.5530 N   0  0  0  0  0  0  0  0  0  0  0  0
   18.1136   28.0447   38.7538 N   0  0  0  0  0  0  0  0  0  0  0  0
   18.8031   27.2306   37.9292 C   0  0  1  0  0  0  0  0  0  0  0  0
   18.7622   25.8676   38.1122 C   0  0  1  0  0  0  0  0  0  0  0  0
   17.9390   25.3410   39.2288 C   0  0  0  0  0  0  0  0  0  0  0  0
   17.8640   24.1118   39.4479 O   0  0  0  0  0  0  0  0  0  0  0  0
   19.5278   25.3045   37.1618 N   0  0  0  0  0  0  0  0  0  0  0  0
   20.0297   26.3110   36.4096 C   0  0  0  0  0  0  0  0  0  0  0  0
   19.5789   27.4822   36.8872 N   0  0  1  0  0  0  0  0  0  0  0  0
  1  2  1  0  0  0  0
  3  1  1  6  0  0  0
  3  4  1  0  0  0  0
  3  5  1  0  0  0  0
  5  6  1  1  0  0  0
  5  7  1  0  0  0  0
  7  8  1  0  0  0  0
  8  4  1  6  0  0  0
  8 19  1  0  0  0  0
  9 15  1  0  0  0  0
  9 10  1  0  0  0  0
 10 11  1  6  0  0  0
 10 12  1  0  0  0  0
 13 12  1  6  0  0  0
 13 14  1  0  0  0  0
 13 19  1  0  0  0  0
 14 15  1  6  0  0  0
 14 17  1  0  0  0  0
 15 16  2  0  0  0  0
 17 18  1  0  0  0  0
 19 18  1  6  0  0  0
M  END
>  <CHROM.1>
-59.02748044,-46.04473462,18.62006656,27.80825933,36.97708162,1.18611790
0.93257110,-0.59643892

>  <Name>
ligand

>  <RI>
0

>  <Rbt.Current_Directory>
/home/itssahil/PROJECTS/Mol_Feturizer/New_Systems/rnas/3SKL

>  <Rbt.Executable>
rbdock ($Id: //depot/dev/client3/rdock/2013.1/src/exe/rbdock.cxx#4 $)

>  <Rbt.Library>
libRbt.so (2013.1, Build901 2013/11/27)

>  <Rbt.Parameter_File>
/export/apps/rDock/src/rDock_2013.1_src/data/scripts/dock_solv.prm

>  <Rbt.Receptor>
prm/pocket_docking_2.prm

>  <SCORE>
-17.2306

>  <SCORE.INTER>
-17.1344

>  <SCORE.INTER.CONST>
1

>  <SCORE.INTER.POLAR>
0

>  <SCORE.INTER.ROT>
2

>  <SCORE.INTER.SOLV>
17.6494

>  <SCORE.INTER.VDW>
-22.2394

>  <SCORE.INTER.norm>
-0.901811

>  <SCORE.INTRA>
-0.0962322

>  <SCORE.INTRA.DIHEDRAL>
-0.278246

>  <SCORE.INTRA.DIHEDRAL.0>
1.50031

>  <SCORE.INTRA.POLAR>
0

>  <SCORE.INTRA.POLAR.0>
0

>  <SCORE.INTRA.REPUL>
0

>  <SCORE.INTRA.REPUL.0>
0

>  <SCORE.INTRA.SOLV>
-0.0106724

>  <SCORE.INTRA.SOLV.lig_0>
-37.9941

>  <SCORE.INTRA.VDW>
0.0482268

>  <SCORE.INTRA.VDW.0>
-0.964461

>  <SCORE.INTRA.norm>
-0.00506485

>  <SCORE.RESTR>
0

>  <SCORE.RESTR.CAVITY>
0

>  <SCORE.RESTR.norm>
0

>  <SCORE.SYSTEM>
0

>  <SCORE.SYSTEM.CONST>
0

>  <SCORE.SYSTEM.DIHEDRAL>
0

>  <SCORE.SYSTEM.SOLV>
0

>  <SCORE.SYSTEM.norm>
0

>  <SCORE.heavy>
19

>  <SCORE.norm>
-0.906876

>  <RMSD>
0.964

$$$$
ligand
 OpenBabel11021811483D
libRbt.so/2013.1/901 2013/11/27
 19 21  0  0  0  0  0  0  0  0999 V2000
   17.3290   29.4888   34.2142 C   0  0  0  0  0  0  0  0  0  0  0  0
   17.5771   28.0756   34.1144 O   0  0  0  0  0  0  0  0  0  0  0  0
   18.4435   30.1957   34.9927 C   0  0  1  0  0  0  0  0  0  0  0  0
   18.5493   29.6620   36.3123 O   0  0  0  0  0  0  0  0  0  0  0  0
   19.7970   30.0138   34.3324 C   0  0  1  0  0  0  0  0  0  0  0  0
   20.4661   31.2755   34.3216 O   0  0  0  0  0  0  0  0  0  0  0  0
   20.5763   29.0533   35.2019 C   0  0  0  0  0  0  0  0  0  0  0  0
   19.8127   29.0086   36.5129 C   0  0  2  0  0  0  0  0  0  0  0  0
   17.2961   26.1775   40.0356 N   0  0  0  0  0  0  0  0  0  0  0  0
   17.3514   27.5186   39.8515 C   0  0  2  0  0  0  0  0  0  0  0  0
   16.6619   28.3435   40.6675 N   0  0  0  0  0  0  0  0  0  0  0  0
   18.0853   28.0668   38.8601 N   0  0  0  0  0  0  0  0  0  0  0  0
   18.7986   27.3043   38.0069 C   0  0  1  0  0  0  0  0  0  0  0  0
   18.7938   25.9345   38.1365 C   0  0  1  0  0  0  0  0  0  0  0  0
   17.9819   25.3430   39.2286 C   0  0  0  0  0  0  0  0  0  0  0  0
   17.9393   24.1046   39.3993 O   0  0  0  0  0  0  0  0  0  0  0  0
   19.5768   25.4297   37.1678 N   0  0  0  0  0  0  0  0  0  0  0  0
   20.0537   26.4779   36.4574 C   0  0  0  0  0  0  0  0  0  0  0  0
   19.5703   27.6170   36.9785 N   0  0  1  0  0  0  0  0  0  0  0  0
  1  2  1  0  0  0  0
  3  1  1  6  0  0  0
  3  4  1  0  0  0  0
  3  5  1  0  0  0  0
  5  6  1  1  0  0  0
  5  7  1  0  0  0  0
  7  8  1  0  0  0  0
  8  4  1  6  0  0  0
  8 19  1  0  0  0  0
  9 15  1  0  0  0  0
  9 10  1  0  0  0  0
 10 11  1  6  0  0  0
 10 12  1  0  0  0  0
 13 12  1  6  0  0  0
 13 14  1  0  0  0  0
 13 19  1  0  0  0  0
 14 15  1  6  0  0  0
 14 17  1  0  0  0  0
 15 16  2  0  0  0  0
 17 18  1  0  0  0  0
 19 18  1  6  0  0  0
M  END
>  <CHROM.1>
-59.44843427,-52.29377910,18.66026442,27.88969214,37.03483115,1.14457004
0.98268216,-0.52846730

>  <Name>
ligand

>  <RI>
0

>  <Rbt.Current_Directory>
/home/itssahil/PROJECTS/Mol_Feturizer/New_Systems/rnas/3SKL

>  <Rbt.Executable>
rbdock ($Id: //depot/dev/client3/rdock/2013.1/src/exe/rbdock.cxx#4 $)

>  <Rbt.Library>
libRbt.so (2013.1, Build901 2013/11/27)

>  <Rbt.Parameter_File>
/export/apps/rDock/src/rDock_2013.1_src/data/scripts/dock_solv.prm

>  <Rbt.Receptor>
prm/pocket_docking_6.prm

>  <SCORE>
-17.3044

>  <SCORE.INTER>
-17.2382

>  <SCORE.INTER.CONST>
1

>  <SCORE.INTER.POLAR>
0

>  <SCORE.INTER.ROT>
2

>  <SCORE.INTER.SOLV>
17.8766

>  <SCORE.INTER.VDW>
-22.3844

>  <SCORE.INTER.norm>
-0.907275

>  <SCORE.INTRA>
-0.066192

>  <SCORE.INTRA.DIHEDRAL>
-0.287632

>  <SCORE.INTRA.DIHEDRAL.0>
1.50031

>  <SCORE.INTRA.POLAR>
0

>  <SCORE.INTRA.POLAR.0>
0

>  <SCORE.INTRA.REPUL>
0

>  <SCORE.INTRA.REPUL.0>
0

>  <SCORE.INTRA.SOLV>
-0.00590684

>  <SCORE.INTRA.SOLV.lig_0>
-37.9941

>  <SCORE.INTRA.VDW>
0.0805774

>  <SCORE.INTRA.VDW.0>
-0.964461

>  <SCORE.INTRA.norm>
-0.00348379

>  <SCORE.RESTR>
0

>  <SCORE.RESTR.CAVITY>
0

>  <SCORE.RESTR.norm>
0

>  <SCORE.SYSTEM>
0

>  <SCORE.SYSTEM.CONST>
0

>  <SCORE.SYSTEM.DIHEDRAL>
0

>  <SCORE.SYSTEM.SOLV>
0

>  <SCORE.SYSTEM.norm>
0

>  <SCORE.heavy>
19

>  <SCORE.norm>
-0.910759

>  <RMSD>
0.964

$$$$
ligand
 OpenBabel11021811483D
libRbt.so/2013.1/901 2013/11/27
 19 21  0  0  0  0  0  0  0  0999 V2000
   17.2043   29.4251   34.3590 C   0  0  0  0  0  0  0  0  0  0  0  0
   17.3131   27.9923   34.2975 O   0  0  0  0  0  0  0  0  0  0  0  0
   18.4569   30.0520   34.9803 C   0  0  1  0  0  0  0  0  0  0  0  0
   18.6627   29.5554   36.3026 O   0  0  0  0  0  0  0  0  0  0  0  0
   19.7065   29.7241   34.1854 C   0  0  1  0  0  0  0  0  0  0  0  0
   20.4785   30.9178   34.0471 O   0  0  0  0  0  0  0  0  0  0  0  0
   20.4910   28.7256   35.0061 C   0  0  0  0  0  0  0  0  0  0  0  0
   19.8783   28.7955   36.3930 C   0  0  2  0  0  0  0  0  0  0  0  0
   17.2538   26.3142   40.0961 N   0  0  0  0  0  0  0  0  0  0  0  0
   17.3772   27.6373   39.8321 C   0  0  2  0  0  0  0  0  0  0  0  0
   16.7404   28.5442   40.6026 N   0  0  0  0  0  0  0  0  0  0  0  0
   18.1285   28.0865   38.8046 N   0  0  0  0  0  0  0  0  0  0  0  0
   18.7920   27.2383   37.9931 C   0  0  1  0  0  0  0  0  0  0  0  0
   18.7169   25.8807   38.2040 C   0  0  1  0  0  0  0  0  0  0  0  0
   17.8866   25.3984   39.3352 C   0  0  0  0  0  0  0  0  0  0  0  0
   17.7810   24.1762   39.5796 O   0  0  0  0  0  0  0  0  0  0  0  0
   19.4623   25.2789   37.2614 N   0  0  0  0  0  0  0  0  0  0  0  0
   19.9859   26.2567   36.4864 C   0  0  0  0  0  0  0  0  0  0  0  0
   19.5682   27.4486   36.9423 N   0  0  1  0  0  0  0  0  0  0  0  0
  1  2  1  0  0  0  0
  3  1  1  6  0  0  0
  3  4  1  0  0  0  0
  3  5  1  0  0  0  0
  5  6  1  1  0  0  0
  5  7  1  0  0  0  0
  7  8  1  0  0  0  0
  8  4  1  6  0  0  0
  8 19  1  0  0  0  0
  9 15  1  0  0  0  0
  9 10  1  0  0  0  0
 10 11  1  6  0  0  0
 10 12  1  0  0  0  0
 13 12  1  6  0  0  0
 13 14  1  0  0  0  0
 13 19  1  0  0  0  0
 14 15  1  6  0  0  0
 14 17  1  0  0  0  0
 15 16  2  0  0  0  0
 17 18  1  0  0  0  0
 19 18  1  6  0  0  0
M  END
>  <CHROM.1>
-59.30332708,-45.95628117,18.61810993,27.80164274,37.03070784,1.15537595
0.95124452,-0.59171066

>  <Name>
ligand

>  <RI>
0

>  <Rbt.Current_Directory>
/home/itssahil/PROJECTS/Mol_Feturizer/New_Systems/rnas/3SKL

>  <Rbt.Executable>
rbdock ($Id: //depot/dev/client3/rdock/2013.1/src/exe/rbdock.cxx#4 $)

>  <Rbt.Library>
libRbt.so (2013.1, Build901 2013/11/27)

>  <Rbt.Parameter_File>
/export/apps/rDock/src/rDock_2013.1_src/data/scripts/dock_solv.prm

>  <Rbt.Receptor>
prm/pocket_docking_2.prm

>  <SCORE>
-17.1631

>  <SCORE.INTER>
-17.0682

>  <SCORE.INTER.CONST>
1

>  <SCORE.INTER.POLAR>
0

>  <SCORE.INTER.ROT>
2

>  <SCORE.INTER.SOLV>
17.7834

>  <SCORE.INTER.VDW>
-22.2399

>  <SCORE.INTER.norm>
-0.898325

>  <SCORE.INTRA>
-0.0948939

>  <SCORE.INTRA.DIHEDRAL>
-0.279906

>  <SCORE.INTRA.DIHEDRAL.0>
1.50031

>  <SCORE.INTRA.POLAR>
0

>  <SCORE.INTRA.POLAR.0>
0

>  <SCORE.INTRA.REPUL>
0

>  <SCORE.INTRA.REPUL.0>
0

>  <SCORE.INTRA.SOLV>
-0.0113102

>  <SCORE.INTRA.SOLV.lig_0>
-37.9941

>  <SCORE.INTRA.VDW>
0.0507143

>  <SCORE.INTRA.VDW.0>
-0.964461

>  <SCORE.INTRA.norm>
-0.00499442

>  <SCORE.RESTR>
0

>  <SCORE.RESTR.CAVITY>
0

>  <SCORE.RESTR.norm>
0

>  <SCORE.SYSTEM>
0

>  <SCORE.SYSTEM.CONST>
0

>  <SCORE.SYSTEM.DIHEDRAL>
0

>  <SCORE.SYSTEM.SOLV>
0

>  <SCORE.SYSTEM.norm>
0

>  <SCORE.heavy>
19

>  <SCORE.norm>
-0.903319

>  <RMSD>
0.965

$$$$
ligand
 OpenBabel11021811483D
libRbt.so/2013.1/901 2013/11/27
 19 21  0  0  0  0  0  0  0  0999 V2000
   17.1718   29.4386   34.3437 C   0  0  0  0  0  0  0  0  0  0  0  0
   17.2970   28.0067   34.2923 O   0  0  0  0  0  0  0  0  0  0  0  0
   18.4114   30.0832   34.9727 C   0  0  1  0  0  0  0  0  0  0  0  0
   18.6358   29.5642   36.2833 O   0  0  0  0  0  0  0  0  0  0  0  0
   19.6650   29.8033   34.1658 C   0  0  1  0  0  0  0  0  0  0  0  0
   20.4065   31.0183   34.0494 O   0  0  0  0  0  0  0  0  0  0  0  0
   20.4778   28.8075   34.9618 C   0  0  0  0  0  0  0  0  0  0  0  0
   19.8702   28.8329   36.3525 C   0  0  2  0  0  0  0  0  0  0  0  0
   17.3270   26.2100   40.0144 N   0  0  0  0  0  0  0  0  0  0  0  0
   17.4165   27.5410   39.7780 C   0  0  2  0  0  0  0  0  0  0  0  0
   16.7616   28.4154   40.5706 N   0  0  0  0  0  0  0  0  0  0  0  0
   18.1510   28.0302   38.7567 N   0  0  0  0  0  0  0  0  0  0  0  0
   18.8310   27.2160   37.9243 C   0  0  1  0  0  0  0  0  0  0  0  0
   18.7903   25.8528   38.1066 C   0  0  1  0  0  0  0  0  0  0  0  0
   17.9781   25.3264   39.2312 C   0  0  0  0  0  0  0  0  0  0  0  0
   17.9039   24.0971   39.4501 O   0  0  0  0  0  0  0  0  0  0  0  0
   19.5454   25.2897   37.1479 N   0  0  0  0  0  0  0  0  0  0  0  0
   20.0407   26.2962   36.3914 C   0  0  0  0  0  0  0  0  0  0  0  0
   19.5963   27.4675   36.8745 N   0  0  1  0  0  0  0  0  0  0  0  0
  1  2  1  0  0  0  0
  3  1  1  6  0  0  0
  3  4  1  0  0  0  0
  3  5  1  0  0  0  0
  5  6  1  1  0  0  0
  5  7  1  0  0  0  0
  7  8  1  0  0  0  0
  8  4  1  6  0  0  0
  8 19  1  0  0  0  0
  9 15  1  0  0  0  0
  9 10  1  0  0  0  0
 10 11  1  6  0  0  0
 10 12  1  0  0  0  0
 13 12  1  6  0  0  0
 13 14  1  0  0  0  0
 13 19  1  0  0  0  0
 14 15  1  6  0  0  0
 14 17  1  0  0  0  0
 15 16  2  0  0  0  0
 17 18  1  0  0  0  0
 19 18  1  6  0  0  0
M  END
>  <CHROM.1>
-57.37485609,-45.98450578,18.63734081,27.79471036,36.97715584,1.19632382
0.93740950,-0.60371229

>  <Name>
ligand

>  <RI>
0

>  <Rbt.Current_Directory>
/home/itssahil/PROJECTS/Mol_Feturizer/New_Systems/rnas/3SKL

>  <Rbt.Executable>
rbdock ($Id: //depot/dev/client3/rdock/2013.1/src/exe/rbdock.cxx#4 $)

>  <Rbt.Library>
libRbt.so (2013.1, Build901 2013/11/27)

>  <Rbt.Parameter_File>
/export/apps/rDock/src/rDock_2013.1_src/data/scripts/dock_solv.prm

>  <Rbt.Receptor>
prm/pocket_docking_2.prm

>  <SCORE>
-17.1825

>  <SCORE.INTER>
-17.0833

>  <SCORE.INTER.CONST>
1

>  <SCORE.INTER.POLAR>
0

>  <SCORE.INTER.ROT>
2

>  <SCORE.INTER.SOLV>
17.4973

>  <SCORE.INTER.VDW>
-22.1546

>  <SCORE.INTER.norm>
-0.899122

>  <SCORE.INTRA>
-0.0992287

>  <SCORE.INTRA.DIHEDRAL>
-0.256226

>  <SCORE.INTRA.DIHEDRAL.0>
1.50031

>  <SCORE.INTRA.POLAR>
0

>  <SCORE.INTRA.POLAR.0>
0

>  <SCORE.INTRA.REPUL>
0

>  <SCORE.INTRA.REPUL.0>
0

>  <SCORE.INTRA.SOLV>
-0.00767597

>  <SCORE.INTRA.SOLV.lig_0>
-37.9941

>  <SCORE.INTRA.VDW>
0.0327223

>  <SCORE.INTRA.VDW.0>
-0.964461

>  <SCORE.INTRA.norm>
-0.00522256

>  <SCORE.RESTR>
0

>  <SCORE.RESTR.CAVITY>
0

>  <SCORE.RESTR.norm>
0

>  <SCORE.SYSTEM>
0

>  <SCORE.SYSTEM.CONST>
0

>  <SCORE.SYSTEM.DIHEDRAL>
0

>  <SCORE.SYSTEM.SOLV>
0

>  <SCORE.SYSTEM.norm>
0

>  <SCORE.heavy>
19

>  <SCORE.norm>
-0.904344

>  <RMSD>
0.971

$$$$
ligand
 OpenBabel11021811483D
libRbt.so/2013.1/901 2013/11/27
 19 21  0  0  0  0  0  0  0  0999 V2000
   17.2106   29.4325   34.3682 C   0  0  0  0  0  0  0  0  0  0  0  0
   17.3263   28.0015   34.2816 O   0  0  0  0  0  0  0  0  0  0  0  0
   18.4628   30.0550   34.9946 C   0  0  1  0  0  0  0  0  0  0  0  0
   18.6616   29.5575   36.3177 O   0  0  0  0  0  0  0  0  0  0  0  0
   19.7145   29.7229   34.2047 C   0  0  1  0  0  0  0  0  0  0  0  0
   20.4912   30.9139   34.0697 O   0  0  0  0  0  0  0  0  0  0  0  0
   20.4922   28.7215   35.0284 C   0  0  0  0  0  0  0  0  0  0  0  0
   19.8742   28.7933   36.4128 C   0  0  2  0  0  0  0  0  0  0  0  0
   17.2114   26.3193   40.0934 N   0  0  0  0  0  0  0  0  0  0  0  0
   17.3389   27.6420   39.8290 C   0  0  2  0  0  0  0  0  0  0  0  0
   16.6957   28.5505   40.5924 N   0  0  0  0  0  0  0  0  0  0  0  0
   18.1004   28.0891   38.8083 N   0  0  0  0  0  0  0  0  0  0  0  0
   18.7708   27.2392   38.0042 C   0  0  1  0  0  0  0  0  0  0  0  0
   18.6920   25.8820   38.2159 C   0  0  1  0  0  0  0  0  0  0  0  0
   17.8504   25.4020   39.3396 C   0  0  0  0  0  0  0  0  0  0  0  0
   17.7410   24.1802   39.5844 O   0  0  0  0  0  0  0  0  0  0  0  0
   19.4458   25.2783   37.2812 N   0  0  0  0  0  0  0  0  0  0  0  0
   19.9780   26.2545   36.5101 C   0  0  0  0  0  0  0  0  0  0  0  0
   19.5573   27.4474   36.9607 N   0  0  1  0  0  0  0  0  0  0  0  0
  1  2  1  0  0  0  0
  3  1  1  6  0  0  0
  3  4  1  0  0  0  0
  3  5  1  0  0  0  0
  5  6  1  1  0  0  0
  5  7  1  0  0  0  0
  7  8  1  0  0  0  0
  8  4  1  6  0  0  0
  8 19  1  0  0  0  0
  9 15  1  0  0  0  0
  9 10  1  0  0  0  0
 10 11  1  6  0  0  0
 10 12  1  0  0  0  0
 13 12  1  6  0  0  0
 13 14  1  0  0  0  0
 13 19  1  0  0  0  0
 14 15  1  6  0  0  0
 14 17  1  0  0  0  0
 15 16  2  0  0  0  0
 17 18  1  0  0  0  0
 19 18  1  6  0  0  0
M  END
>  <CHROM.1>
-60.49720360,-45.60207881,18.60451035,27.80355084,37.04044987,1.14746225
0.94312294,-0.58600016

>  <Name>
ligand

>  <RI>
0

>  <Rbt.Current_Directory>
/home/itssahil/PROJECTS/Mol_Feturizer/New_Systems/rnas/3SKL

>  <Rbt.Executable>
rbdock ($Id: //depot/dev/client3/rdock/2013.1/src/exe/rbdock.cxx#4 $)

>  <Rbt.Library>
libRbt.so (2013.1, Build901 2013/11/27)

>  <Rbt.Parameter_File>
/export/apps/rDock/src/rDock_2013.1_src/data/scripts/dock_solv.prm

>  <Rbt.Receptor>
prm/pocket_docking_2.prm

>  <SCORE>
-17.1967

>  <SCORE.INTER>
-17.1115

>  <SCORE.INTER.CONST>
1

>  <SCORE.INTER.POLAR>
0

>  <SCORE.INTER.ROT>
2

>  <SCORE.INTER.SOLV>
17.9254

>  <SCORE.INTER.VDW>
-22.3161

>  <SCORE.INTER.norm>
-0.900605

>  <SCORE.INTRA>
-0.0852493

>  <SCORE.INTRA.DIHEDRAL>
-0.280783

>  <SCORE.INTRA.DIHEDRAL.0>
1.50031

>  <SCORE.INTRA.POLAR>
0

>  <SCORE.INTRA.POLAR.0>
0

>  <SCORE.INTRA.REPUL>
0

>  <SCORE.INTRA.REPUL.0>
0

>  <SCORE.INTRA.SOLV>
-0.0141962

>  <SCORE.INTRA.SOLV.lig_0>
-37.9941

>  <SCORE.INTRA.VDW>
0.0622404

>  <SCORE.INTRA.VDW.0>
-0.964461

>  <SCORE.INTRA.norm>
-0.00448681

>  <SCORE.RESTR>
0

>  <SCORE.RESTR.CAVITY>
0

>  <SCORE.RESTR.norm>
0

>  <SCORE.SYSTEM>
0

>  <SCORE.SYSTEM.CONST>
0

>  <SCORE.SYSTEM.DIHEDRAL>
0

>  <SCORE.SYSTEM.SOLV>
0

>  <SCORE.SYSTEM.norm>
0

>  <SCORE.heavy>
19

>  <SCORE.norm>
-0.905092

>  <RMSD>
0.972

$$$$
ligand
 OpenBabel11021811483D
libRbt.so/2013.1/901 2013/11/27
 19 21  0  0  0  0  0  0  0  0999 V2000
   17.5067   29.5156   33.9279 C   0  0  0  0  0  0  0  0  0  0  0  0
   17.8094   28.1105   33.8769 O   0  0  0  0  0  0  0  0  0  0  0  0
   18.4866   30.2631   34.8384 C   0  0  1  0  0  0  0  0  0  0  0  0
   18.5141   29.6722   36.1374 O   0  0  0  0  0  0  0  0  0  0  0  0
   19.9044   30.2169   34.3014 C   0  0  1  0  0  0  0  0  0  0  0  0
   20.4699   31.5240   34.4093 O   0  0  0  0  0  0  0  0  0  0  0  0
   20.6753   29.2741   35.1976 C   0  0  0  0  0  0  0  0  0  0  0  0
   19.8019   29.1056   36.4275 C   0  0  2  0  0  0  0  0  0  0  0  0
   17.6726   25.9601   39.9389 N   0  0  0  0  0  0  0  0  0  0  0  0
   17.6858   27.3121   39.8523 C   0  0  2  0  0  0  0  0  0  0  0  0
   17.0591   28.0570   40.7873 N   0  0  0  0  0  0  0  0  0  0  0  0
   18.3152   27.9502   38.8431 N   0  0  0  0  0  0  0  0  0  0  0  0
   18.9612   27.2708   37.8738 C   0  0  1  0  0  0  0  0  0  0  0  0
   18.9936   25.8956   37.8995 C   0  0  1  0  0  0  0  0  0  0  0  0
   18.2967   25.2049   39.0124 C   0  0  0  0  0  0  0  0  0  0  0  0
   18.2929   23.9566   39.0923 O   0  0  0  0  0  0  0  0  0  0  0  0
   19.6936   25.4834   36.8287 N   0  0  0  0  0  0  0  0  0  0  0  0
   20.0836   26.5928   36.1593 C   0  0  0  0  0  0  0  0  0  0  0  0
   19.6291   27.6778   36.8066 N   0  0  1  0  0  0  0  0  0  0  0  0
  1  2  1  0  0  0  0
  3  1  1  6  0  0  0
  3  4  1  0  0  0  0
  3  5  1  0  0  0  0
  5  6  1  1  0  0  0
  5  7  1  0  0  0  0
  7  8  1  0  0  0  0
  8  4  1  6  0  0  0
  8 19  1  0  0  0  0
  9 15  1  0  0  0  0
  9 10  1  0  0  0  0
 10 11  1  6  0  0  0
 10 12  1  0  0  0  0
 13 12  1  6  0  0  0
 13 14  1  0  0  0  0
 13 19  1  0  0  0  0
 14 15  1  6  0  0  0
 14 17  1  0  0  0  0
 15 16  2  0  0  0  0
 17 18  1  0  0  0  0
 19 18  1  6  0  0  0
M  END
>  <CHROM.1>
-54.73539188,-63.41008361,18.82718032,27.88920119,36.89932362,-1.07712649
-1.16865523,2.74446759

>  <Name>
ligand

>  <RI>
0

>  <Rbt.Current_Directory>
/home/itssahil/PROJECTS/Mol_Feturizer/New_Systems/rnas/3SKL

>  <Rbt.Executable>
rbdock ($Id: //depot/dev/client3/rdock/2013.1/src/exe/rbdock.cxx#4 $)

>  <Rbt.Library>
libRbt.so (2013.1, Build901 2013/11/27)

>  <Rbt.Parameter_File>
/export/apps/rDock/src/rDock_2013.1_src/data/scripts/dock_solv.prm

>  <Rbt.Receptor>
prm/pocket_docking_5.prm

>  <SCORE>
-17.2657

>  <SCORE.INTER>
-17.2119

>  <SCORE.INTER.CONST>
1

>  <SCORE.INTER.POLAR>
0

>  <SCORE.INTER.ROT>
2

>  <SCORE.INTER.SOLV>
16.7348

>  <SCORE.INTER.VDW>
-21.9862

>  <SCORE.INTER.norm>
-0.905889

>  <SCORE.INTRA>
-0.0538445

>  <SCORE.INTRA.DIHEDRAL>
-0.201981

>  <SCORE.INTRA.DIHEDRAL.0>
1.50031

>  <SCORE.INTRA.POLAR>
0

>  <SCORE.INTRA.POLAR.0>
0

>  <SCORE.INTRA.REPUL>
0

>  <SCORE.INTRA.REPUL.0>
0

>  <SCORE.INTRA.SOLV>
0.0124217

>  <SCORE.INTRA.SOLV.lig_0>
-37.9941

>  <SCORE.INTRA.VDW>
0.0409354

>  <SCORE.INTRA.VDW.0>
-0.964461

>  <SCORE.INTRA.norm>
-0.00283392

>  <SCORE.RESTR>
0

>  <SCORE.RESTR.CAVITY>
0

>  <SCORE.RESTR.norm>
0

>  <SCORE.SYSTEM>
0

>  <SCORE.SYSTEM.CONST>
0

>  <SCORE.SYSTEM.DIHEDRAL>
0

>  <SCORE.SYSTEM.SOLV>
0

>  <SCORE.SYSTEM.norm>
0

>  <SCORE.heavy>
19

>  <SCORE.norm>
-0.908723

>  <RMSD>
0.973

$$$$
ligand
 OpenBabel11021811483D
libRbt.so/2013.1/901 2013/11/27
 19 21  0  0  0  0  0  0  0  0999 V2000
   17.5173   29.5224   33.9180 C   0  0  0  0  0  0  0  0  0  0  0  0
   17.8091   28.1149   33.8694 O   0  0  0  0  0  0  0  0  0  0  0  0
   18.5080   30.2652   34.8206 C   0  0  1  0  0  0  0  0  0  0  0  0
   18.5414   29.6755   36.1201 O   0  0  0  0  0  0  0  0  0  0  0  0
   19.9218   30.2099   34.2736 C   0  0  1  0  0  0  0  0  0  0  0  0
   20.4956   31.5138   34.3759 O   0  0  0  0  0  0  0  0  0  0  0  0
   20.6934   29.2636   35.1653 C   0  0  0  0  0  0  0  0  0  0  0  0
   19.8278   29.1017   36.4016 C   0  0  2  0  0  0  0  0  0  0  0  0
   17.7054   25.9727   39.9318 N   0  0  0  0  0  0  0  0  0  0  0  0
   17.7260   27.3245   39.8437 C   0  0  2  0  0  0  0  0  0  0  0  0
   17.1104   28.0741   40.7822 N   0  0  0  0  0  0  0  0  0  0  0  0
   18.3518   27.9577   38.8291 N   0  0  0  0  0  0  0  0  0  0  0  0
   18.9867   27.2735   37.8561 C   0  0  1  0  0  0  0  0  0  0  0  0
   19.0113   25.8981   37.8830 C   0  0  1  0  0  0  0  0  0  0  0  0
   18.3183   25.2128   39.0018 C   0  0  0  0  0  0  0  0  0  0  0  0
   18.3077   23.9646   39.0831 O   0  0  0  0  0  0  0  0  0  0  0  0
   19.7010   25.4806   36.8077 N   0  0  0  0  0  0  0  0  0  0  0  0
   20.0927   26.5869   36.1343 C   0  0  0  0  0  0  0  0  0  0  0  0
   19.6493   27.6754   36.7835 N   0  0  1  0  0  0  0  0  0  0  0  0
  1  2  1  0  0  0  0
  3  1  1  6  0  0  0
  3  4  1  0  0  0  0
  3  5  1  0  0  0  0
  5  6  1  1  0  0  0
  5  7  1  0  0  0  0
  7  8  1  0  0  0  0
  8  4  1  6  0  0  0
  8 19  1  0  0  0  0
  9 15  1  0  0  0  0
  9 10  1  0  0  0  0
 10 11  1  6  0  0  0
 10 12  1  0  0  0  0
 13 12  1  6  0  0  0
 13 14  1  0  0  0  0
 13 19  1  0  0  0  0
 14 15  1  6  0  0  0
 14 17  1  0  0  0  0
 15 16  2  0  0  0  0
 17 18  1  0  0  0  0
 19 18  1  6  0  0  0
M  END
>  <CHROM.1>
-54.56829189,-63.41544170,18.84929145,27.89150874,36.88199779,-1.07033063
-1.17742493,2.74965970

>  <Name>
ligand

>  <RI>
0

>  <Rbt.Current_Directory>
/home/itssahil/PROJECTS/Mol_Feturizer/New_Systems/rnas/3SKL

>  <Rbt.Executable>
rbdock ($Id: //depot/dev/client3/rdock/2013.1/src/exe/rbdock.cxx#4 $)

>  <Rbt.Library>
libRbt.so (2013.1, Build901 2013/11/27)

>  <Rbt.Parameter_File>
/export/apps/rDock/src/rDock_2013.1_src/data/scripts/dock_solv.prm

>  <Rbt.Receptor>
prm/pocket_docking_7.prm

>  <SCORE>
-17.2707

>  <SCORE.INTER>
-17.2192

>  <SCORE.INTER.CONST>
1

>  <SCORE.INTER.POLAR>
0

>  <SCORE.INTER.ROT>
2

>  <SCORE.INTER.SOLV>
16.5516

>  <SCORE.INTER.VDW>
-21.93

>  <SCORE.INTER.norm>
-0.906275

>  <SCORE.INTRA>
-0.0515244

>  <SCORE.INTRA.DIHEDRAL>
-0.195561

>  <SCORE.INTRA.DIHEDRAL.0>
1.50031

>  <SCORE.INTRA.POLAR>
0

>  <SCORE.INTRA.POLAR.0>
0

>  <SCORE.INTRA.REPUL>
0

>  <SCORE.INTRA.REPUL.0>
0

>  <SCORE.INTRA.SOLV>
0.0126352

>  <SCORE.INTRA.SOLV.lig_0>
-37.9941

>  <SCORE.INTRA.VDW>
0.0399384

>  <SCORE.INTRA.VDW.0>
-0.964461

>  <SCORE.INTRA.norm>
-0.00271181

>  <SCORE.RESTR>
0

>  <SCORE.RESTR.CAVITY>
0

>  <SCORE.RESTR.norm>
0

>  <SCORE.SYSTEM>
0

>  <SCORE.SYSTEM.CONST>
0

>  <SCORE.SYSTEM.DIHEDRAL>
0

>  <SCORE.SYSTEM.SOLV>
0

>  <SCORE.SYSTEM.norm>
0

>  <SCORE.heavy>
19

>  <SCORE.norm>
-0.908986

>  <RMSD>
0.973

$$$$
ligand
 OpenBabel11021811483D
libRbt.so/2013.1/901 2013/11/27
 19 21  0  0  0  0  0  0  0  0999 V2000
   17.4886   29.5256   33.9399 C   0  0  0  0  0  0  0  0  0  0  0  0
   17.8236   28.1308   33.8355 O   0  0  0  0  0  0  0  0  0  0  0  0
   18.4737   30.2679   34.8491 C   0  0  1  0  0  0  0  0  0  0  0  0
   18.5034   29.6738   36.1466 O   0  0  0  0  0  0  0  0  0  0  0  0
   19.8897   30.2183   34.3076 C   0  0  1  0  0  0  0  0  0  0  0  0
   20.4597   31.5234   34.4167 O   0  0  0  0  0  0  0  0  0  0  0  0
   20.6603   29.2710   35.1991 C   0  0  0  0  0  0  0  0  0  0  0  0
   19.7903   29.1024   36.4313 C   0  0  2  0  0  0  0  0  0  0  0  0
   17.6626   25.9556   39.9425 N   0  0  0  0  0  0  0  0  0  0  0  0
   17.6799   27.3078   39.8591 C   0  0  2  0  0  0  0  0  0  0  0  0
   17.0588   28.0525   40.7979 N   0  0  0  0  0  0  0  0  0  0  0  0
   18.3080   27.9462   38.8492 N   0  0  0  0  0  0  0  0  0  0  0  0
   18.9484   27.2670   37.8762 C   0  0  1  0  0  0  0  0  0  0  0  0
   18.9765   25.8916   37.8985 C   0  0  1  0  0  0  0  0  0  0  0  0
   18.2811   25.2006   39.0122 C   0  0  0  0  0  0  0  0  0  0  0  0
   18.2735   23.9521   39.0891 O   0  0  0  0  0  0  0  0  0  0  0  0
   19.6715   25.4797   36.8243 N   0  0  0  0  0  0  0  0  0  0  0  0
   20.0629   26.5893   36.1563 C   0  0  0  0  0  0  0  0  0  0  0  0
   19.6141   27.6744   36.8076 N   0  0  1  0  0  0  0  0  0  0  0  0
  1  2  1  0  0  0  0
  3  1  1  6  0  0  0
  3  4  1  0  0  0  0
  3  5  1  0  0  0  0
  5  6  1  1  0  0  0
  5  7  1  0  0  0  0
  7  8  1  0  0  0  0
  8  4  1  6  0  0  0
  8 19  1  0  0  0  0
  9 15  1  0  0  0  0
  9 10  1  0  0  0  0
 10 11  1  6  0  0  0
 10 12  1  0  0  0  0
 13 12  1  6  0  0  0
 13 14  1  0  0  0  0
 13 19  1  0  0  0  0
 14 15  1  6  0  0  0
 14 17  1  0  0  0  0
 15 16  2  0  0  0  0
 17 18  1  0  0  0  0
 19 18  1  6  0  0  0
M  END
>  <CHROM.1>
-57.40490564,-63.42467553,18.81560156,27.88875017,36.90049309,-1.06831385
-1.17636932,2.75410501

>  <Name>
ligand

>  <RI>
0

>  <Rbt.Current_Directory>
/home/itssahil/PROJECTS/Mol_Feturizer/New_Systems/rnas/3SKL

>  <Rbt.Executable>
rbdock ($Id: //depot/dev/client3/rdock/2013.1/src/exe/rbdock.cxx#4 $)

>  <Rbt.Library>
libRbt.so (2013.1, Build901 2013/11/27)

>  <Rbt.Parameter_File>
/export/apps/rDock/src/rDock_2013.1_src/data/scripts/dock_solv.prm

>  <Rbt.Receptor>
prm/pocket_docking_7.prm

>  <SCORE>
-17.2377

>  <SCORE.INTER>
-17.1622

>  <SCORE.INTER.CONST>
1

>  <SCORE.INTER.POLAR>
0

>  <SCORE.INTER.ROT>
2

>  <SCORE.INTER.SOLV>
16.7488

>  <SCORE.INTER.VDW>
-21.9578

>  <SCORE.INTER.norm>
-0.903275

>  <SCORE.INTRA>
-0.0754848

>  <SCORE.INTRA.DIHEDRAL>
-0.278066

>  <SCORE.INTRA.DIHEDRAL.0>
1.50031

>  <SCORE.INTRA.POLAR>
0

>  <SCORE.INTRA.POLAR.0>
0

>  <SCORE.INTRA.REPUL>
0

>  <SCORE.INTRA.REPUL.0>
0

>  <SCORE.INTRA.SOLV>
0.00843576

>  <SCORE.INTRA.SOLV.lig_0>
-37.9941

>  <SCORE.INTRA.VDW>
0.0593304

>  <SCORE.INTRA.VDW.0>
-0.964461

>  <SCORE.INTRA.norm>
-0.00397289

>  <SCORE.RESTR>
0

>  <SCORE.RESTR.CAVITY>
0

>  <SCORE.RESTR.norm>
0

>  <SCORE.SYSTEM>
0

>  <SCORE.SYSTEM.CONST>
0

>  <SCORE.SYSTEM.DIHEDRAL>
0

>  <SCORE.SYSTEM.SOLV>
0

>  <SCORE.SYSTEM.norm>
0

>  <SCORE.heavy>
19

>  <SCORE.norm>
-0.907248

>  <RMSD>
0.974

$$$$
ligand
 OpenBabel11021811483D
libRbt.so/2013.1/901 2013/11/27
 19 21  0  0  0  0  0  0  0  0999 V2000
   17.2449   29.4150   34.3705 C   0  0  0  0  0  0  0  0  0  0  0  0
   17.3493   27.9819   34.3060 O   0  0  0  0  0  0  0  0  0  0  0  0
   18.4979   30.0364   34.9964 C   0  0  1  0  0  0  0  0  0  0  0  0
   18.6966   29.5390   36.3195 O   0  0  0  0  0  0  0  0  0  0  0  0
   19.7490   29.7032   34.2062 C   0  0  1  0  0  0  0  0  0  0  0  0
   20.5266   30.8934   34.0707 O   0  0  0  0  0  0  0  0  0  0  0  0
   20.5261   28.7012   35.0297 C   0  0  0  0  0  0  0  0  0  0  0  0
   19.9086   28.7737   36.4143 C   0  0  2  0  0  0  0  0  0  0  0  0
   17.2287   26.3013   40.0836 N   0  0  0  0  0  0  0  0  0  0  0  0
   17.3556   27.6238   39.8179 C   0  0  2  0  0  0  0  0  0  0  0  0
   16.7067   28.5325   40.5761 N   0  0  0  0  0  0  0  0  0  0  0  0
   18.1223   28.0705   38.8007 N   0  0  0  0  0  0  0  0  0  0  0  0
   18.7986   27.2204   38.0019 C   0  0  1  0  0  0  0  0  0  0  0  0
   18.7208   25.8634   38.2153 C   0  0  1  0  0  0  0  0  0  0  0  0
   17.8734   25.3838   39.3349 C   0  0  0  0  0  0  0  0  0  0  0  0
   17.7646   24.1622   39.5810 O   0  0  0  0  0  0  0  0  0  0  0  0
   19.4808   25.2594   37.2858 N   0  0  0  0  0  0  0  0  0  0  0  0
   20.0158   26.2353   36.5163 C   0  0  0  0  0  0  0  0  0  0  0  0
   19.5907   27.4282   36.9625 N   0  0  1  0  0  0  0  0  0  0  0  0
  1  2  1  0  0  0  0
  3  1  1  6  0  0  0
  3  4  1  0  0  0  0
  3  5  1  0  0  0  0
  5  6  1  1  0  0  0
  5  7  1  0  0  0  0
  7  8  1  0  0  0  0
  8  4  1  6  0  0  0
  8 19  1  0  0  0  0
  9 15  1  0  0  0  0
  9 10  1  0  0  0  0
 10 11  1  6  0  0  0
 10 12  1  0  0  0  0
 13 12  1  6  0  0  0
 13 14  1  0  0  0  0
 13 19  1  0  0  0  0
 14 15  1  6  0  0  0
 14 17  1  0  0  0  0
 15 16  2  0  0  0  0
 17 18  1  0  0  0  0
 19 18  1  6  0  0  0
M  END
>  <CHROM.1>
-59.46408362,-45.21947825,18.63304296,27.78468090,37.04029301,1.14947683
0.93171890,-0.58872196

>  <Name>
ligand

>  <RI>
0

>  <Rbt.Current_Directory>
/home/itssahil/PROJECTS/Mol_Feturizer/New_Systems/rnas/3SKL

>  <Rbt.Executable>
rbdock ($Id: //depot/dev/client3/rdock/2013.1/src/exe/rbdock.cxx#4 $)

>  <Rbt.Library>
libRbt.so (2013.1, Build901 2013/11/27)

>  <Rbt.Parameter_File>
/export/apps/rDock/src/rDock_2013.1_src/data/scripts/dock_solv.prm

>  <Rbt.Receptor>
prm/pocket_docking_2.prm

>  <SCORE>
-17.2169

>  <SCORE.INTER>
-17.1207

>  <SCORE.INTER.CONST>
1

>  <SCORE.INTER.POLAR>
0

>  <SCORE.INTER.ROT>
2

>  <SCORE.INTER.SOLV>
17.8312

>  <SCORE.INTER.VDW>
-22.2909

>  <SCORE.INTER.norm>
-0.901092

>  <SCORE.INTRA>
-0.0961133

>  <SCORE.INTRA.DIHEDRAL>
-0.279957

>  <SCORE.INTRA.DIHEDRAL.0>
1.50031

>  <SCORE.INTRA.POLAR>
0

>  <SCORE.INTRA.POLAR.0>
0

>  <SCORE.INTRA.REPUL>
0

>  <SCORE.INTRA.REPUL.0>
0

>  <SCORE.INTRA.SOLV>
-0.0123276

>  <SCORE.INTRA.SOLV.lig_0>
-37.9941

>  <SCORE.INTRA.VDW>
0.0500291

>  <SCORE.INTRA.VDW.0>
-0.964461

>  <SCORE.INTRA.norm>
-0.0050586

>  <SCORE.RESTR>
0

>  <SCORE.RESTR.CAVITY>
0

>  <SCORE.RESTR.norm>
0

>  <SCORE.SYSTEM>
0

>  <SCORE.SYSTEM.CONST>
0

>  <SCORE.SYSTEM.DIHEDRAL>
0

>  <SCORE.SYSTEM.SOLV>
0

>  <SCORE.SYSTEM.norm>
0

>  <SCORE.heavy>
19

>  <SCORE.norm>
-0.906151

>  <RMSD>
0.977

$$$$
ligand
 OpenBabel11021811483D
libRbt.so/2013.1/901 2013/11/27
 19 21  0  0  0  0  0  0  0  0999 V2000
   17.3663   29.5491   34.1845 C   0  0  0  0  0  0  0  0  0  0  0  0
   17.5963   28.1325   34.0885 O   0  0  0  0  0  0  0  0  0  0  0  0
   18.4930   30.2446   34.9558 C   0  0  1  0  0  0  0  0  0  0  0  0
   18.6207   29.6902   36.2649 O   0  0  0  0  0  0  0  0  0  0  0  0
   19.8356   30.0744   34.2707 C   0  0  1  0  0  0  0  0  0  0  0  0
   20.5036   31.3367   34.2689 O   0  0  0  0  0  0  0  0  0  0  0  0
   20.6296   29.1009   35.1120 C   0  0  0  0  0  0  0  0  0  0  0  0
   19.8876   29.0349   36.4345 C   0  0  2  0  0  0  0  0  0  0  0  0
   17.4024   26.1440   39.9308 N   0  0  0  0  0  0  0  0  0  0  0  0
   17.4508   27.4878   39.7650 C   0  0  2  0  0  0  0  0  0  0  0  0
   16.7622   28.2982   40.5962 N   0  0  0  0  0  0  0  0  0  0  0  0
   18.1770   28.0529   38.7775 N   0  0  0  0  0  0  0  0  0  0  0  0
   18.8890   27.3055   37.9100 C   0  0  1  0  0  0  0  0  0  0  0  0
   18.8908   25.9341   38.0206 C   0  0  1  0  0  0  0  0  0  0  0  0
   18.0874   25.3238   39.1085 C   0  0  0  0  0  0  0  0  0  0  0  0
   18.0511   24.0830   39.2623 O   0  0  0  0  0  0  0  0  0  0  0  0
   19.6708   25.4462   37.0407 N   0  0  0  0  0  0  0  0  0  0  0  0
   20.1392   26.5063   36.3424 C   0  0  0  0  0  0  0  0  0  0  0  0
   19.6537   27.6359   36.8820 N   0  0  1  0  0  0  0  0  0  0  0  0
  1  2  1  0  0  0  0
  3  1  1  6  0  0  0
  3  4  1  0  0  0  0
  3  5  1  0  0  0  0
  5  6  1  1  0  0  0
  5  7  1  0  0  0  0
  7  8  1  0  0  0  0
  8  4  1  6  0  0  0
  8 19  1  0  0  0  0
  9 15  1  0  0  0  0
  9 10  1  0  0  0  0
 10 11  1  6  0  0  0
 10 12  1  0  0  0  0
 13 12  1  6  0  0  0
 13 14  1  0  0  0  0
 13 19  1  0  0  0  0
 14 15  1  6  0  0  0
 14 17  1  0  0  0  0
 15 16  2  0  0  0  0
 17 18  1  0  0  0  0
 19 18  1  6  0  0  0
M  END
>  <CHROM.1>
-57.94212664,-51.62400557,18.73544097,27.90587049,36.95304209,1.16722286
0.97421387,-0.53298106

>  <Name>
ligand

>  <RI>
0

>  <Rbt.Current_Directory>
/home/itssahil/PROJECTS/Mol_Feturizer/New_Systems/rnas/3SKL

>  <Rbt.Executable>
rbdock ($Id: //depot/dev/client3/rdock/2013.1/src/exe/rbdock.cxx#4 $)

>  <Rbt.Library>
libRbt.so (2013.1, Build901 2013/11/27)

>  <Rbt.Parameter_File>
/export/apps/rDock/src/rDock_2013.1_src/data/scripts/dock_solv.prm

>  <Rbt.Receptor>
prm/pocket_docking_3.prm

>  <SCORE>
-17.3915

>  <SCORE.INTER>
-17.3199

>  <SCORE.INTER.CONST>
1

>  <SCORE.INTER.POLAR>
0

>  <SCORE.INTER.ROT>
2

>  <SCORE.INTER.SOLV>
17.4139

>  <SCORE.INTER.VDW>
-22.2846

>  <SCORE.INTER.norm>
-0.911575

>  <SCORE.INTRA>
-0.071561

>  <SCORE.INTRA.DIHEDRAL>
-0.272172

>  <SCORE.INTRA.DIHEDRAL.0>
1.50031

>  <SCORE.INTRA.POLAR>
0

>  <SCORE.INTRA.POLAR.0>
0

>  <SCORE.INTRA.REPUL>
0

>  <SCORE.INTRA.REPUL.0>
0

>  <SCORE.INTRA.SOLV>
-0.00357795

>  <SCORE.INTRA.SOLV.lig_0>
-37.9941

>  <SCORE.INTRA.VDW>
0.0663141

>  <SCORE.INTRA.VDW.0>
-0.964461

>  <SCORE.INTRA.norm>
-0.00376637

>  <SCORE.RESTR>
0

>  <SCORE.RESTR.CAVITY>
0

>  <SCORE.RESTR.norm>
0

>  <SCORE.SYSTEM>
0

>  <SCORE.SYSTEM.CONST>
0

>  <SCORE.SYSTEM.DIHEDRAL>
0

>  <SCORE.SYSTEM.SOLV>
0

>  <SCORE.SYSTEM.norm>
0

>  <SCORE.heavy>
19

>  <SCORE.norm>
-0.915341

>  <RMSD>
0.977

$$$$
ligand
 OpenBabel11021811483D
libRbt.so/2013.1/901 2013/11/27
 19 21  0  0  0  0  0  0  0  0999 V2000
   17.1836   29.4850   34.2920 C   0  0  0  0  0  0  0  0  0  0  0  0
   17.4030   28.0672   34.1900 O   0  0  0  0  0  0  0  0  0  0  0  0
   18.3552   30.1802   34.9935 C   0  0  1  0  0  0  0  0  0  0  0  0
   18.5460   29.6429   36.3021 O   0  0  0  0  0  0  0  0  0  0  0  0
   19.6587   29.9873   34.2420 C   0  0  1  0  0  0  0  0  0  0  0  0
   20.3371   31.2429   34.1873 O   0  0  0  0  0  0  0  0  0  0  0  0
   20.4867   29.0180   35.0548 C   0  0  0  0  0  0  0  0  0  0  0  0
   19.8141   28.9776   36.4149 C   0  0  2  0  0  0  0  0  0  0  0  0
   17.3124   26.1429   39.9453 N   0  0  0  0  0  0  0  0  0  0  0  0
   17.3462   27.4826   39.7463 C   0  0  2  0  0  0  0  0  0  0  0  0
   16.6345   28.3045   40.5462 N   0  0  0  0  0  0  0  0  0  0  0  0
   18.0802   28.0323   38.7559 N   0  0  0  0  0  0  0  0  0  0  0  0
   18.8151   27.2728   37.9185 C   0  0  1  0  0  0  0  0  0  0  0  0
   18.8327   25.9047   38.0637 C   0  0  1  0  0  0  0  0  0  0  0  0
   18.0205   25.3114   39.1545 C   0  0  0  0  0  0  0  0  0  0  0  0
   17.9977   24.0745   39.3390 O   0  0  0  0  0  0  0  0  0  0  0  0
   19.6339   25.4027   37.1084 N   0  0  0  0  0  0  0  0  0  0  0  0
   20.0995   26.4510   36.3907 C   0  0  0  0  0  0  0  0  0  0  0  0
   19.5913   27.5873   36.8941 N   0  0  1  0  0  0  0  0  0  0  0  0
  1  2  1  0  0  0  0
  3  1  1  6  0  0  0
  3  4  1  0  0  0  0
  3  5  1  0  0  0  0
  5  6  1  1  0  0  0
  5  7  1  0  0  0  0
  7  8  1  0  0  0  0
  8  4  1  6  0  0  0
  8 19  1  0  0  0  0
  9 15  1  0  0  0  0
  9 10  1  0  0  0  0
 10 11  1  6  0  0  0
 10 12  1  0  0  0  0
 13 12  1  6  0  0  0
 13 14  1  0  0  0  0
 13 19  1  0  0  0  0
 14 15  1  6  0  0  0
 14 17  1  0  0  0  0
 15 16  2  0  0  0  0
 17 18  1  0  0  0  0
 19 18  1  6  0  0  0
M  END
>  <CHROM.1>
-58.64925485,-47.50532859,18.63074311,27.86241743,36.97046351,1.22004108
0.91104264,-0.59761847

>  <Name>
ligand

>  <RI>
0

>  <Rbt.Current_Directory>
/home/itssahil/PROJECTS/Mol_Feturizer/New_Systems/rnas/3SKL

>  <Rbt.Executable>
rbdock ($Id: //depot/dev/client3/rdock/2013.1/src/exe/rbdock.cxx#4 $)

>  <Rbt.Library>
libRbt.so (2013.1, Build901 2013/11/27)

>  <Rbt.Parameter_File>
/export/apps/rDock/src/rDock_2013.1_src/data/scripts/dock_solv.prm

>  <Rbt.Receptor>
prm/pocket_docking_4.prm

>  <SCORE>
-17.3937

>  <SCORE.INTER>
-17.3173

>  <SCORE.INTER.CONST>
1

>  <SCORE.INTER.POLAR>
0

>  <SCORE.INTER.ROT>
2

>  <SCORE.INTER.SOLV>
17.9152

>  <SCORE.INTER.VDW>
-22.45

>  <SCORE.INTER.norm>
-0.911439

>  <SCORE.INTRA>
-0.0763294

>  <SCORE.INTRA.DIHEDRAL>
-0.276448

>  <SCORE.INTRA.DIHEDRAL.0>
1.50031

>  <SCORE.INTRA.POLAR>
0

>  <SCORE.INTRA.POLAR.0>
0

>  <SCORE.INTRA.REPUL>
0

>  <SCORE.INTRA.REPUL.0>
0

>  <SCORE.INTRA.SOLV>
-0.0085853

>  <SCORE.INTRA.SOLV.lig_0>
-37.9941

>  <SCORE.INTRA.VDW>
0.0661871

>  <SCORE.INTRA.VDW.0>
-0.964461

>  <SCORE.INTRA.norm>
-0.00401734

>  <SCORE.RESTR>
0

>  <SCORE.RESTR.CAVITY>
0

>  <SCORE.RESTR.norm>
0

>  <SCORE.SYSTEM>
0

>  <SCORE.SYSTEM.CONST>
0

>  <SCORE.SYSTEM.DIHEDRAL>
0

>  <SCORE.SYSTEM.SOLV>
0

>  <SCORE.SYSTEM.norm>
0

>  <SCORE.heavy>
19

>  <SCORE.norm>
-0.915456

>  <RMSD>
0.978

$$$$
ligand
 OpenBabel11021811483D
libRbt.so/2013.1/901 2013/11/27
 19 21  0  0  0  0  0  0  0  0999 V2000
   17.3588   29.5523   34.1888 C   0  0  0  0  0  0  0  0  0  0  0  0
   17.5924   28.1379   34.0718 O   0  0  0  0  0  0  0  0  0  0  0  0
   18.4877   30.2404   34.9634 C   0  0  1  0  0  0  0  0  0  0  0  0
   18.6069   29.6862   36.2734 O   0  0  0  0  0  0  0  0  0  0  0  0
   19.8314   30.0601   34.2831 C   0  0  1  0  0  0  0  0  0  0  0  0
   20.5084   31.3177   34.2827 O   0  0  0  0  0  0  0  0  0  0  0  0
   20.6156   29.0817   35.1279 C   0  0  0  0  0  0  0  0  0  0  0  0
   19.8686   29.0220   36.4478 C   0  0  2  0  0  0  0  0  0  0  0  0
   17.3050   26.1478   39.9011 N   0  0  0  0  0  0  0  0  0  0  0  0
   17.3589   27.4909   39.7313 C   0  0  2  0  0  0  0  0  0  0  0  0
   16.6538   28.3054   40.5444 N   0  0  0  0  0  0  0  0  0  0  0  0
   18.1068   28.0513   38.7574 N   0  0  0  0  0  0  0  0  0  0  0  0
   18.8362   27.2996   37.9082 C   0  0  1  0  0  0  0  0  0  0  0  0
   18.8338   25.9286   38.0240 C   0  0  1  0  0  0  0  0  0  0  0  0
   18.0064   25.3236   39.0969 C   0  0  0  0  0  0  0  0  0  0  0  0
   17.9651   24.0835   39.2545 O   0  0  0  0  0  0  0  0  0  0  0  0
   19.6339   25.4360   37.0630 N   0  0  0  0  0  0  0  0  0  0  0  0
   20.1186   26.4927   36.3709 C   0  0  0  0  0  0  0  0  0  0  0  0
   19.6232   27.6250   36.8955 N   0  0  1  0  0  0  0  0  0  0  0  0
  1  2  1  0  0  0  0
  3  1  1  6  0  0  0
  3  4  1  0  0  0  0
  3  5  1  0  0  0  0
  5  6  1  1  0  0  0
  5  7  1  0  0  0  0
  7  8  1  0  0  0  0
  8  4  1  6  0  0  0
  8 19  1  0  0  0  0
  9 15  1  0  0  0  0
  9 10  1  0  0  0  0
 10 11  1  6  0  0  0
 10 12  1  0  0  0  0
 13 12  1  6  0  0  0
 13 14  1  0  0  0  0
 13 19  1  0  0  0  0
 14 15  1  6  0  0  0
 14 17  1  0  0  0  0
 15 16  2  0  0  0  0
 17 18  1  0  0  0  0
 19 18  1  6  0  0  0
M  END
>  <CHROM.1>
-59.08511543,-50.52766222,18.69444030,27.90075399,36.95141343,1.15929289
0.94677727,-0.52982455

>  <Name>
ligand

>  <RI>
0

>  <Rbt.Current_Directory>
/home/itssahil/PROJECTS/Mol_Feturizer/New_Systems/rnas/3SKL

>  <Rbt.Executable>
rbdock ($Id: //depot/dev/client3/rdock/2013.1/src/exe/rbdock.cxx#4 $)

>  <Rbt.Library>
libRbt.so (2013.1, Build901 2013/11/27)

>  <Rbt.Parameter_File>
/export/apps/rDock/src/rDock_2013.1_src/data/scripts/dock_solv.prm

>  <Rbt.Receptor>
prm/pocket_docking_8.prm

>  <SCORE>
-17.4042

>  <SCORE.INTER>
-17.3345

>  <SCORE.INTER.CONST>
1

>  <SCORE.INTER.POLAR>
0

>  <SCORE.INTER.ROT>
2

>  <SCORE.INTER.SOLV>
17.7881

>  <SCORE.INTER.VDW>
-22.419

>  <SCORE.INTER.norm>
-0.912341

>  <SCORE.INTRA>
-0.0697295

>  <SCORE.INTRA.DIHEDRAL>
-0.2835

>  <SCORE.INTRA.DIHEDRAL.0>
1.50031

>  <SCORE.INTRA.POLAR>
0

>  <SCORE.INTRA.POLAR.0>
0

>  <SCORE.INTRA.REPUL>
0

>  <SCORE.INTRA.REPUL.0>
0

>  <SCORE.INTRA.SOLV>
-0.00671784

>  <SCORE.INTRA.SOLV.lig_0>
-37.9941

>  <SCORE.INTRA.VDW>
0.0753793

>  <SCORE.INTRA.VDW.0>
-0.964461

>  <SCORE.INTRA.norm>
-0.00366997

>  <SCORE.RESTR>
0

>  <SCORE.RESTR.CAVITY>
0

>  <SCORE.RESTR.norm>
0

>  <SCORE.SYSTEM>
0

>  <SCORE.SYSTEM.CONST>
0

>  <SCORE.SYSTEM.DIHEDRAL>
0

>  <SCORE.SYSTEM.SOLV>
0

>  <SCORE.SYSTEM.norm>
0

>  <SCORE.heavy>
19

>  <SCORE.norm>
-0.916011

>  <RMSD>
0.979

$$$$
ligand
 OpenBabel11021811483D
libRbt.so/2013.1/901 2013/11/27
 19 21  0  0  0  0  0  0  0  0999 V2000
   17.1912   29.5051   34.3149 C   0  0  0  0  0  0  0  0  0  0  0  0
   17.3715   28.0790   34.2662 O   0  0  0  0  0  0  0  0  0  0  0  0
   18.3747   30.1923   35.0042 C   0  0  1  0  0  0  0  0  0  0  0  0
   18.5689   29.6609   36.3146 O   0  0  0  0  0  0  0  0  0  0  0  0
   19.6708   29.9815   34.2450 C   0  0  1  0  0  0  0  0  0  0  0  0
   20.3618   31.2297   34.1781 O   0  0  0  0  0  0  0  0  0  0  0  0
   20.4944   29.0085   35.0580 C   0  0  0  0  0  0  0  0  0  0  0  0
   19.8309   28.9832   36.4229 C   0  0  2  0  0  0  0  0  0  0  0  0
   17.3438   26.1978   40.0025 N   0  0  0  0  0  0  0  0  0  0  0  0
   17.3920   27.5360   39.7965 C   0  0  2  0  0  0  0  0  0  0  0  0
   16.7026   28.3708   40.6025 N   0  0  0  0  0  0  0  0  0  0  0  0
   18.1188   28.0715   38.7930 N   0  0  0  0  0  0  0  0  0  0  0  0
   18.8316   27.2986   37.9489 C   0  0  1  0  0  0  0  0  0  0  0  0
   18.8337   25.9311   38.1005 C   0  0  1  0  0  0  0  0  0  0  0  0
   18.0297   25.3535   39.2057 C   0  0  0  0  0  0  0  0  0  0  0  0
   17.9936   24.1179   39.3965 O   0  0  0  0  0  0  0  0  0  0  0  0
   19.6145   25.4143   37.1363 N   0  0  0  0  0  0  0  0  0  0  0  0
   20.0832   26.4531   36.4069 C   0  0  0  0  0  0  0  0  0  0  0  0
   19.5970   27.5982   36.9119 N   0  0  1  0  0  0  0  0  0  0  0  0
  1  2  1  0  0  0  0
  3  1  1  6  0  0  0
  3  4  1  0  0  0  0
  3  5  1  0  0  0  0
  5  6  1  1  0  0  0
  5  7  1  0  0  0  0
  7  8  1  0  0  0  0
  8  4  1  6  0  0  0
  8 19  1  0  0  0  0
  9 15  1  0  0  0  0
  9 10  1  0  0  0  0
 10 11  1  6  0  0  0
 10 12  1  0  0  0  0
 13 12  1  6  0  0  0
 13 14  1  0  0  0  0
 13 19  1  0  0  0  0
 14 15  1  6  0  0  0
 14 17  1  0  0  0  0
 15 16  2  0  0  0  0
 17 18  1  0  0  0  0
 19 18  1  6  0  0  0
M  END
>  <CHROM.1>
-56.41617800,-47.96502549,18.64396731,27.88396598,37.00037668,1.21274568
0.92971109,-0.59702198

>  <Name>
ligand

>  <RI>
0

>  <Rbt.Current_Directory>
/home/itssahil/PROJECTS/Mol_Feturizer/New_Systems/rnas/3SKL

>  <Rbt.Executable>
rbdock ($Id: //depot/dev/client3/rdock/2013.1/src/exe/rbdock.cxx#4 $)

>  <Rbt.Library>
libRbt.so (2013.1, Build901 2013/11/27)

>  <Rbt.Parameter_File>
/export/apps/rDock/src/rDock_2013.1_src/data/scripts/dock_solv.prm

>  <Rbt.Receptor>
prm/pocket_docking_3.prm

>  <SCORE>
-17.3783

>  <SCORE.INTER>
-17.2886

>  <SCORE.INTER.CONST>
1

>  <SCORE.INTER.POLAR>
0

>  <SCORE.INTER.ROT>
2

>  <SCORE.INTER.SOLV>
17.7916

>  <SCORE.INTER.VDW>
-22.3896

>  <SCORE.INTER.norm>
-0.909924

>  <SCORE.INTRA>
-0.0897835

>  <SCORE.INTRA.DIHEDRAL>
-0.236552

>  <SCORE.INTRA.DIHEDRAL.0>
1.50031

>  <SCORE.INTRA.POLAR>
0

>  <SCORE.INTRA.POLAR.0>
0

>  <SCORE.INTRA.REPUL>
0

>  <SCORE.INTRA.REPUL.0>
0

>  <SCORE.INTRA.SOLV>
-0.00430176

>  <SCORE.INTRA.SOLV.lig_0>
-37.9941

>  <SCORE.INTRA.VDW>
0.0306432

>  <SCORE.INTRA.VDW.0>
-0.964461

>  <SCORE.INTRA.norm>
-0.00472545

>  <SCORE.RESTR>
0

>  <SCORE.RESTR.CAVITY>
0

>  <SCORE.RESTR.norm>
0

>  <SCORE.SYSTEM>
0

>  <SCORE.SYSTEM.CONST>
0

>  <SCORE.SYSTEM.DIHEDRAL>
0

>  <SCORE.SYSTEM.SOLV>
0

>  <SCORE.SYSTEM.norm>
0

>  <SCORE.heavy>
19

>  <SCORE.norm>
-0.91465

>  <RMSD>
0.981

$$$$
ligand
 OpenBabel11021811483D
libRbt.so/2013.1/901 2013/11/27
 19 21  0  0  0  0  0  0  0  0999 V2000
   17.4269   29.5569   34.0592 C   0  0  0  0  0  0  0  0  0  0  0  0
   17.6624   28.1397   33.9910 O   0  0  0  0  0  0  0  0  0  0  0  0
   18.5021   30.2599   34.8944 C   0  0  1  0  0  0  0  0  0  0  0  0
   18.5888   29.6758   36.1939 O   0  0  0  0  0  0  0  0  0  0  0  0
   19.8762   30.1401   34.2632 C   0  0  1  0  0  0  0  0  0  0  0  0
   20.5114   31.4180   34.3207 O   0  0  0  0  0  0  0  0  0  0  0  0
   20.6588   29.1653   35.1137 C   0  0  0  0  0  0  0  0  0  0  0  0
   19.8638   29.0476   36.4014 C   0  0  2  0  0  0  0  0  0  0  0  0
   17.5477   26.0251   39.9025 N   0  0  0  0  0  0  0  0  0  0  0  0
   17.5934   27.3743   39.7880 C   0  0  2  0  0  0  0  0  0  0  0  0
   16.9515   28.1525   40.6847 N   0  0  0  0  0  0  0  0  0  0  0  0
   18.2707   27.9768   38.7879 N   0  0  0  0  0  0  0  0  0  0  0  0
   18.9344   27.2629   37.8562 C   0  0  1  0  0  0  0  0  0  0  0  0
   18.9360   25.8882   37.9119 C   0  0  1  0  0  0  0  0  0  0  0  0
   18.1865   25.2368   39.0144 C   0  0  0  0  0  0  0  0  0  0  0  0
   18.1527   23.9910   39.1204 O   0  0  0  0  0  0  0  0  0  0  0  0
   19.6629   25.4381   36.8749 N   0  0  0  0  0  0  0  0  0  0  0  0
   20.0997   26.5241   36.1962 C   0  0  0  0  0  0  0  0  0  0  0  0
   19.6471   27.6324   36.8043 N   0  0  1  0  0  0  0  0  0  0  0  0
  1  2  1  0  0  0  0
  3  1  1  6  0  0  0
  3  4  1  0  0  0  0
  3  5  1  0  0  0  0
  5  6  1  1  0  0  0
  5  7  1  0  0  0  0
  7  8  1  0  0  0  0
  8  4  1  6  0  0  0
  8 19  1  0  0  0  0
  9 15  1  0  0  0  0
  9 10  1  0  0  0  0
 10 11  1  6  0  0  0
 10 12  1  0  0  0  0
 13 12  1  6  0  0  0
 13 14  1  0  0  0  0
 13 19  1  0  0  0  0
 14 15  1  6  0  0  0
 14 17  1  0  0  0  0
 15 16  2  0  0  0  0
 17 18  1  0  0  0  0
 19 18  1  6  0  0  0
M  END
>  <CHROM.1>
-55.23459134,-57.27761132,18.78599458,27.88193453,36.89874706,1.12392434
1.08018533,-0.45827263

>  <Name>
ligand

>  <RI>
0

>  <Rbt.Current_Directory>
/home/itssahil/PROJECTS/Mol_Feturizer/New_Systems/rnas/3SKL

>  <Rbt.Executable>
rbdock ($Id: //depot/dev/client3/rdock/2013.1/src/exe/rbdock.cxx#4 $)

>  <Rbt.Library>
libRbt.so (2013.1, Build901 2013/11/27)

>  <Rbt.Parameter_File>
/export/apps/rDock/src/rDock_2013.1_src/data/scripts/dock_solv.prm

>  <Rbt.Receptor>
prm/pocket_docking_5.prm

>  <SCORE>
-17.3607

>  <SCORE.INTER>
-17.303

>  <SCORE.INTER.CONST>
1

>  <SCORE.INTER.POLAR>
0

>  <SCORE.INTER.ROT>
2

>  <SCORE.INTER.SOLV>
17.0064

>  <SCORE.INTER.VDW>
-22.1374

>  <SCORE.INTER.norm>
-0.910682

>  <SCORE.INTRA>
-0.0577119

>  <SCORE.INTRA.DIHEDRAL>
-0.21206

>  <SCORE.INTRA.DIHEDRAL.0>
1.50031

>  <SCORE.INTRA.POLAR>
0

>  <SCORE.INTRA.POLAR.0>
0

>  <SCORE.INTRA.REPUL>
0

>  <SCORE.INTRA.REPUL.0>
0

>  <SCORE.INTRA.SOLV>
0.0060543

>  <SCORE.INTRA.SOLV.lig_0>
-37.9941

>  <SCORE.INTRA.VDW>
0.0452908

>  <SCORE.INTRA.VDW.0>
-0.964461

>  <SCORE.INTRA.norm>
-0.00303747

>  <SCORE.RESTR>
0

>  <SCORE.RESTR.CAVITY>
0

>  <SCORE.RESTR.norm>
0

>  <SCORE.SYSTEM>
0

>  <SCORE.SYSTEM.CONST>
0

>  <SCORE.SYSTEM.DIHEDRAL>
0

>  <SCORE.SYSTEM.SOLV>
0

>  <SCORE.SYSTEM.norm>
0

>  <SCORE.heavy>
19

>  <SCORE.norm>
-0.91372

>  <RMSD>
0.984

$$$$
ligand
 OpenBabel11021811483D
libRbt.so/2013.1/901 2013/11/27
 19 21  0  0  0  0  0  0  0  0999 V2000
   17.5306   29.5588   33.9334 C   0  0  0  0  0  0  0  0  0  0  0  0
   17.8513   28.1605   33.8314 O   0  0  0  0  0  0  0  0  0  0  0  0
   18.5265   30.2935   34.8369 C   0  0  1  0  0  0  0  0  0  0  0  0
   18.5600   29.6983   36.1339 O   0  0  0  0  0  0  0  0  0  0  0  0
   19.9388   30.2344   34.2867 C   0  0  1  0  0  0  0  0  0  0  0  0
   20.5185   31.5353   34.3932 O   0  0  0  0  0  0  0  0  0  0  0  0
   20.7081   29.2810   35.1729 C   0  0  0  0  0  0  0  0  0  0  0  0
   19.8445   29.1177   36.4103 C   0  0  2  0  0  0  0  0  0  0  0  0
   17.7168   25.9834   39.9327 N   0  0  0  0  0  0  0  0  0  0  0  0
   17.7433   27.3355   39.8501 C   0  0  2  0  0  0  0  0  0  0  0  0
   17.1334   28.0839   40.7934 N   0  0  0  0  0  0  0  0  0  0  0  0
   18.3694   27.9702   38.8367 N   0  0  0  0  0  0  0  0  0  0  0  0
   18.9989   27.2872   37.8592 C   0  0  1  0  0  0  0  0  0  0  0  0
   19.0173   25.9116   37.8804 C   0  0  1  0  0  0  0  0  0  0  0  0
   18.3241   25.2247   38.9980 C   0  0  0  0  0  0  0  0  0  0  0  0
   18.3081   23.9763   39.0741 O   0  0  0  0  0  0  0  0  0  0  0  0
   19.7025   25.4956   36.8016 N   0  0  0  0  0  0  0  0  0  0  0  0
   20.0975   26.6029   36.1318 C   0  0  0  0  0  0  0  0  0  0  0  0
   19.6606   27.6906   36.7867 N   0  0  1  0  0  0  0  0  0  0  0  0
  1  2  1  0  0  0  0
  3  1  1  6  0  0  0
  3  4  1  0  0  0  0
  3  5  1  0  0  0  0
  5  6  1  1  0  0  0
  5  7  1  0  0  0  0
  7  8  1  0  0  0  0
  8  4  1  6  0  0  0
  8 19  1  0  0  0  0
  9 15  1  0  0  0  0
  9 10  1  0  0  0  0
 10 11  1  6  0  0  0
 10 12  1  0  0  0  0
 13 12  1  6  0  0  0
 13 14  1  0  0  0  0
 13 19  1  0  0  0  0
 14 15  1  6  0  0  0
 14 17  1  0  0  0  0
 15 16  2  0  0  0  0
 17 18  1  0  0  0  0
 19 18  1  6  0  0  0
M  END
>  <CHROM.1>
-57.11534726,-63.43768367,18.86413297,27.91048575,36.88507964,-1.05736237
-1.18469562,2.76503790

>  <Name>
ligand

>  <RI>
0

>  <Rbt.Current_Directory>
/home/itssahil/PROJECTS/Mol_Feturizer/New_Systems/rnas/3SKL

>  <Rbt.Executable>
rbdock ($Id: //depot/dev/client3/rdock/2013.1/src/exe/rbdock.cxx#4 $)

>  <Rbt.Library>
libRbt.so (2013.1, Build901 2013/11/27)

>  <Rbt.Parameter_File>
/export/apps/rDock/src/rDock_2013.1_src/data/scripts/dock_solv.prm

>  <Rbt.Receptor>
prm/pocket_docking_3.prm

>  <SCORE>
-17.2571

>  <SCORE.INTER>
-17.1824

>  <SCORE.INTER.CONST>
1

>  <SCORE.INTER.POLAR>
0

>  <SCORE.INTER.ROT>
2

>  <SCORE.INTER.SOLV>
16.516

>  <SCORE.INTER.VDW>
-21.8936

>  <SCORE.INTER.norm>
-0.904336

>  <SCORE.INTRA>
-0.0746737

>  <SCORE.INTRA.DIHEDRAL>
-0.272278

>  <SCORE.INTRA.DIHEDRAL.0>
1.50031

>  <SCORE.INTRA.POLAR>
0

>  <SCORE.INTRA.POLAR.0>
0

>  <SCORE.INTRA.REPUL>
0

>  <SCORE.INTRA.REPUL.0>
0

>  <SCORE.INTRA.SOLV>
0.00894149

>  <SCORE.INTRA.SOLV.lig_0>
-37.9941

>  <SCORE.INTRA.VDW>
0.0569945

>  <SCORE.INTRA.VDW.0>
-0.964461

>  <SCORE.INTRA.norm>
-0.0039302

>  <SCORE.RESTR>
0

>  <SCORE.RESTR.CAVITY>
0

>  <SCORE.RESTR.norm>
0

>  <SCORE.SYSTEM>
0

>  <SCORE.SYSTEM.CONST>
0

>  <SCORE.SYSTEM.DIHEDRAL>
0

>  <SCORE.SYSTEM.SOLV>
0

>  <SCORE.SYSTEM.norm>
0

>  <SCORE.heavy>
19

>  <SCORE.norm>
-0.908267

>  <RMSD>
0.986

$$$$
ligand
 OpenBabel11021811483D
libRbt.so/2013.1/901 2013/11/27
 19 21  0  0  0  0  0  0  0  0999 V2000
   17.4996   29.5392   33.9405 C   0  0  0  0  0  0  0  0  0  0  0  0
   17.8680   28.1549   33.8115 O   0  0  0  0  0  0  0  0  0  0  0  0
   18.4643   30.2877   34.8663 C   0  0  1  0  0  0  0  0  0  0  0  0
   18.4849   29.6864   36.1606 O   0  0  0  0  0  0  0  0  0  0  0  0
   19.8876   30.2581   34.3424 C   0  0  1  0  0  0  0  0  0  0  0  0
   20.4404   31.5692   34.4662 O   0  0  0  0  0  0  0  0  0  0  0  0
   20.6582   29.3148   35.2381 C   0  0  0  0  0  0  0  0  0  0  0  0
   19.7748   29.1286   36.4582 C   0  0  2  0  0  0  0  0  0  0  0  0
   17.6464   25.9364   39.9277 N   0  0  0  0  0  0  0  0  0  0  0  0
   17.6492   27.2892   39.8527 C   0  0  2  0  0  0  0  0  0  0  0  0
   17.0098   28.0210   40.7893 N   0  0  0  0  0  0  0  0  0  0  0  0
   18.2805   27.9408   38.8533 N   0  0  0  0  0  0  0  0  0  0  0  0
   18.9389   27.2749   37.8831 C   0  0  1  0  0  0  0  0  0  0  0  0
   18.9824   25.8998   37.8974 C   0  0  1  0  0  0  0  0  0  0  0  0
   18.2832   25.1941   38.9995 C   0  0  0  0  0  0  0  0  0  0  0  0
   18.2891   23.9452   39.0688 O   0  0  0  0  0  0  0  0  0  0  0  0
   19.6933   25.5024   36.8282 N   0  0  0  0  0  0  0  0  0  0  0  0
   20.0789   26.6205   36.1710 C   0  0  0  0  0  0  0  0  0  0  0  0
   19.6110   27.6964   36.8241 N   0  0  1  0  0  0  0  0  0  0  0  0
  1  2  1  0  0  0  0
  3  1  1  6  0  0  0
  3  4  1  0  0  0  0
  3  5  1  0  0  0  0
  5  6  1  1  0  0  0
  5  7  1  0  0  0  0
  7  8  1  0  0  0  0
  8  4  1  6  0  0  0
  8 19  1  0  0  0  0
  9 15  1  0  0  0  0
  9 10  1  0  0  0  0
 10 11  1  6  0  0  0
 10 12  1  0  0  0  0
 13 12  1  6  0  0  0
 13 14  1  0  0  0  0
 13 19  1  0  0  0  0
 14 15  1  6  0  0  0
 14 17  1  0  0  0  0
 15 16  2  0  0  0  0
 17 18  1  0  0  0  0
 19 18  1  6  0  0  0
M  END
>  <CHROM.1>
-58.54040284,-63.54534715,18.81138933,27.90115010,36.90786903,-1.08076735
-1.16468723,2.74825066

>  <Name>
ligand

>  <RI>
0

>  <Rbt.Current_Directory>
/home/itssahil/PROJECTS/Mol_Feturizer/New_Systems/rnas/3SKL

>  <Rbt.Executable>
rbdock ($Id: //depot/dev/client3/rdock/2013.1/src/exe/rbdock.cxx#4 $)

>  <Rbt.Library>
libRbt.so (2013.1, Build901 2013/11/27)

>  <Rbt.Parameter_File>
/export/apps/rDock/src/rDock_2013.1_src/data/scripts/dock_solv.prm

>  <Rbt.Receptor>
prm/pocket_docking_5.prm

>  <SCORE>
-17.2729

>  <SCORE.INTER>
-17.1969

>  <SCORE.INTER.CONST>
1

>  <SCORE.INTER.POLAR>
0

>  <SCORE.INTER.ROT>
2

>  <SCORE.INTER.SOLV>
16.9196

>  <SCORE.INTER.VDW>
-22.0378

>  <SCORE.INTER.norm>
-0.905098

>  <SCORE.INTRA>
-0.0760733

>  <SCORE.INTRA.DIHEDRAL>
-0.295178

>  <SCORE.INTRA.DIHEDRAL.0>
1.50031

>  <SCORE.INTRA.POLAR>
0

>  <SCORE.INTRA.POLAR.0>
0

>  <SCORE.INTRA.REPUL>
0

>  <SCORE.INTRA.REPUL.0>
0

>  <SCORE.INTRA.SOLV>
0.00646383

>  <SCORE.INTRA.SOLV.lig_0>
-37.9941

>  <SCORE.INTRA.VDW>
0.0682837

>  <SCORE.INTRA.VDW.0>
-0.964461

>  <SCORE.INTRA.norm>
-0.00400386

>  <SCORE.RESTR>
0

>  <SCORE.RESTR.CAVITY>
0

>  <SCORE.RESTR.norm>
0

>  <SCORE.SYSTEM>
0

>  <SCORE.SYSTEM.CONST>
0

>  <SCORE.SYSTEM.DIHEDRAL>
0

>  <SCORE.SYSTEM.SOLV>
0

>  <SCORE.SYSTEM.norm>
0

>  <SCORE.heavy>
19

>  <SCORE.norm>
-0.909101

>  <RMSD>
0.987

$$$$
ligand
 OpenBabel11021811483D
libRbt.so/2013.1/901 2013/11/27
 19 21  0  0  0  0  0  0  0  0999 V2000
   17.4518   29.5402   34.0432 C   0  0  0  0  0  0  0  0  0  0  0  0
   17.7651   28.1430   33.9078 O   0  0  0  0  0  0  0  0  0  0  0  0
   18.4949   30.2636   34.9014 C   0  0  1  0  0  0  0  0  0  0  0  0
   18.5698   29.6763   36.2002 O   0  0  0  0  0  0  0  0  0  0  0  0
   19.8830   30.1770   34.2962 C   0  0  1  0  0  0  0  0  0  0  0  0
   20.4883   31.4685   34.3704 O   0  0  0  0  0  0  0  0  0  0  0  0
   20.6709   29.2164   35.1579 C   0  0  0  0  0  0  0  0  0  0  0  0
   19.8544   29.0758   36.4297 C   0  0  2  0  0  0  0  0  0  0  0  0
   17.5293   25.9875   39.8668 N   0  0  0  0  0  0  0  0  0  0  0  0
   17.5458   27.3378   39.7574 C   0  0  2  0  0  0  0  0  0  0  0  0
   16.8650   28.0975   40.6412 N   0  0  0  0  0  0  0  0  0  0  0  0
   18.2318   27.9595   38.7752 N   0  0  0  0  0  0  0  0  0  0  0  0
   18.9336   27.2647   37.8571 C   0  0  1  0  0  0  0  0  0  0  0  0
   18.9663   25.8902   37.9088 C   0  0  1  0  0  0  0  0  0  0  0  0
   18.2069   25.2176   38.9915 C   0  0  0  0  0  0  0  0  0  0  0  0
   18.2000   23.9709   39.0930 O   0  0  0  0  0  0  0  0  0  0  0  0
   19.7276   25.4609   36.8877 N   0  0  0  0  0  0  0  0  0  0  0  0
   20.1543   26.5593   36.2226 C   0  0  0  0  0  0  0  0  0  0  0  0
   19.6617   27.6545   36.8232 N   0  0  1  0  0  0  0  0  0  0  0  0
  1  2  1  0  0  0  0
  3  1  1  6  0  0  0
  3  4  1  0  0  0  0
  3  5  1  0  0  0  0
  5  6  1  1  0  0  0
  5  7  1  0  0  0  0
  7  8  1  0  0  0  0
  8  4  1  6  0  0  0
  8 19  1  0  0  0  0
  9 15  1  0  0  0  0
  9 10  1  0  0  0  0
 10 11  1  6  0  0  0
 10 12  1  0  0  0  0
 13 12  1  6  0  0  0
 13 14  1  0  0  0  0
 13 19  1  0  0  0  0
 14 15  1  6  0  0  0
 14 17  1  0  0  0  0
 15 16  2  0  0  0  0
 17 18  1  0  0  0  0
 19 18  1  6  0  0  0
M  END
>  <CHROM.1>
-58.72021715,-57.02385090,18.79325983,27.88506153,36.89573823,1.14500700
1.05267766,-0.47387598

>  <Name>
ligand

>  <RI>
0

>  <Rbt.Current_Directory>
/home/itssahil/PROJECTS/Mol_Feturizer/New_Systems/rnas/3SKL

>  <Rbt.Executable>
rbdock ($Id: //depot/dev/client3/rdock/2013.1/src/exe/rbdock.cxx#4 $)

>  <Rbt.Library>
libRbt.so (2013.1, Build901 2013/11/27)

>  <Rbt.Parameter_File>
/export/apps/rDock/src/rDock_2013.1_src/data/scripts/dock_solv.prm

>  <Rbt.Receptor>
prm/pocket_docking_3.prm

>  <SCORE>
-17.4341

>  <SCORE.INTER>
-17.3623

>  <SCORE.INTER.CONST>
1

>  <SCORE.INTER.POLAR>
0

>  <SCORE.INTER.ROT>
2

>  <SCORE.INTER.SOLV>
17.221

>  <SCORE.INTER.VDW>
-22.2486

>  <SCORE.INTER.norm>
-0.913808

>  <SCORE.INTRA>
-0.0717389

>  <SCORE.INTRA.DIHEDRAL>
-0.288545

>  <SCORE.INTRA.DIHEDRAL.0>
1.50031

>  <SCORE.INTRA.POLAR>
0

>  <SCORE.INTRA.POLAR.0>
0

>  <SCORE.INTRA.REPUL>
0

>  <SCORE.INTRA.REPUL.0>
0

>  <SCORE.INTRA.SOLV>
8.89558e-05

>  <SCORE.INTRA.SOLV.lig_0>
-37.9941

>  <SCORE.INTRA.VDW>
0.0724891

>  <SCORE.INTRA.VDW.0>
-0.964461

>  <SCORE.INTRA.norm>
-0.00377573

>  <SCORE.RESTR>
0

>  <SCORE.RESTR.CAVITY>
0

>  <SCORE.RESTR.norm>
0

>  <SCORE.SYSTEM>
0

>  <SCORE.SYSTEM.CONST>
0

>  <SCORE.SYSTEM.DIHEDRAL>
0

>  <SCORE.SYSTEM.SOLV>
0

>  <SCORE.SYSTEM.norm>
0

>  <SCORE.heavy>
19

>  <SCORE.norm>
-0.917583

>  <RMSD>
0.988

$$$$
ligand
 OpenBabel11021811483D
libRbt.so/2013.1/901 2013/11/27
 19 21  0  0  0  0  0  0  0  0999 V2000
   17.2080   29.4516   34.4135 C   0  0  0  0  0  0  0  0  0  0  0  0
   17.3144   28.0202   34.3216 O   0  0  0  0  0  0  0  0  0  0  0  0
   18.4732   30.0655   35.0222 C   0  0  1  0  0  0  0  0  0  0  0  0
   18.6920   29.5601   36.3390 O   0  0  0  0  0  0  0  0  0  0  0  0
   19.7101   29.7325   34.2096 C   0  0  1  0  0  0  0  0  0  0  0  0
   20.4894   30.9210   34.0680 O   0  0  0  0  0  0  0  0  0  0  0  0
   20.4972   28.7235   35.0148 C   0  0  0  0  0  0  0  0  0  0  0  0
   19.9028   28.7904   36.4097 C   0  0  2  0  0  0  0  0  0  0  0  0
   17.2456   26.3040   40.0860 N   0  0  0  0  0  0  0  0  0  0  0  0
   17.3695   27.6274   39.8236 C   0  0  2  0  0  0  0  0  0  0  0  0
   16.7236   28.5331   40.5879 N   0  0  0  0  0  0  0  0  0  0  0  0
   18.1302   28.0780   38.8036 N   0  0  0  0  0  0  0  0  0  0  0  0
   18.8031   27.2311   37.9986 C   0  0  1  0  0  0  0  0  0  0  0  0
   18.7280   25.8734   38.2085 C   0  0  1  0  0  0  0  0  0  0  0  0
   17.8873   25.3895   39.3312 C   0  0  0  0  0  0  0  0  0  0  0  0
   17.7812   24.1671   39.5743 O   0  0  0  0  0  0  0  0  0  0  0  0
   19.4838   25.2730   37.2731 N   0  0  0  0  0  0  0  0  0  0  0  0
   20.0135   26.2517   36.5036 C   0  0  0  0  0  0  0  0  0  0  0  0
   19.5894   27.4428   36.9557 N   0  0  1  0  0  0  0  0  0  0  0  0
  1  2  1  0  0  0  0
  3  1  1  6  0  0  0
  3  4  1  0  0  0  0
  3  5  1  0  0  0  0
  5  6  1  1  0  0  0
  5  7  1  0  0  0  0
  7  8  1  0  0  0  0
  8  4  1  6  0  0  0
  8 19  1  0  0  0  0
  9 15  1  0  0  0  0
  9 10  1  0  0  0  0
 10 11  1  6  0  0  0
 10 12  1  0  0  0  0
 13 12  1  6  0  0  0
 13 14  1  0  0  0  0
 13 19  1  0  0  0  0
 14 15  1  6  0  0  0
 14 17  1  0  0  0  0
 15 16  2  0  0  0  0
 17 18  1  0  0  0  0
 19 18  1  6  0  0  0
M  END
>  <CHROM.1>
-60.30055712,-44.52068484,18.62641687,27.80143684,37.04352152,1.16286578
0.93092538,-0.59559689

>  <Name>
ligand

>  <RI>
0

>  <Rbt.Current_Directory>
/home/itssahil/PROJECTS/Mol_Feturizer/New_Systems/rnas/3SKL

>  <Rbt.Executable>
rbdock ($Id: //depot/dev/client3/rdock/2013.1/src/exe/rbdock.cxx#4 $)

>  <Rbt.Library>
libRbt.so (2013.1, Build901 2013/11/27)

>  <Rbt.Parameter_File>
/export/apps/rDock/src/rDock_2013.1_src/data/scripts/dock_solv.prm

>  <Rbt.Receptor>
prm/pocket_docking_2.prm

>  <SCORE>
-17.227

>  <SCORE.INTER>
-17.136

>  <SCORE.INTER.CONST>
1

>  <SCORE.INTER.POLAR>
0

>  <SCORE.INTER.ROT>
2

>  <SCORE.INTER.SOLV>
17.8239

>  <SCORE.INTER.VDW>
-22.2987

>  <SCORE.INTER.norm>
-0.901897

>  <SCORE.INTRA>
-0.0909145

>  <SCORE.INTRA.DIHEDRAL>
-0.280269

>  <SCORE.INTRA.DIHEDRAL.0>
1.50031

>  <SCORE.INTRA.POLAR>
0

>  <SCORE.INTRA.POLAR.0>
0

>  <SCORE.INTRA.REPUL>
0

>  <SCORE.INTRA.REPUL.0>
0

>  <SCORE.INTRA.SOLV>
-0.0147732

>  <SCORE.INTRA.SOLV.lig_0>
-37.9941

>  <SCORE.INTRA.VDW>
0.0566065

>  <SCORE.INTRA.VDW.0>
-0.964461

>  <SCORE.INTRA.norm>
-0.00478497

>  <SCORE.RESTR>
0

>  <SCORE.RESTR.CAVITY>
0

>  <SCORE.RESTR.norm>
0

>  <SCORE.SYSTEM>
0

>  <SCORE.SYSTEM.CONST>
0

>  <SCORE.SYSTEM.DIHEDRAL>
0

>  <SCORE.SYSTEM.SOLV>
0

>  <SCORE.SYSTEM.norm>
0

>  <SCORE.heavy>
19

>  <SCORE.norm>
-0.906682

>  <RMSD>
0.989

$$$$
ligand
 OpenBabel11021811483D
libRbt.so/2013.1/901 2013/11/27
 19 21  0  0  0  0  0  0  0  0999 V2000
   17.2146   29.4561   34.4097 C   0  0  0  0  0  0  0  0  0  0  0  0
   17.3133   28.0234   34.3305 O   0  0  0  0  0  0  0  0  0  0  0  0
   18.4788   30.0677   35.0227 C   0  0  1  0  0  0  0  0  0  0  0  0
   18.6899   29.5648   36.3418 O   0  0  0  0  0  0  0  0  0  0  0  0
   19.7184   29.7292   34.2168 C   0  0  1  0  0  0  0  0  0  0  0  0
   20.5019   30.9150   34.0759 O   0  0  0  0  0  0  0  0  0  0  0  0
   20.4988   28.7198   35.0280 C   0  0  0  0  0  0  0  0  0  0  0  0
   19.8981   28.7918   36.4200 C   0  0  2  0  0  0  0  0  0  0  0  0
   17.2108   26.3217   40.0853 N   0  0  0  0  0  0  0  0  0  0  0  0
   17.3392   27.6440   39.8198 C   0  0  2  0  0  0  0  0  0  0  0  0
   16.6900   28.5533   40.5771 N   0  0  0  0  0  0  0  0  0  0  0  0
   18.1078   28.0901   38.8038 N   0  0  0  0  0  0  0  0  0  0  0  0
   18.7845   27.2394   38.0059 C   0  0  1  0  0  0  0  0  0  0  0  0
   18.7051   25.8825   38.2192 C   0  0  1  0  0  0  0  0  0  0  0  0
   17.8558   25.4036   39.3376 C   0  0  0  0  0  0  0  0  0  0  0  0
   17.7455   24.1821   39.5835 O   0  0  0  0  0  0  0  0  0  0  0  0
   19.4660   25.2778   37.2908 N   0  0  0  0  0  0  0  0  0  0  0  0
   20.0030   26.2532   36.5221 C   0  0  0  0  0  0  0  0  0  0  0  0
   19.5783   27.4465   36.9677 N   0  0  1  0  0  0  0  0  0  0  0  0
  1  2  1  0  0  0  0
  3  1  1  6  0  0  0
  3  4  1  0  0  0  0
  3  5  1  0  0  0  0
  5  6  1  1  0  0  0
  5  7  1  0  0  0  0
  7  8  1  0  0  0  0
  8  4  1  6  0  0  0
  8 19  1  0  0  0  0
  9 15  1  0  0  0  0
  9 10  1  0  0  0  0
 10 11  1  6  0  0  0
 10 12  1  0  0  0  0
 13 12  1  6  0  0  0
 13 14  1  0  0  0  0
 13 19  1  0  0  0  0
 14 15  1  6  0  0  0
 14 17  1  0  0  0  0
 15 16  2  0  0  0  0
 17 18  1  0  0  0  0
 19 18  1  6  0  0  0
M  END
>  <CHROM.1>
-59.88607574,-44.38313746,18.61404405,27.80794652,37.04947523,1.15542886
0.92430174,-0.59237725

>  <Name>
ligand

>  <RI>
0

>  <Rbt.Current_Directory>
/home/itssahil/PROJECTS/Mol_Feturizer/New_Systems/rnas/3SKL

>  <Rbt.Executable>
rbdock ($Id: //depot/dev/client3/rdock/2013.1/src/exe/rbdock.cxx#4 $)

>  <Rbt.Library>
libRbt.so (2013.1, Build901 2013/11/27)

>  <Rbt.Parameter_File>
/export/apps/rDock/src/rDock_2013.1_src/data/scripts/dock_solv.prm

>  <Rbt.Receptor>
prm/pocket_docking_2.prm

>  <SCORE>
-17.2445

>  <SCORE.INTER>
-17.149

>  <SCORE.INTER.CONST>
1

>  <SCORE.INTER.POLAR>
0

>  <SCORE.INTER.ROT>
2

>  <SCORE.INTER.SOLV>
17.9864

>  <SCORE.INTER.VDW>
-22.3615

>  <SCORE.INTER.norm>
-0.902581

>  <SCORE.INTRA>
-0.0954649

>  <SCORE.INTRA.DIHEDRAL>
-0.280297

>  <SCORE.INTRA.DIHEDRAL.0>
1.50031

>  <SCORE.INTRA.POLAR>
0

>  <SCORE.INTRA.POLAR.0>
0

>  <SCORE.INTRA.REPUL>
0

>  <SCORE.INTRA.REPUL.0>
0

>  <SCORE.INTRA.SOLV>
-0.0140016

>  <SCORE.INTRA.SOLV.lig_0>
-37.9941

>  <SCORE.INTRA.VDW>
0.0516843

>  <SCORE.INTRA.VDW.0>
-0.964461

>  <SCORE.INTRA.norm>
-0.00502447

>  <SCORE.RESTR>
0

>  <SCORE.RESTR.CAVITY>
0

>  <SCORE.RESTR.norm>
0

>  <SCORE.SYSTEM>
0

>  <SCORE.SYSTEM.CONST>
0

>  <SCORE.SYSTEM.DIHEDRAL>
0

>  <SCORE.SYSTEM.SOLV>
0

>  <SCORE.SYSTEM.norm>
0

>  <SCORE.heavy>
19

>  <SCORE.norm>
-0.907606

>  <RMSD>
0.991

$$$$
ligand
 OpenBabel11021811483D
libRbt.so/2013.1/901 2013/11/27
 19 21  0  0  0  0  0  0  0  0999 V2000
   17.4755   29.5516   34.0479 C   0  0  0  0  0  0  0  0  0  0  0  0
   17.7498   28.1426   33.9574 O   0  0  0  0  0  0  0  0  0  0  0  0
   18.5241   30.2686   34.9048 C   0  0  1  0  0  0  0  0  0  0  0  0
   18.5952   29.6827   36.2044 O   0  0  0  0  0  0  0  0  0  0  0  0
   19.9114   30.1710   34.2993 C   0  0  1  0  0  0  0  0  0  0  0  0
   20.5261   31.4582   34.3714 O   0  0  0  0  0  0  0  0  0  0  0  0
   20.6925   29.2059   35.1622 C   0  0  0  0  0  0  0  0  0  0  0  0
   19.8754   29.0731   36.4344 C   0  0  2  0  0  0  0  0  0  0  0  0
   17.5646   26.0090   39.9027 N   0  0  0  0  0  0  0  0  0  0  0  0
   17.5946   27.3591   39.7936 C   0  0  2  0  0  0  0  0  0  0  0  0
   16.9348   28.1259   40.6871 N   0  0  0  0  0  0  0  0  0  0  0  0
   18.2736   27.9737   38.8020 N   0  0  0  0  0  0  0  0  0  0  0  0
   18.9547   27.2717   37.8739 C   0  0  1  0  0  0  0  0  0  0  0  0
   18.9728   25.8968   37.9246 C   0  0  1  0  0  0  0  0  0  0  0  0
   18.2212   25.2321   39.0177 C   0  0  0  0  0  0  0  0  0  0  0  0
   18.2020   23.9855   39.1188 O   0  0  0  0  0  0  0  0  0  0  0  0
   19.7148   25.4597   36.8928 N   0  0  0  0  0  0  0  0  0  0  0  0
   20.1444   26.5535   36.2222 C   0  0  0  0  0  0  0  0  0  0  0  0
   19.6725   27.6539   36.8301 N   0  0  1  0  0  0  0  0  0  0  0  0
  1  2  1  0  0  0  0
  3  1  1  6  0  0  0
  3  4  1  0  0  0  0
  3  5  1  0  0  0  0
  5  6  1  1  0  0  0
  5  7  1  0  0  0  0
  7  8  1  0  0  0  0
  8  4  1  6  0  0  0
  8 19  1  0  0  0  0
  9 15  1  0  0  0  0
  9 10  1  0  0  0  0
 10 11  1  6  0  0  0
 10 12  1  0  0  0  0
 13 12  1  6  0  0  0
 13 14  1  0  0  0  0
 13 19  1  0  0  0  0
 14 15  1  6  0  0  0
 14 17  1  0  0  0  0
 15 16  2  0  0  0  0
 17 18  1  0  0  0  0
 19 18  1  6  0  0  0
M  END
>  <CHROM.1>
-56.47565714,-57.84867655,18.81414618,27.89091261,36.91253006,1.12635967
1.07541495,-0.45704896

>  <Name>
ligand

>  <RI>
0

>  <Rbt.Current_Directory>
/home/itssahil/PROJECTS/Mol_Feturizer/New_Systems/rnas/3SKL

>  <Rbt.Executable>
rbdock ($Id: //depot/dev/client3/rdock/2013.1/src/exe/rbdock.cxx#4 $)

>  <Rbt.Library>
libRbt.so (2013.1, Build901 2013/11/27)

>  <Rbt.Parameter_File>
/export/apps/rDock/src/rDock_2013.1_src/data/scripts/dock_solv.prm

>  <Rbt.Receptor>
prm/pocket_docking_3.prm

>  <SCORE>
-17.514

>  <SCORE.INTER>
-17.4442

>  <SCORE.INTER.CONST>
1

>  <SCORE.INTER.POLAR>
0

>  <SCORE.INTER.ROT>
2

>  <SCORE.INTER.SOLV>
17.0329

>  <SCORE.INTER.VDW>
-22.2405

>  <SCORE.INTER.norm>
-0.918117

>  <SCORE.INTRA>
-0.0697182

>  <SCORE.INTRA.DIHEDRAL>
-0.250073

>  <SCORE.INTRA.DIHEDRAL.0>
1.50031

>  <SCORE.INTRA.POLAR>
0

>  <SCORE.INTRA.POLAR.0>
0

>  <SCORE.INTRA.REPUL>
0

>  <SCORE.INTRA.REPUL.0>
0

>  <SCORE.INTRA.SOLV>
0.00480894

>  <SCORE.INTRA.SOLV.lig_0>
-37.9941

>  <SCORE.INTRA.VDW>
0.0529136

>  <SCORE.INTRA.VDW.0>
-0.964461

>  <SCORE.INTRA.norm>
-0.00366938

>  <SCORE.RESTR>
0

>  <SCORE.RESTR.CAVITY>
0

>  <SCORE.RESTR.norm>
0

>  <SCORE.SYSTEM>
0

>  <SCORE.SYSTEM.CONST>
0

>  <SCORE.SYSTEM.DIHEDRAL>
0

>  <SCORE.SYSTEM.SOLV>
0

>  <SCORE.SYSTEM.norm>
0

>  <SCORE.heavy>
19

>  <SCORE.norm>
-0.921787

>  <RMSD>
0.991

$$$$
ligand
 OpenBabel11021811483D
libRbt.so/2013.1/901 2013/11/27
 19 21  0  0  0  0  0  0  0  0999 V2000
   17.4973   29.5167   33.9632 C   0  0  0  0  0  0  0  0  0  0  0  0
   17.8155   28.1176   33.8638 O   0  0  0  0  0  0  0  0  0  0  0  0
   18.4920   30.2505   34.8687 C   0  0  1  0  0  0  0  0  0  0  0  0
   18.5289   29.6499   36.1630 O   0  0  0  0  0  0  0  0  0  0  0  0
   19.9038   30.1981   34.3166 C   0  0  1  0  0  0  0  0  0  0  0  0
   20.4797   31.5003   34.4279 O   0  0  0  0  0  0  0  0  0  0  0  0
   20.6771   29.2433   35.1977 C   0  0  0  0  0  0  0  0  0  0  0  0
   19.8155   29.0720   36.4354 C   0  0  2  0  0  0  0  0  0  0  0  0
   17.7002   25.9161   39.9459 N   0  0  0  0  0  0  0  0  0  0  0  0
   17.7222   27.2686   39.8690 C   0  0  2  0  0  0  0  0  0  0  0  0
   17.1105   28.0111   40.8158 N   0  0  0  0  0  0  0  0  0  0  0  0
   18.3457   27.9096   38.8579 N   0  0  0  0  0  0  0  0  0  0  0  0
   18.9767   27.2327   37.8771 C   0  0  1  0  0  0  0  0  0  0  0  0
   18.9995   25.8571   37.8925 C   0  0  1  0  0  0  0  0  0  0  0  0
   18.3092   25.1633   39.0076 C   0  0  0  0  0  0  0  0  0  0  0  0
   18.2973   23.9145   39.0785 O   0  0  0  0  0  0  0  0  0  0  0  0
   19.6854   25.4478   36.8115 N   0  0  0  0  0  0  0  0  0  0  0  0
   20.0764   26.5593   36.1462 C   0  0  0  0  0  0  0  0  0  0  0  0
   19.6364   27.6428   36.8059 N   0  0  1  0  0  0  0  0  0  0  0  0
  1  2  1  0  0  0  0
  3  1  1  6  0  0  0
  3  4  1  0  0  0  0
  3  5  1  0  0  0  0
  5  6  1  1  0  0  0
  5  7  1  0  0  0  0
  7  8  1  0  0  0  0
  8  4  1  6  0  0  0
  8 19  1  0  0  0  0
  9 15  1  0  0  0  0
  9 10  1  0  0  0  0
 10 11  1  6  0  0  0
 10 12  1  0  0  0  0
 13 12  1  6  0  0  0
 13 14  1  0  0  0  0
 13 19  1  0  0  0  0
 14 15  1  6  0  0  0
 14 17  1  0  0  0  0
 15 16  2  0  0  0  0
 17 18  1  0  0  0  0
 19 18  1  6  0  0  0
M  END
>  <CHROM.1>
-56.62932366,-63.40331021,18.83856198,27.85963912,36.90646579,-1.06743310
-1.18320275,2.76010817

>  <Name>
ligand

>  <RI>
0

>  <Rbt.Current_Directory>
/home/itssahil/PROJECTS/Mol_Feturizer/New_Systems/rnas/3SKL

>  <Rbt.Executable>
rbdock ($Id: //depot/dev/client3/rdock/2013.1/src/exe/rbdock.cxx#4 $)

>  <Rbt.Library>
libRbt.so (2013.1, Build901 2013/11/27)

>  <Rbt.Parameter_File>
/export/apps/rDock/src/rDock_2013.1_src/data/scripts/dock_solv.prm

>  <Rbt.Receptor>
prm/blind_docking_60.prm

>  <SCORE>
-17.2495

>  <SCORE.INTER>
-17.1772

>  <SCORE.INTER.CONST>
1

>  <SCORE.INTER.POLAR>
0

>  <SCORE.INTER.ROT>
2

>  <SCORE.INTER.SOLV>
16.5605

>  <SCORE.INTER.VDW>
-21.905

>  <SCORE.INTER.norm>
-0.904065

>  <SCORE.INTRA>
-0.0722234

>  <SCORE.INTRA.DIHEDRAL>
-0.261144

>  <SCORE.INTRA.DIHEDRAL.0>
1.50031

>  <SCORE.INTRA.POLAR>
0

>  <SCORE.INTRA.POLAR.0>
0

>  <SCORE.INTRA.REPUL>
0

>  <SCORE.INTRA.REPUL.0>
0

>  <SCORE.INTRA.SOLV>
0.00970733

>  <SCORE.INTRA.SOLV.lig_0>
-37.9941

>  <SCORE.INTRA.VDW>
0.0534951

>  <SCORE.INTRA.VDW.0>
-0.964461

>  <SCORE.INTRA.norm>
-0.00380123

>  <SCORE.RESTR>
0

>  <SCORE.RESTR.CAVITY>
0

>  <SCORE.RESTR.norm>
0

>  <SCORE.SYSTEM>
0

>  <SCORE.SYSTEM.CONST>
0

>  <SCORE.SYSTEM.DIHEDRAL>
0

>  <SCORE.SYSTEM.SOLV>
0

>  <SCORE.SYSTEM.norm>
0

>  <SCORE.heavy>
19

>  <SCORE.norm>
-0.907867

>  <RMSD>
0.993

$$$$
ligand
 OpenBabel11021811483D
libRbt.so/2013.1/901 2013/11/27
 19 21  0  0  0  0  0  0  0  0999 V2000
   17.2073   29.4644   34.4047 C   0  0  0  0  0  0  0  0  0  0  0  0
   17.3126   28.0340   34.2971 O   0  0  0  0  0  0  0  0  0  0  0  0
   18.4735   30.0708   35.0188 C   0  0  1  0  0  0  0  0  0  0  0  0
   18.6907   29.5544   36.3316 O   0  0  0  0  0  0  0  0  0  0  0  0
   19.7100   29.7418   34.2041 C   0  0  1  0  0  0  0  0  0  0  0  0
   20.4918   30.9298   34.0723 O   0  0  0  0  0  0  0  0  0  0  0  0
   20.4947   28.7248   35.0015 C   0  0  0  0  0  0  0  0  0  0  0  0
   19.8998   28.7817   36.3967 C   0  0  2  0  0  0  0  0  0  0  0  0
   17.2226   26.2704   40.0414 N   0  0  0  0  0  0  0  0  0  0  0  0
   17.3480   27.5956   39.7886 C   0  0  2  0  0  0  0  0  0  0  0  0
   16.6979   28.4961   40.5556 N   0  0  0  0  0  0  0  0  0  0  0  0
   18.1142   28.0531   38.7759 N   0  0  0  0  0  0  0  0  0  0  0  0
   18.7915   27.2116   37.9689 C   0  0  1  0  0  0  0  0  0  0  0  0
   18.7153   25.8525   38.1690 C   0  0  1  0  0  0  0  0  0  0  0  0
   17.8684   25.3610   39.2838 C   0  0  0  0  0  0  0  0  0  0  0  0
   17.7610   24.1370   39.5180 O   0  0  0  0  0  0  0  0  0  0  0  0
   19.4761   25.2585   37.2337 N   0  0  0  0  0  0  0  0  0  0  0  0
   20.0100   26.2425   36.4738 C   0  0  0  0  0  0  0  0  0  0  0  0
   19.5835   27.4305   36.9317 N   0  0  1  0  0  0  0  0  0  0  0  0
  1  2  1  0  0  0  0
  3  1  1  6  0  0  0
  3  4  1  0  0  0  0
  3  5  1  0  0  0  0
  5  6  1  1  0  0  0
  5  7  1  0  0  0  0
  7  8  1  0  0  0  0
  8  4  1  6  0  0  0
  8 19  1  0  0  0  0
  9 15  1  0  0  0  0
  9 10  1  0  0  0  0
 10 11  1  6  0  0  0
 10 12  1  0  0  0  0
 13 12  1  6  0  0  0
 13 14  1  0  0  0  0
 13 19  1  0  0  0  0
 14 15  1  6  0  0  0
 14 17  1  0  0  0  0
 15 16  2  0  0  0  0
 17 18  1  0  0  0  0
 19 18  1  6  0  0  0
M  END
>  <CHROM.1>
-60.49803287,-44.20306848,18.61749374,27.79007475,37.01874784,1.16088066
0.92397192,-0.58672538

>  <Name>
ligand

>  <RI>
0

>  <Rbt.Current_Directory>
/home/itssahil/PROJECTS/Mol_Feturizer/New_Systems/rnas/3SKL

>  <Rbt.Executable>
rbdock ($Id: //depot/dev/client3/rdock/2013.1/src/exe/rbdock.cxx#4 $)

>  <Rbt.Library>
libRbt.so (2013.1, Build901 2013/11/27)

>  <Rbt.Parameter_File>
/export/apps/rDock/src/rDock_2013.1_src/data/scripts/dock_solv.prm

>  <Rbt.Receptor>
prm/pocket_docking_2.prm

>  <SCORE>
-17.1788

>  <SCORE.INTER>
-17.089

>  <SCORE.INTER.CONST>
1

>  <SCORE.INTER.POLAR>
0

>  <SCORE.INTER.ROT>
2

>  <SCORE.INTER.SOLV>
17.8154

>  <SCORE.INTER.VDW>
-22.2645

>  <SCORE.INTER.norm>
-0.899423

>  <SCORE.INTRA>
-0.0897701

>  <SCORE.INTRA.DIHEDRAL>
-0.279469

>  <SCORE.INTRA.DIHEDRAL.0>
1.50031

>  <SCORE.INTRA.POLAR>
0

>  <SCORE.INTRA.POLAR.0>
0

>  <SCORE.INTRA.REPUL>
0

>  <SCORE.INTRA.REPUL.0>
0

>  <SCORE.INTRA.SOLV>
-0.0155133

>  <SCORE.INTRA.SOLV.lig_0>
-37.9941

>  <SCORE.INTRA.VDW>
0.0577211

>  <SCORE.INTRA.VDW.0>
-0.964461

>  <SCORE.INTRA.norm>
-0.00472474

>  <SCORE.RESTR>
0

>  <SCORE.RESTR.CAVITY>
0

>  <SCORE.RESTR.norm>
0

>  <SCORE.SYSTEM>
0

>  <SCORE.SYSTEM.CONST>
0

>  <SCORE.SYSTEM.DIHEDRAL>
0

>  <SCORE.SYSTEM.SOLV>
0

>  <SCORE.SYSTEM.norm>
0

>  <SCORE.heavy>
19

>  <SCORE.norm>
-0.904148

>  <RMSD>
0.994

$$$$
ligand
 OpenBabel11021811483D
libRbt.so/2013.1/901 2013/11/27
 19 21  0  0  0  0  0  0  0  0999 V2000
   17.5081   29.5308   33.9723 C   0  0  0  0  0  0  0  0  0  0  0  0
   17.7969   28.1234   33.9057 O   0  0  0  0  0  0  0  0  0  0  0  0
   18.5100   30.2624   34.8716 C   0  0  1  0  0  0  0  0  0  0  0  0
   18.5483   29.6662   36.1680 O   0  0  0  0  0  0  0  0  0  0  0  0
   19.9196   30.2002   34.3146 C   0  0  1  0  0  0  0  0  0  0  0  0
   20.5030   31.4996   34.4193 O   0  0  0  0  0  0  0  0  0  0  0  0
   20.6908   29.2443   35.1964 C   0  0  0  0  0  0  0  0  0  0  0  0
   19.8326   29.0823   36.4378 C   0  0  2  0  0  0  0  0  0  0  0  0
   17.7127   25.9507   39.9673 N   0  0  0  0  0  0  0  0  0  0  0  0
   17.7419   27.3028   39.8855 C   0  0  2  0  0  0  0  0  0  0  0  0
   17.1378   28.0520   40.8318 N   0  0  0  0  0  0  0  0  0  0  0  0
   18.3652   27.9366   38.8698 N   0  0  0  0  0  0  0  0  0  0  0  0
   18.9889   27.2528   37.8892 C   0  0  1  0  0  0  0  0  0  0  0  0
   19.0043   25.8772   37.9094 C   0  0  1  0  0  0  0  0  0  0  0  0
   18.3142   25.1912   39.0295 C   0  0  0  0  0  0  0  0  0  0  0  0
   18.2956   23.9428   39.1049 O   0  0  0  0  0  0  0  0  0  0  0  0
   19.6839   25.4602   36.8274 N   0  0  0  0  0  0  0  0  0  0  0  0
   20.0786   26.5671   36.1567 C   0  0  0  0  0  0  0  0  0  0  0  0
   19.6470   27.6554   36.8142 N   0  0  1  0  0  0  0  0  0  0  0  0
  1  2  1  0  0  0  0
  3  1  1  6  0  0  0
  3  4  1  0  0  0  0
  3  5  1  0  0  0  0
  5  6  1  1  0  0  0
  5  7  1  0  0  0  0
  7  8  1  0  0  0  0
  8  4  1  6  0  0  0
  8 19  1  0  0  0  0
  9 15  1  0  0  0  0
  9 10  1  0  0  0  0
 10 11  1  6  0  0  0
 10 12  1  0  0  0  0
 13 12  1  6  0  0  0
 13 14  1  0  0  0  0
 13 19  1  0  0  0  0
 14 15  1  6  0  0  0
 14 17  1  0  0  0  0
 15 16  2  0  0  0  0
 17 18  1  0  0  0  0
 19 18  1  6  0  0  0
M  END
>  <CHROM.1>
-55.07226479,-63.40626437,18.84949244,27.87660540,36.91853711,-1.05977329
-1.18675762,2.76409875

>  <Name>
ligand

>  <RI>
0

>  <Rbt.Current_Directory>
/home/itssahil/PROJECTS/Mol_Feturizer/New_Systems/rnas/3SKL

>  <Rbt.Executable>
rbdock ($Id: //depot/dev/client3/rdock/2013.1/src/exe/rbdock.cxx#4 $)

>  <Rbt.Library>
libRbt.so (2013.1, Build901 2013/11/27)

>  <Rbt.Parameter_File>
/export/apps/rDock/src/rDock_2013.1_src/data/scripts/dock_solv.prm

>  <Rbt.Receptor>
prm/pocket_docking_3.prm

>  <SCORE>
-17.2473

>  <SCORE.INTER>
-17.1894

>  <SCORE.INTER.CONST>
1

>  <SCORE.INTER.POLAR>
0

>  <SCORE.INTER.ROT>
2

>  <SCORE.INTER.SOLV>
16.5164

>  <SCORE.INTER.VDW>
-21.8984

>  <SCORE.INTER.norm>
-0.904706

>  <SCORE.INTRA>
-0.058203

>  <SCORE.INTRA.DIHEDRAL>
-0.214344

>  <SCORE.INTRA.DIHEDRAL.0>
1.50031

>  <SCORE.INTRA.POLAR>
0

>  <SCORE.INTRA.POLAR.0>
0

>  <SCORE.INTRA.REPUL>
0

>  <SCORE.INTRA.REPUL.0>
0

>  <SCORE.INTRA.SOLV>
0.0119827

>  <SCORE.INTRA.SOLV.lig_0>
-37.9941

>  <SCORE.INTRA.VDW>
0.0429775

>  <SCORE.INTRA.VDW.0>
-0.964461

>  <SCORE.INTRA.norm>
-0.00306332

>  <SCORE.RESTR>
0.000287254

>  <SCORE.RESTR.CAVITY>
0.000287254

>  <SCORE.RESTR.norm>
1.51186e-05

>  <SCORE.SYSTEM>
0

>  <SCORE.SYSTEM.CONST>
0

>  <SCORE.SYSTEM.DIHEDRAL>
0

>  <SCORE.SYSTEM.SOLV>
0

>  <SCORE.SYSTEM.norm>
0

>  <SCORE.heavy>
19

>  <SCORE.norm>
-0.907755

>  <RMSD>
0.994

$$$$
ligand
 OpenBabel11021811483D
libRbt.so/2013.1/901 2013/11/27
 19 21  0  0  0  0  0  0  0  0999 V2000
   17.2319   29.4546   34.4092 C   0  0  0  0  0  0  0  0  0  0  0  0
   17.3210   28.0214   34.3282 O   0  0  0  0  0  0  0  0  0  0  0  0
   18.4989   30.0569   35.0255 C   0  0  1  0  0  0  0  0  0  0  0  0
   18.7045   29.5502   36.3440 O   0  0  0  0  0  0  0  0  0  0  0  0
   19.7377   29.7118   34.2210 C   0  0  1  0  0  0  0  0  0  0  0  0
   20.5291   30.8927   34.0837 O   0  0  0  0  0  0  0  0  0  0  0  0
   20.5101   28.6958   35.0317 C   0  0  0  0  0  0  0  0  0  0  0  0
   19.9075   28.7691   36.4228 C   0  0  2  0  0  0  0  0  0  0  0  0
   17.2073   26.3105   40.0864 N   0  0  0  0  0  0  0  0  0  0  0  0
   17.3458   27.6325   39.8243 C   0  0  2  0  0  0  0  0  0  0  0  0
   16.7052   28.5448   40.5852 N   0  0  0  0  0  0  0  0  0  0  0  0
   18.1160   28.0752   38.8080 N   0  0  0  0  0  0  0  0  0  0  0  0
   18.7844   27.2213   38.0066 C   0  0  1  0  0  0  0  0  0  0  0  0
   18.6947   25.8645   38.2163 C   0  0  1  0  0  0  0  0  0  0  0  0
   17.8436   25.3893   39.3350 C   0  0  0  0  0  0  0  0  0  0  0  0
   17.7241   24.1681   39.5778 O   0  0  0  0  0  0  0  0  0  0  0  0
   19.4490   25.2563   37.2849 N   0  0  0  0  0  0  0  0  0  0  0  0
   19.9923   26.2296   36.5178 C   0  0  0  0  0  0  0  0  0  0  0  0
   19.5780   27.4249   36.9675 N   0  0  1  0  0  0  0  0  0  0  0  0
  1  2  1  0  0  0  0
  3  1  1  6  0  0  0
  3  4  1  0  0  0  0
  3  5  1  0  0  0  0
  5  6  1  1  0  0  0
  5  7  1  0  0  0  0
  7  8  1  0  0  0  0
  8  4  1  6  0  0  0
  8 19  1  0  0  0  0
  9 15  1  0  0  0  0
  9 10  1  0  0  0  0
 10 11  1  6  0  0  0
 10 12  1  0  0  0  0
 13 12  1  6  0  0  0
 13 14  1  0  0  0  0
 13 19  1  0  0  0  0
 14 15  1  6  0  0  0
 14 17  1  0  0  0  0
 15 16  2  0  0  0  0
 17 18  1  0  0  0  0
 19 18  1  6  0  0  0
M  END
>  <CHROM.1>
-59.85201655,-44.60894868,18.61864689,27.79271142,37.05043158,1.14372974
0.93219639,-0.58059172

>  <Name>
ligand

>  <RI>
0

>  <Rbt.Current_Directory>
/home/itssahil/PROJECTS/Mol_Feturizer/New_Systems/rnas/3SKL

>  <Rbt.Executable>
rbdock ($Id: //depot/dev/client3/rdock/2013.1/src/exe/rbdock.cxx#4 $)

>  <Rbt.Library>
libRbt.so (2013.1, Build901 2013/11/27)

>  <Rbt.Parameter_File>
/export/apps/rDock/src/rDock_2013.1_src/data/scripts/dock_solv.prm

>  <Rbt.Receptor>
prm/pocket_docking_2.prm

>  <SCORE>
-17.285

>  <SCORE.INTER>
-17.19

>  <SCORE.INTER.CONST>
1

>  <SCORE.INTER.POLAR>
0

>  <SCORE.INTER.ROT>
2

>  <SCORE.INTER.SOLV>
17.9349

>  <SCORE.INTER.VDW>
-22.3716

>  <SCORE.INTER.norm>
-0.904737

>  <SCORE.INTRA>
-0.0950127

>  <SCORE.INTRA.DIHEDRAL>
-0.280461

>  <SCORE.INTRA.DIHEDRAL.0>
1.50031

>  <SCORE.INTRA.POLAR>
0

>  <SCORE.INTRA.POLAR.0>
0

>  <SCORE.INTRA.REPUL>
0

>  <SCORE.INTRA.REPUL.0>
0

>  <SCORE.INTRA.SOLV>
-0.0137158

>  <SCORE.INTRA.SOLV.lig_0>
-37.9941

>  <SCORE.INTRA.VDW>
0.052076

>  <SCORE.INTRA.VDW.0>
-0.964461

>  <SCORE.INTRA.norm>
-0.00500067

>  <SCORE.RESTR>
0

>  <SCORE.RESTR.CAVITY>
0

>  <SCORE.RESTR.norm>
0

>  <SCORE.SYSTEM>
0

>  <SCORE.SYSTEM.CONST>
0

>  <SCORE.SYSTEM.DIHEDRAL>
0

>  <SCORE.SYSTEM.SOLV>
0

>  <SCORE.SYSTEM.norm>
0

>  <SCORE.heavy>
19

>  <SCORE.norm>
-0.909737

>  <RMSD>
0.996

$$$$
ligand
 OpenBabel11021811483D
libRbt.so/2013.1/901 2013/11/27
 19 21  0  0  0  0  0  0  0  0999 V2000
   17.4586   29.5686   34.0541 C   0  0  0  0  0  0  0  0  0  0  0  0
   17.7145   28.1555   33.9746 O   0  0  0  0  0  0  0  0  0  0  0  0
   18.5093   30.2766   34.9158 C   0  0  1  0  0  0  0  0  0  0  0  0
   18.5761   29.6840   36.2126 O   0  0  0  0  0  0  0  0  0  0  0  0
   19.8970   30.1757   34.3115 C   0  0  1  0  0  0  0  0  0  0  0  0
   20.5173   31.4597   34.3908 O   0  0  0  0  0  0  0  0  0  0  0  0
   20.6726   29.2029   35.1706 C   0  0  0  0  0  0  0  0  0  0  0  0
   19.8533   29.0675   36.4411 C   0  0  2  0  0  0  0  0  0  0  0  0
   17.5567   25.9982   39.9143 N   0  0  0  0  0  0  0  0  0  0  0  0
   17.5962   27.3488   39.8139 C   0  0  2  0  0  0  0  0  0  0  0  0
   16.9525   28.1147   40.7199 N   0  0  0  0  0  0  0  0  0  0  0  0
   18.2691   27.9647   38.8190 N   0  0  0  0  0  0  0  0  0  0  0  0
   18.9343   27.2636   37.8787 C   0  0  1  0  0  0  0  0  0  0  0  0
   18.9419   25.8884   37.9200 C   0  0  1  0  0  0  0  0  0  0  0  0
   18.1973   25.2222   39.0169 C   0  0  0  0  0  0  0  0  0  0  0  0
   18.1692   23.9751   39.1098 O   0  0  0  0  0  0  0  0  0  0  0  0
   19.6690   25.4523   36.8770 N   0  0  0  0  0  0  0  0  0  0  0  0
   20.0998   26.5473   36.2091 C   0  0  0  0  0  0  0  0  0  0  0  0
   19.6435   27.6472   36.8295 N   0  0  1  0  0  0  0  0  0  0  0  0
  1  2  1  0  0  0  0
  3  1  1  6  0  0  0
  3  4  1  0  0  0  0
  3  5  1  0  0  0  0
  5  6  1  1  0  0  0
  5  7  1  0  0  0  0
  7  8  1  0  0  0  0
  8  4  1  6  0  0  0
  8 19  1  0  0  0  0
  9 15  1  0  0  0  0
  9 10  1  0  0  0  0
 10 11  1  6  0  0  0
 10 12  1  0  0  0  0
 13 12  1  6  0  0  0
 13 14  1  0  0  0  0
 13 19  1  0  0  0  0
 14 15  1  6  0  0  0
 14 17  1  0  0  0  0
 15 16  2  0  0  0  0
 17 18  1  0  0  0  0
 19 18  1  6  0  0  0
M  END
>  <CHROM.1>
-55.54932610,-58.58932898,18.79458203,27.88793323,36.91970773,1.10895318
1.09553383,-0.43501499

>  <Name>
ligand

>  <RI>
0

>  <Rbt.Current_Directory>
/home/itssahil/PROJECTS/Mol_Feturizer/New_Systems/rnas/3SKL

>  <Rbt.Executable>
rbdock ($Id: //depot/dev/client3/rdock/2013.1/src/exe/rbdock.cxx#4 $)

>  <Rbt.Library>
libRbt.so (2013.1, Build901 2013/11/27)

>  <Rbt.Parameter_File>
/export/apps/rDock/src/rDock_2013.1_src/data/scripts/dock_solv.prm

>  <Rbt.Receptor>
prm/pocket_docking_5.prm

>  <SCORE>
-17.4667

>  <SCORE.INTER>
-17.4031

>  <SCORE.INTER.CONST>
1

>  <SCORE.INTER.POLAR>
0

>  <SCORE.INTER.ROT>
2

>  <SCORE.INTER.SOLV>
17.0573

>  <SCORE.INTER.VDW>
-22.2212

>  <SCORE.INTER.norm>
-0.915954

>  <SCORE.INTRA>
-0.063532

>  <SCORE.INTRA.DIHEDRAL>
-0.224245

>  <SCORE.INTRA.DIHEDRAL.0>
1.50031

>  <SCORE.INTRA.POLAR>
0

>  <SCORE.INTRA.POLAR.0>
0

>  <SCORE.INTRA.REPUL>
0

>  <SCORE.INTRA.REPUL.0>
0

>  <SCORE.INTRA.SOLV>
0.00688143

>  <SCORE.INTRA.SOLV.lig_0>
-37.9941

>  <SCORE.INTRA.VDW>
0.0451498

>  <SCORE.INTRA.VDW.0>
-0.964461

>  <SCORE.INTRA.norm>
-0.00334379

>  <SCORE.RESTR>
0

>  <SCORE.RESTR.CAVITY>
0

>  <SCORE.RESTR.norm>
0

>  <SCORE.SYSTEM>
0

>  <SCORE.SYSTEM.CONST>
0

>  <SCORE.SYSTEM.DIHEDRAL>
0

>  <SCORE.SYSTEM.SOLV>
0

>  <SCORE.SYSTEM.norm>
0

>  <SCORE.heavy>
19

>  <SCORE.norm>
-0.919298

>  <RMSD>
0.998

$$$$
ligand
 OpenBabel11021811483D
libRbt.so/2013.1/901 2013/11/27
 19 21  0  0  0  0  0  0  0  0999 V2000
   17.5132   29.5246   33.9624 C   0  0  0  0  0  0  0  0  0  0  0  0
   17.8469   28.1281   33.8790 O   0  0  0  0  0  0  0  0  0  0  0  0
   18.4746   30.2717   34.8928 C   0  0  1  0  0  0  0  0  0  0  0  0
   18.4903   29.6685   36.1863 O   0  0  0  0  0  0  0  0  0  0  0  0
   19.8998   30.2427   34.3741 C   0  0  1  0  0  0  0  0  0  0  0  0
   20.4523   31.5535   34.5018 O   0  0  0  0  0  0  0  0  0  0  0  0
   20.6669   29.2979   35.2713 C   0  0  0  0  0  0  0  0  0  0  0  0
   19.7790   29.1102   36.4879 C   0  0  2  0  0  0  0  0  0  0  0  0
   17.6610   25.9145   39.9606 N   0  0  0  0  0  0  0  0  0  0  0  0
   17.6667   27.2674   39.8888 C   0  0  2  0  0  0  0  0  0  0  0  0
   17.0339   27.9985   40.8306 N   0  0  0  0  0  0  0  0  0  0  0  0
   18.2943   27.9200   38.8878 N   0  0  0  0  0  0  0  0  0  0  0  0
   18.9460   27.2550   37.9125 C   0  0  1  0  0  0  0  0  0  0  0  0
   18.9863   25.8797   37.9232 C   0  0  1  0  0  0  0  0  0  0  0  0
   18.2912   25.1730   39.0272 C   0  0  0  0  0  0  0  0  0  0  0  0
   18.2944   23.9239   39.0935 O   0  0  0  0  0  0  0  0  0  0  0  0
   19.6907   25.4832   36.8494 N   0  0  0  0  0  0  0  0  0  0  0  0
   20.0756   26.6020   36.1930 C   0  0  0  0  0  0  0  0  0  0  0  0
   19.6137   27.6774   36.8511 N   0  0  1  0  0  0  0  0  0  0  0  0
  1  2  1  0  0  0  0
  3  1  1  6  0  0  0
  3  4  1  0  0  0  0
  3  5  1  0  0  0  0
  5  6  1  1  0  0  0
  5  7  1  0  0  0  0
  7  8  1  0  0  0  0
  8  4  1  6  0  0  0
  8 19  1  0  0  0  0
  9 15  1  0  0  0  0
  9 10  1  0  0  0  0
 10 11  1  6  0  0  0
 10 12  1  0  0  0  0
 13 12  1  6  0  0  0
 13 14  1  0  0  0  0
 13 19  1  0  0  0  0
 14 15  1  6  0  0  0
 14 17  1  0  0  0  0
 15 16  2  0  0  0  0
 17 18  1  0  0  0  0
 19 18  1  6  0  0  0
M  END
>  <CHROM.1>
-56.00354584,-64.07540244,18.81836187,27.88175372,36.93950135,-1.07167314
-1.17262360,2.75962890

>  <Name>
ligand

>  <RI>
0

>  <Rbt.Current_Directory>
/home/itssahil/PROJECTS/Mol_Feturizer/New_Systems/rnas/3SKL

>  <Rbt.Executable>
rbdock ($Id: //depot/dev/client3/rdock/2013.1/src/exe/rbdock.cxx#4 $)

>  <Rbt.Library>
libRbt.so (2013.1, Build901 2013/11/27)

>  <Rbt.Parameter_File>
/export/apps/rDock/src/rDock_2013.1_src/data/scripts/dock_solv.prm

>  <Rbt.Receptor>
prm/pocket_docking_7.prm

>  <SCORE>
-17.2263

>  <SCORE.INTER>
-17.1549

>  <SCORE.INTER.CONST>
1

>  <SCORE.INTER.POLAR>
0

>  <SCORE.INTER.ROT>
2

>  <SCORE.INTER.SOLV>
16.8683

>  <SCORE.INTER.VDW>
-21.9927

>  <SCORE.INTER.norm>
-0.902892

>  <SCORE.INTRA>
-0.0713093

>  <SCORE.INTRA.DIHEDRAL>
-0.245248

>  <SCORE.INTRA.DIHEDRAL.0>
1.50031

>  <SCORE.INTRA.POLAR>
0

>  <SCORE.INTRA.POLAR.0>
0

>  <SCORE.INTRA.REPUL>
0

>  <SCORE.INTRA.REPUL.0>
0

>  <SCORE.INTRA.SOLV>
0.0112704

>  <SCORE.INTRA.SOLV.lig_0>
-37.9941

>  <SCORE.INTRA.VDW>
0.0456797

>  <SCORE.INTRA.VDW.0>
-0.964461

>  <SCORE.INTRA.norm>
-0.00375312

>  <SCORE.RESTR>
0

>  <SCORE.RESTR.CAVITY>
0

>  <SCORE.RESTR.norm>
0

>  <SCORE.SYSTEM>
0

>  <SCORE.SYSTEM.CONST>
0

>  <SCORE.SYSTEM.DIHEDRAL>
0

>  <SCORE.SYSTEM.SOLV>
0

>  <SCORE.SYSTEM.norm>
0

>  <SCORE.heavy>
19

>  <SCORE.norm>
-0.906645

>  <RMSD>
0.999

$$$$
ligand
 OpenBabel11021811483D
libRbt.so/2013.1/901 2013/11/27
 19 21  0  0  0  0  0  0  0  0999 V2000
   17.3924   29.6147   34.1534 C   0  0  0  0  0  0  0  0  0  0  0  0
   17.6285   28.2021   34.0212 O   0  0  0  0  0  0  0  0  0  0  0  0
   18.5208   30.2967   34.9341 C   0  0  1  0  0  0  0  0  0  0  0  0
   18.6511   29.7200   36.2333 O   0  0  0  0  0  0  0  0  0  0  0  0
   19.8619   30.1381   34.2434 C   0  0  1  0  0  0  0  0  0  0  0  0
   20.5302   31.4002   34.2619 O   0  0  0  0  0  0  0  0  0  0  0  0
   20.6575   29.1502   35.0663 C   0  0  0  0  0  0  0  0  0  0  0  0
   19.9183   29.0616   36.3889 C   0  0  2  0  0  0  0  0  0  0  0  0
   17.4333   26.1111   39.8353 N   0  0  0  0  0  0  0  0  0  0  0  0
   17.4810   27.4575   39.6920 C   0  0  2  0  0  0  0  0  0  0  0  0
   16.7915   28.2535   40.5363 N   0  0  0  0  0  0  0  0  0  0  0  0
   18.2072   28.0396   38.7144 N   0  0  0  0  0  0  0  0  0  0  0  0
   18.9201   27.3072   37.8349 C   0  0  1  0  0  0  0  0  0  0  0  0
   18.9227   25.9341   37.9225 C   0  0  1  0  0  0  0  0  0  0  0  0
   18.1192   25.3052   38.9997 C   0  0  0  0  0  0  0  0  0  0  0  0
   18.0836   24.0620   39.1327 O   0  0  0  0  0  0  0  0  0  0  0  0
   19.7035   25.4632   36.9350 N   0  0  0  0  0  0  0  0  0  0  0  0
   20.1715   26.5351   36.2547 C   0  0  0  0  0  0  0  0  0  0  0  0
   19.6851   27.6552   36.8129 N   0  0  1  0  0  0  0  0  0  0  0  0
  1  2  1  0  0  0  0
  3  1  1  6  0  0  0
  3  4  1  0  0  0  0
  3  5  1  0  0  0  0
  5  6  1  1  0  0  0
  5  7  1  0  0  0  0
  7  8  1  0  0  0  0
  8  4  1  6  0  0  0
  8 19  1  0  0  0  0
  9 15  1  0  0  0  0
  9 10  1  0  0  0  0
 10 11  1  6  0  0  0
 10 12  1  0  0  0  0
 13 12  1  6  0  0  0
 13 14  1  0  0  0  0
 13 19  1  0  0  0  0
 14 15  1  6  0  0  0
 14 17  1  0  0  0  0
 15 16  2  0  0  0  0
 17 18  1  0  0  0  0
 19 18  1  6  0  0  0
M  END
>  <CHROM.1>
-58.51454658,-51.46773871,18.76553652,27.92404598,36.88832022,1.16920117
0.97303171,-0.51783203

>  <Name>
ligand

>  <RI>
0

>  <Rbt.Current_Directory>
/home/itssahil/PROJECTS/Mol_Feturizer/New_Systems/rnas/3SKL

>  <Rbt.Executable>
rbdock ($Id: //depot/dev/client3/rdock/2013.1/src/exe/rbdock.cxx#4 $)

>  <Rbt.Library>
libRbt.so (2013.1, Build901 2013/11/27)

>  <Rbt.Parameter_File>
/export/apps/rDock/src/rDock_2013.1_src/data/scripts/dock_solv.prm

>  <Rbt.Receptor>
prm/blind_docking_60.prm

>  <SCORE>
-17.3663

>  <SCORE.INTER>
-17.2954

>  <SCORE.INTER.CONST>
1

>  <SCORE.INTER.POLAR>
0

>  <SCORE.INTER.ROT>
2

>  <SCORE.INTER.SOLV>
17.3531

>  <SCORE.INTER.VDW>
-22.2479

>  <SCORE.INTER.norm>
-0.910283

>  <SCORE.INTRA>
-0.07095

>  <SCORE.INTRA.DIHEDRAL>
-0.279483

>  <SCORE.INTRA.DIHEDRAL.0>
1.50031

>  <SCORE.INTRA.POLAR>
0

>  <SCORE.INTRA.POLAR.0>
0

>  <SCORE.INTRA.REPUL>
0

>  <SCORE.INTRA.REPUL.0>
0

>  <SCORE.INTRA.SOLV>
-0.00477546

>  <SCORE.INTRA.SOLV.lig_0>
-37.9941

>  <SCORE.INTRA.VDW>
0.0711791

>  <SCORE.INTRA.VDW.0>
-0.964461

>  <SCORE.INTRA.norm>
-0.00373421

>  <SCORE.RESTR>
0

>  <SCORE.RESTR.CAVITY>
0

>  <SCORE.RESTR.norm>
0

>  <SCORE.SYSTEM>
0

>  <SCORE.SYSTEM.CONST>
0

>  <SCORE.SYSTEM.DIHEDRAL>
0

>  <SCORE.SYSTEM.SOLV>
0

>  <SCORE.SYSTEM.norm>
0

>  <SCORE.heavy>
19

>  <SCORE.norm>
-0.914017

>  <RMSD>
1.000

$$$$
ligand
 OpenBabel11021811483D
libRbt.so/2013.1/901 2013/11/27
 19 21  0  0  0  0  0  0  0  0999 V2000
   17.4277   29.5573   34.0666 C   0  0  0  0  0  0  0  0  0  0  0  0
   17.6947   28.1489   33.9486 O   0  0  0  0  0  0  0  0  0  0  0  0
   18.5132   30.2625   34.8865 C   0  0  1  0  0  0  0  0  0  0  0  0
   18.6260   29.6726   36.1813 O   0  0  0  0  0  0  0  0  0  0  0  0
   19.8767   30.1538   34.2308 C   0  0  1  0  0  0  0  0  0  0  0  0
   20.5053   31.4352   34.2835 O   0  0  0  0  0  0  0  0  0  0  0  0
   20.6797   29.1795   35.0625 C   0  0  0  0  0  0  0  0  0  0  0  0
   19.9081   29.0508   36.3633 C   0  0  2  0  0  0  0  0  0  0  0  0
   17.6386   25.9959   39.8668 N   0  0  0  0  0  0  0  0  0  0  0  0
   17.6711   27.3458   39.7563 C   0  0  2  0  0  0  0  0  0  0  0  0
   17.0266   28.1151   40.6589 N   0  0  0  0  0  0  0  0  0  0  0  0
   18.3375   27.9577   38.7546 N   0  0  0  0  0  0  0  0  0  0  0  0
   19.0029   27.2530   37.8172 C   0  0  1  0  0  0  0  0  0  0  0  0
   19.0176   25.8782   37.8686 C   0  0  1  0  0  0  0  0  0  0  0  0
   18.2800   25.2164   38.9729 C   0  0  0  0  0  0  0  0  0  0  0  0
   18.2585   23.9700   39.0751 O   0  0  0  0  0  0  0  0  0  0  0  0
   19.7433   25.4381   36.8264 N   0  0  0  0  0  0  0  0  0  0  0  0
   20.1664   26.5303   36.1489 C   0  0  0  0  0  0  0  0  0  0  0  0
   19.7067   27.6324   36.7628 N   0  0  1  0  0  0  0  0  0  0  0  0
  1  2  1  0  0  0  0
  3  1  1  6  0  0  0
  3  4  1  0  0  0  0
  3  5  1  0  0  0  0
  5  6  1  1  0  0  0
  5  7  1  0  0  0  0
  7  8  1  0  0  0  0
  8  4  1  6  0  0  0
  8 19  1  0  0  0  0
  9 15  1  0  0  0  0
  9 10  1  0  0  0  0
 10 11  1  6  0  0  0
 10 12  1  0  0  0  0
 13 12  1  6  0  0  0
 13 14  1  0  0  0  0
 13 19  1  0  0  0  0
 14 15  1  6  0  0  0
 14 17  1  0  0  0  0
 15 16  2  0  0  0  0
 17 18  1  0  0  0  0
 19 18  1  6  0  0  0
M  END
>  <CHROM.1>
-57.21530178,-56.53920932,18.83814846,27.87636632,36.86481966,1.15656070
1.07601256,-0.48376381

>  <Name>
ligand

>  <RI>
0

>  <Rbt.Current_Directory>
/home/itssahil/PROJECTS/Mol_Feturizer/New_Systems/rnas/3SKL

>  <Rbt.Executable>
rbdock ($Id: //depot/dev/client3/rdock/2013.1/src/exe/rbdock.cxx#4 $)

>  <Rbt.Library>
libRbt.so (2013.1, Build901 2013/11/27)

>  <Rbt.Parameter_File>
/export/apps/rDock/src/rDock_2013.1_src/data/scripts/dock_solv.prm

>  <Rbt.Receptor>
prm/pocket_docking_4.prm

>  <SCORE>
-17.4309

>  <SCORE.INTER>
-17.3596

>  <SCORE.INTER.CONST>
1

>  <SCORE.INTER.POLAR>
0

>  <SCORE.INTER.ROT>
2

>  <SCORE.INTER.SOLV>
16.7063

>  <SCORE.INTER.VDW>
-22.0752

>  <SCORE.INTER.norm>
-0.913664

>  <SCORE.INTRA>
-0.0712396

>  <SCORE.INTRA.DIHEDRAL>
-0.265395

>  <SCORE.INTRA.DIHEDRAL.0>
1.50031

>  <SCORE.INTRA.POLAR>
0

>  <SCORE.INTRA.POLAR.0>
0

>  <SCORE.INTRA.REPUL>
0

>  <SCORE.INTRA.REPUL.0>
0

>  <SCORE.INTRA.SOLV>
0.00235033

>  <SCORE.INTRA.SOLV.lig_0>
-37.9941

>  <SCORE.INTRA.VDW>
0.0602826

>  <SCORE.INTRA.VDW.0>
-0.964461

>  <SCORE.INTRA.norm>
-0.00374945

>  <SCORE.RESTR>
0

>  <SCORE.RESTR.CAVITY>
0

>  <SCORE.RESTR.norm>
0

>  <SCORE.SYSTEM>
0

>  <SCORE.SYSTEM.CONST>
0

>  <SCORE.SYSTEM.DIHEDRAL>
0

>  <SCORE.SYSTEM.SOLV>
0

>  <SCORE.SYSTEM.norm>
0

>  <SCORE.heavy>
19

>  <SCORE.norm>
-0.917413

>  <RMSD>
1.000

$$$$
ligand
 OpenBabel11021811483D
libRbt.so/2013.1/901 2013/11/27
 19 21  0  0  0  0  0  0  0  0999 V2000
   17.4635   29.5557   34.0551 C   0  0  0  0  0  0  0  0  0  0  0  0
   17.7423   28.1480   33.9581 O   0  0  0  0  0  0  0  0  0  0  0  0
   18.5118   30.2726   34.9124 C   0  0  1  0  0  0  0  0  0  0  0  0
   18.5879   29.6816   36.2094 O   0  0  0  0  0  0  0  0  0  0  0  0
   19.8980   30.1820   34.3032 C   0  0  1  0  0  0  0  0  0  0  0  0
   20.5086   31.4709   34.3792 O   0  0  0  0  0  0  0  0  0  0  0  0
   20.6843   29.2161   35.1602 C   0  0  0  0  0  0  0  0  0  0  0  0
   19.8707   29.0753   36.4338 C   0  0  2  0  0  0  0  0  0  0  0  0
   17.5667   25.9886   39.8867 N   0  0  0  0  0  0  0  0  0  0  0  0
   17.5909   27.3392   39.7823 C   0  0  2  0  0  0  0  0  0  0  0  0
   16.9258   28.0999   40.6772 N   0  0  0  0  0  0  0  0  0  0  0  0
   18.2691   27.9604   38.7943 N   0  0  0  0  0  0  0  0  0  0  0  0
   18.9552   27.2647   37.8651 C   0  0  1  0  0  0  0  0  0  0  0  0
   18.9795   25.8898   37.9111 C   0  0  1  0  0  0  0  0  0  0  0  0
   18.2287   25.2178   39.0003 C   0  0  0  0  0  0  0  0  0  0  0  0
   18.2149   23.9708   39.0970 O   0  0  0  0  0  0  0  0  0  0  0  0
   19.7256   25.4596   36.8792 N   0  0  0  0  0  0  0  0  0  0  0  0
   20.1515   26.5577   36.2134 C   0  0  0  0  0  0  0  0  0  0  0  0
   19.6734   27.6537   36.8241 N   0  0  1  0  0  0  0  0  0  0  0  0
  1  2  1  0  0  0  0
  3  1  1  6  0  0  0
  3  4  1  0  0  0  0
  3  5  1  0  0  0  0
  5  6  1  1  0  0  0
  5  7  1  0  0  0  0
  7  8  1  0  0  0  0
  8  4  1  6  0  0  0
  8 19  1  0  0  0  0
  9 15  1  0  0  0  0
  9 10  1  0  0  0  0
 10 11  1  6  0  0  0
 10 12  1  0  0  0  0
 13 12  1  6  0  0  0
 13 14  1  0  0  0  0
 13 19  1  0  0  0  0
 14 15  1  6  0  0  0
 14 17  1  0  0  0  0
 15 16  2  0  0  0  0
 17 18  1  0  0  0  0
 19 18  1  6  0  0  0
M  END
>  <CHROM.1>
-56.47444192,-57.58291529,18.81122181,27.88743058,36.90724870,1.13767175
1.06852717,-0.46338691

>  <Name>
ligand

>  <RI>
0

>  <Rbt.Current_Directory>
/home/itssahil/PROJECTS/Mol_Feturizer/New_Systems/rnas/3SKL

>  <Rbt.Executable>
rbdock ($Id: //depot/dev/client3/rdock/2013.1/src/exe/rbdock.cxx#4 $)

>  <Rbt.Library>
libRbt.so (2013.1, Build901 2013/11/27)

>  <Rbt.Parameter_File>
/export/apps/rDock/src/rDock_2013.1_src/data/scripts/dock_solv.prm

>  <Rbt.Receptor>
prm/pocket_docking_4.prm

>  <SCORE>
-17.5337

>  <SCORE.INTER>
-17.4645

>  <SCORE.INTER.CONST>
1

>  <SCORE.INTER.POLAR>
0

>  <SCORE.INTER.ROT>
2

>  <SCORE.INTER.SOLV>
17.0635

>  <SCORE.INTER.VDW>
-22.2642

>  <SCORE.INTER.norm>
-0.919183

>  <SCORE.INTRA>
-0.0692481

>  <SCORE.INTRA.DIHEDRAL>
-0.249696

>  <SCORE.INTRA.DIHEDRAL.0>
1.50031

>  <SCORE.INTRA.POLAR>
0

>  <SCORE.INTRA.POLAR.0>
0

>  <SCORE.INTRA.REPUL>
0

>  <SCORE.INTRA.REPUL.0>
0

>  <SCORE.INTRA.SOLV>
0.00455613

>  <SCORE.INTRA.SOLV.lig_0>
-37.9941

>  <SCORE.INTRA.VDW>
0.0533219

>  <SCORE.INTRA.VDW.0>
-0.964461

>  <SCORE.INTRA.norm>
-0.00364464

>  <SCORE.RESTR>
0

>  <SCORE.RESTR.CAVITY>
0

>  <SCORE.RESTR.norm>
0

>  <SCORE.SYSTEM>
0

>  <SCORE.SYSTEM.CONST>
0

>  <SCORE.SYSTEM.DIHEDRAL>
0

>  <SCORE.SYSTEM.SOLV>
0

>  <SCORE.SYSTEM.norm>
0

>  <SCORE.heavy>
19

>  <SCORE.norm>
-0.922827

>  <RMSD>
1.000

$$$$
ligand
 OpenBabel11021811483D
libRbt.so/2013.1/901 2013/11/27
 19 21  0  0  0  0  0  0  0  0999 V2000
   17.4408   29.5592   34.0739 C   0  0  0  0  0  0  0  0  0  0  0  0
   17.7251   28.1541   33.9579 O   0  0  0  0  0  0  0  0  0  0  0  0
   18.4972   30.2722   34.9245 C   0  0  1  0  0  0  0  0  0  0  0  0
   18.5781   29.6820   36.2216 O   0  0  0  0  0  0  0  0  0  0  0  0
   19.8795   30.1748   34.3074 C   0  0  1  0  0  0  0  0  0  0  0  0
   20.4963   31.4609   34.3787 O   0  0  0  0  0  0  0  0  0  0  0  0
   20.6663   29.2060   35.1609 C   0  0  0  0  0  0  0  0  0  0  0  0
   19.8594   29.0701   36.4392 C   0  0  2  0  0  0  0  0  0  0  0  0
   17.4845   25.9924   39.8518 N   0  0  0  0  0  0  0  0  0  0  0  0
   17.5063   27.3425   39.7411 C   0  0  2  0  0  0  0  0  0  0  0  0
   16.8172   28.1052   40.6159 N   0  0  0  0  0  0  0  0  0  0  0  0
   18.2057   27.9612   38.7664 N   0  0  0  0  0  0  0  0  0  0  0  0
   18.9164   27.2633   37.8575 C   0  0  1  0  0  0  0  0  0  0  0  0
   18.9445   25.8888   37.9111 C   0  0  1  0  0  0  0  0  0  0  0  0
   18.1703   25.2196   38.9855 C   0  0  0  0  0  0  0  0  0  0  0  0
   18.1586   23.9730   39.0882 O   0  0  0  0  0  0  0  0  0  0  0  0
   19.7166   25.4561   36.8996 N   0  0  0  0  0  0  0  0  0  0  0  0
   20.1544   26.5525   36.2385 C   0  0  0  0  0  0  0  0  0  0  0  0
   19.6579   27.6498   36.8320 N   0  0  1  0  0  0  0  0  0  0  0  0
  1  2  1  0  0  0  0
  3  1  1  6  0  0  0
  3  4  1  0  0  0  0
  3  5  1  0  0  0  0
  5  6  1  1  0  0  0
  5  7  1  0  0  0  0
  7  8  1  0  0  0  0
  8  4  1  6  0  0  0
  8 19  1  0  0  0  0
  9 15  1  0  0  0  0
  9 10  1  0  0  0  0
 10 11  1  6  0  0  0
 10 12  1  0  0  0  0
 13 12  1  6  0  0  0
 13 14  1  0  0  0  0
 13 19  1  0  0  0  0
 14 15  1  6  0  0  0
 14 17  1  0  0  0  0
 15 16  2  0  0  0  0
 17 18  1  0  0  0  0
 19 18  1  6  0  0  0
M  END
>  <CHROM.1>
-57.45253029,-55.80330070,18.77620054,27.88637533,36.90263999,1.15072423
1.02683153,-0.47936048

>  <Name>
ligand

>  <RI>
0

>  <Rbt.Current_Directory>
/home/itssahil/PROJECTS/Mol_Feturizer/New_Systems/rnas/3SKL

>  <Rbt.Executable>
rbdock ($Id: //depot/dev/client3/rdock/2013.1/src/exe/rbdock.cxx#4 $)

>  <Rbt.Library>
libRbt.so (2013.1, Build901 2013/11/27)

>  <Rbt.Parameter_File>
/export/apps/rDock/src/rDock_2013.1_src/data/scripts/dock_solv.prm

>  <Rbt.Receptor>
prm/pocket_docking_8.prm

>  <SCORE>
-17.4324

>  <SCORE.INTER>
-17.3613

>  <SCORE.INTER.CONST>
1

>  <SCORE.INTER.POLAR>
0

>  <SCORE.INTER.ROT>
2

>  <SCORE.INTER.SOLV>
17.4265

>  <SCORE.INTER.VDW>
-22.3164

>  <SCORE.INTER.norm>
-0.913754

>  <SCORE.INTRA>
-0.0711011

>  <SCORE.INTRA.DIHEDRAL>
-0.26908

>  <SCORE.INTRA.DIHEDRAL.0>
1.50031

>  <SCORE.INTRA.POLAR>
0

>  <SCORE.INTRA.POLAR.0>
0

>  <SCORE.INTRA.REPUL>
0

>  <SCORE.INTRA.REPUL.0>
0

>  <SCORE.INTRA.SOLV>
0.00123021

>  <SCORE.INTRA.SOLV.lig_0>
-37.9941

>  <SCORE.INTRA.VDW>
0.0628237

>  <SCORE.INTRA.VDW.0>
-0.964461

>  <SCORE.INTRA.norm>
-0.00374216

>  <SCORE.RESTR>
0

>  <SCORE.RESTR.CAVITY>
0

>  <SCORE.RESTR.norm>
0

>  <SCORE.SYSTEM>
0

>  <SCORE.SYSTEM.CONST>
0

>  <SCORE.SYSTEM.DIHEDRAL>
0

>  <SCORE.SYSTEM.SOLV>
0

>  <SCORE.SYSTEM.norm>
0

>  <SCORE.heavy>
19

>  <SCORE.norm>
-0.917496

>  <RMSD>
1.000

$$$$
ligand
 OpenBabel11021811483D
libRbt.so/2013.1/901 2013/11/27
 19 21  0  0  0  0  0  0  0  0999 V2000
   17.4395   29.5596   34.0679 C   0  0  0  0  0  0  0  0  0  0  0  0
   17.7091   28.1521   33.9461 O   0  0  0  0  0  0  0  0  0  0  0  0
   18.5174   30.2626   34.8998 C   0  0  1  0  0  0  0  0  0  0  0  0
   18.6169   29.6702   36.1946 O   0  0  0  0  0  0  0  0  0  0  0  0
   19.8872   30.1540   34.2574 C   0  0  1  0  0  0  0  0  0  0  0  0
   20.5163   31.4348   34.3187 O   0  0  0  0  0  0  0  0  0  0  0  0
   20.6812   29.1776   35.0954 C   0  0  0  0  0  0  0  0  0  0  0  0
   19.8966   29.0471   36.3882 C   0  0  2  0  0  0  0  0  0  0  0  0
   17.5418   25.9850   39.8285 N   0  0  0  0  0  0  0  0  0  0  0  0
   17.5714   27.3350   39.7178 C   0  0  2  0  0  0  0  0  0  0  0  0
   16.8981   28.1021   40.6009 N   0  0  0  0  0  0  0  0  0  0  0  0
   18.2634   27.9490   38.7349 N   0  0  0  0  0  0  0  0  0  0  0  0
   18.9583   27.2465   37.8174 C   0  0  1  0  0  0  0  0  0  0  0  0
   18.9776   25.8718   37.8705 C   0  0  1  0  0  0  0  0  0  0  0  0
   18.2118   25.2076   38.9540 C   0  0  0  0  0  0  0  0  0  0  0  0
   18.1928   23.9612   39.0567 O   0  0  0  0  0  0  0  0  0  0  0  0
   19.7346   25.4341   36.8498 N   0  0  0  0  0  0  0  0  0  0  0  0
   20.1720   26.5276   36.1836 C   0  0  0  0  0  0  0  0  0  0  0  0
   19.6901   27.6281   36.7832 N   0  0  1  0  0  0  0  0  0  0  0  0
  1  2  1  0  0  0  0
  3  1  1  6  0  0  0
  3  4  1  0  0  0  0
  3  5  1  0  0  0  0
  5  6  1  1  0  0  0
  5  7  1  0  0  0  0
  7  8  1  0  0  0  0
  8  4  1  6  0  0  0
  8 19  1  0  0  0  0
  9 15  1  0  0  0  0
  9 10  1  0  0  0  0
 10 11  1  6  0  0  0
 10 12  1  0  0  0  0
 13 12  1  6  0  0  0
 13 14  1  0  0  0  0
 13 19  1  0  0  0  0
 14 15  1  6  0  0  0
 14 17  1  0  0  0  0
 15 16  2  0  0  0  0
 17 18  1  0  0  0  0
 19 18  1  6  0  0  0
M  END
>  <CHROM.1>
-57.41215115,-55.42598776,18.80721976,27.87188824,36.86675079,1.15578239
1.03613460,-0.48339192

>  <Name>
ligand

>  <RI>
0

>  <Rbt.Current_Directory>
/home/itssahil/PROJECTS/Mol_Feturizer/New_Systems/rnas/3SKL

>  <Rbt.Executable>
rbdock ($Id: //depot/dev/client3/rdock/2013.1/src/exe/rbdock.cxx#4 $)

>  <Rbt.Library>
libRbt.so (2013.1, Build901 2013/11/27)

>  <Rbt.Parameter_File>
/export/apps/rDock/src/rDock_2013.1_src/data/scripts/dock_solv.prm

>  <Rbt.Receptor>
prm/pocket_docking_7.prm

>  <SCORE>
-17.4527

>  <SCORE.INTER>
-17.382

>  <SCORE.INTER.CONST>
1

>  <SCORE.INTER.POLAR>
0

>  <SCORE.INTER.ROT>
2

>  <SCORE.INTER.SOLV>
17.0551

>  <SCORE.INTER.VDW>
-22.2064

>  <SCORE.INTER.norm>
-0.914842

>  <SCORE.INTRA>
-0.0707185

>  <SCORE.INTRA.DIHEDRAL>
-0.267838

>  <SCORE.INTRA.DIHEDRAL.0>
1.50031

>  <SCORE.INTRA.POLAR>
0

>  <SCORE.INTRA.POLAR.0>
0

>  <SCORE.INTRA.REPUL>
0

>  <SCORE.INTRA.REPUL.0>
0

>  <SCORE.INTRA.SOLV>
0.00093019

>  <SCORE.INTRA.SOLV.lig_0>
-37.9941

>  <SCORE.INTRA.VDW>
0.0627355

>  <SCORE.INTRA.VDW.0>
-0.964461

>  <SCORE.INTRA.norm>
-0.00372203

>  <SCORE.RESTR>
0

>  <SCORE.RESTR.CAVITY>
0

>  <SCORE.RESTR.norm>
0

>  <SCORE.SYSTEM>
0

>  <SCORE.SYSTEM.CONST>
0

>  <SCORE.SYSTEM.DIHEDRAL>
0

>  <SCORE.SYSTEM.SOLV>
0

>  <SCORE.SYSTEM.norm>
0

>  <SCORE.heavy>
19

>  <SCORE.norm>
-0.918565

>  <RMSD>
1.002

$$$$
ligand
 OpenBabel11021811483D
libRbt.so/2013.1/901 2013/11/27
 19 21  0  0  0  0  0  0  0  0999 V2000
   17.4241   29.5595   34.0712 C   0  0  0  0  0  0  0  0  0  0  0  0
   17.6745   28.1467   33.9716 O   0  0  0  0  0  0  0  0  0  0  0  0
   18.5110   30.2605   34.8929 C   0  0  1  0  0  0  0  0  0  0  0  0
   18.6227   29.6671   36.1862 O   0  0  0  0  0  0  0  0  0  0  0  0
   19.8743   30.1508   34.2369 C   0  0  1  0  0  0  0  0  0  0  0  0
   20.5055   31.4308   34.2929 O   0  0  0  0  0  0  0  0  0  0  0  0
   20.6754   29.1728   35.0662 C   0  0  0  0  0  0  0  0  0  0  0  0
   19.9035   29.0423   36.3666 C   0  0  2  0  0  0  0  0  0  0  0  0
   17.6436   25.9837   39.8731 N   0  0  0  0  0  0  0  0  0  0  0  0
   17.6803   27.3339   39.7670 C   0  0  2  0  0  0  0  0  0  0  0  0
   17.0440   28.1025   40.6759 N   0  0  0  0  0  0  0  0  0  0  0  0
   18.3430   27.9468   38.7634 N   0  0  0  0  0  0  0  0  0  0  0  0
   19.0004   27.2429   37.8197 C   0  0  1  0  0  0  0  0  0  0  0  0
   19.0104   25.8678   37.8664 C   0  0  1  0  0  0  0  0  0  0  0  0
   18.2769   25.2050   38.9728 C   0  0  0  0  0  0  0  0  0  0  0  0
   18.2514   23.9583   39.0709 O   0  0  0  0  0  0  0  0  0  0  0  0
   19.7283   25.4287   36.8184 N   0  0  0  0  0  0  0  0  0  0  0  0
   20.1514   26.5216   36.1422 C   0  0  0  0  0  0  0  0  0  0  0  0
   19.6993   27.6233   36.7625 N   0  0  1  0  0  0  0  0  0  0  0  0
  1  2  1  0  0  0  0
  3  1  1  6  0  0  0
  3  4  1  0  0  0  0
  3  5  1  0  0  0  0
  5  6  1  1  0  0  0
  5  7  1  0  0  0  0
  7  8  1  0  0  0  0
  8  4  1  6  0  0  0
  8 19  1  0  0  0  0
  9 15  1  0  0  0  0
  9 10  1  0  0  0  0
 10 11  1  6  0  0  0
 10 12  1  0  0  0  0
 13 12  1  6  0  0  0
 13 14  1  0  0  0  0
 13 19  1  0  0  0  0
 14 15  1  6  0  0  0
 14 17  1  0  0  0  0
 15 16  2  0  0  0  0
 17 18  1  0  0  0  0
 19 18  1  6  0  0  0
M  END
>  <CHROM.1>
-56.08605528,-56.89399198,18.83484876,27.86866723,36.86954549,1.15097647
1.08477787,-0.47549397

>  <Name>
ligand

>  <RI>
0

>  <Rbt.Current_Directory>
/home/itssahil/PROJECTS/Mol_Feturizer/New_Systems/rnas/3SKL

>  <Rbt.Executable>
rbdock ($Id: //depot/dev/client3/rdock/2013.1/src/exe/rbdock.cxx#4 $)

>  <Rbt.Library>
libRbt.so (2013.1, Build901 2013/11/27)

>  <Rbt.Parameter_File>
/export/apps/rDock/src/rDock_2013.1_src/data/scripts/dock_solv.prm

>  <Rbt.Receptor>
prm/pocket_docking_4.prm

>  <SCORE>
-17.4308

>  <SCORE.INTER>
-17.3653

>  <SCORE.INTER.CONST>
1

>  <SCORE.INTER.POLAR>
0

>  <SCORE.INTER.ROT>
2

>  <SCORE.INTER.SOLV>
16.6798

>  <SCORE.INTER.VDW>
-22.0702

>  <SCORE.INTER.norm>
-0.913965

>  <SCORE.INTRA>
-0.0654453

>  <SCORE.INTRA.DIHEDRAL>
-0.238306

>  <SCORE.INTRA.DIHEDRAL.0>
1.50031

>  <SCORE.INTRA.POLAR>
0

>  <SCORE.INTRA.POLAR.0>
0

>  <SCORE.INTRA.REPUL>
0

>  <SCORE.INTRA.REPUL.0>
0

>  <SCORE.INTRA.SOLV>
0.00448239

>  <SCORE.INTRA.SOLV.lig_0>
-37.9941

>  <SCORE.INTRA.VDW>
0.0514666

>  <SCORE.INTRA.VDW.0>
-0.964461

>  <SCORE.INTRA.norm>
-0.00344449

>  <SCORE.RESTR>
0

>  <SCORE.RESTR.CAVITY>
0

>  <SCORE.RESTR.norm>
0

>  <SCORE.SYSTEM>
0

>  <SCORE.SYSTEM.CONST>
0

>  <SCORE.SYSTEM.DIHEDRAL>
0

>  <SCORE.SYSTEM.SOLV>
0

>  <SCORE.SYSTEM.norm>
0

>  <SCORE.heavy>
19

>  <SCORE.norm>
-0.917409

>  <RMSD>
1.005

$$$$
ligand
 OpenBabel11021811483D
libRbt.so/2013.1/901 2013/11/27
 19 21  0  0  0  0  0  0  0  0999 V2000
   17.4974   29.5120   33.9646 C   0  0  0  0  0  0  0  0  0  0  0  0
   17.8665   28.1311   33.8047 O   0  0  0  0  0  0  0  0  0  0  0  0
   18.4837   30.2495   34.8763 C   0  0  1  0  0  0  0  0  0  0  0  0
   18.5246   29.6409   36.1668 O   0  0  0  0  0  0  0  0  0  0  0  0
   19.8967   30.2144   34.3258 C   0  0  1  0  0  0  0  0  0  0  0  0
   20.4598   31.5214   34.4465 O   0  0  0  0  0  0  0  0  0  0  0  0
   20.6781   29.2614   35.2019 C   0  0  0  0  0  0  0  0  0  0  0  0
   19.8164   29.0738   36.4372 C   0  0  2  0  0  0  0  0  0  0  0  0
   17.7368   25.8753   39.9305 N   0  0  0  0  0  0  0  0  0  0  0  0
   17.7468   27.2284   39.8629 C   0  0  2  0  0  0  0  0  0  0  0  0
   17.1308   27.9589   40.8162 N   0  0  0  0  0  0  0  0  0  0  0  0
   18.3624   27.8818   38.8549 N   0  0  0  0  0  0  0  0  0  0  0  0
   18.9970   27.2173   37.8681 C   0  0  1  0  0  0  0  0  0  0  0  0
   19.0320   25.8419   37.8738 C   0  0  1  0  0  0  0  0  0  0  0  0
   18.3503   25.1344   38.9857 C   0  0  0  0  0  0  0  0  0  0  0  0
   18.3495   23.8851   39.0479 O   0  0  0  0  0  0  0  0  0  0  0  0
   19.7189   25.4461   36.7885 N   0  0  0  0  0  0  0  0  0  0  0  0
   20.0986   26.5655   36.1300 C   0  0  0  0  0  0  0  0  0  0  0  0
   19.6507   27.6405   36.7983 N   0  0  1  0  0  0  0  0  0  0  0  0
  1  2  1  0  0  0  0
  3  1  1  6  0  0  0
  3  4  1  0  0  0  0
  3  5  1  0  0  0  0
  5  6  1  1  0  0  0
  5  7  1  0  0  0  0
  7  8  1  0  0  0  0
  8  4  1  6  0  0  0
  8 19  1  0  0  0  0
  9 15  1  0  0  0  0
  9 10  1  0  0  0  0
 10 11  1  6  0  0  0
 10 12  1  0  0  0  0
 13 12  1  6  0  0  0
 13 14  1  0  0  0  0
 13 19  1  0  0  0  0
 14 15  1  6  0  0  0
 14 17  1  0  0  0  0
 15 16  2  0  0  0  0
 17 18  1  0  0  0  0
 19 18  1  6  0  0  0
M  END
>  <CHROM.1>
-59.42874756,-63.62156621,18.85573198,27.84999252,36.89765152,-1.08230314
-1.18713714,2.75211524

>  <Name>
ligand

>  <RI>
0

>  <Rbt.Current_Directory>
/home/itssahil/PROJECTS/Mol_Feturizer/New_Systems/rnas/3SKL

>  <Rbt.Executable>
rbdock ($Id: //depot/dev/client3/rdock/2013.1/src/exe/rbdock.cxx#4 $)

>  <Rbt.Library>
libRbt.so (2013.1, Build901 2013/11/27)

>  <Rbt.Parameter_File>
/export/apps/rDock/src/rDock_2013.1_src/data/scripts/dock_solv.prm

>  <Rbt.Receptor>
prm/pocket_docking_5.prm

>  <SCORE>
-17.2025

>  <SCORE.INTER>
-17.1299

>  <SCORE.INTER.CONST>
1

>  <SCORE.INTER.POLAR>
0

>  <SCORE.INTER.ROT>
2

>  <SCORE.INTER.SOLV>
16.4549

>  <SCORE.INTER.VDW>
-21.8382

>  <SCORE.INTER.norm>
-0.901573

>  <SCORE.INTRA>
-0.0725796

>  <SCORE.INTRA.DIHEDRAL>
-0.302064

>  <SCORE.INTRA.DIHEDRAL.0>
1.50031

>  <SCORE.INTRA.POLAR>
0

>  <SCORE.INTRA.POLAR.0>
0

>  <SCORE.INTRA.REPUL>
0

>  <SCORE.INTRA.REPUL.0>
0

>  <SCORE.INTRA.SOLV>
0.00474827

>  <SCORE.INTRA.SOLV.lig_0>
-37.9941

>  <SCORE.INTRA.VDW>
0.0760785

>  <SCORE.INTRA.VDW.0>
-0.964461

>  <SCORE.INTRA.norm>
-0.00381998

>  <SCORE.RESTR>
0

>  <SCORE.RESTR.CAVITY>
0

>  <SCORE.RESTR.norm>
0

>  <SCORE.SYSTEM>
0

>  <SCORE.SYSTEM.CONST>
0

>  <SCORE.SYSTEM.DIHEDRAL>
0

>  <SCORE.SYSTEM.SOLV>
0

>  <SCORE.SYSTEM.norm>
0

>  <SCORE.heavy>
19

>  <SCORE.norm>
-0.905393

>  <RMSD>
1.006

$$$$
ligand
 OpenBabel11021811483D
libRbt.so/2013.1/901 2013/11/27
 19 21  0  0  0  0  0  0  0  0999 V2000
   17.5248   29.5804   33.9827 C   0  0  0  0  0  0  0  0  0  0  0  0
   17.8127   28.1749   33.8813 O   0  0  0  0  0  0  0  0  0  0  0  0
   18.5407   30.2929   34.8817 C   0  0  1  0  0  0  0  0  0  0  0  0
   18.5776   29.6877   36.1739 O   0  0  0  0  0  0  0  0  0  0  0  0
   19.9465   30.2160   34.3172 C   0  0  1  0  0  0  0  0  0  0  0  0
   20.5474   31.5070   34.4274 O   0  0  0  0  0  0  0  0  0  0  0  0
   20.7096   29.2443   35.1888 C   0  0  0  0  0  0  0  0  0  0  0  0
   19.8556   29.0852   36.4335 C   0  0  2  0  0  0  0  0  0  0  0  0
   17.7141   25.9583   39.9540 N   0  0  0  0  0  0  0  0  0  0  0  0
   17.7607   27.3104   39.8810 C   0  0  2  0  0  0  0  0  0  0  0  0
   17.1719   28.0611   40.8357 N   0  0  0  0  0  0  0  0  0  0  0  0
   18.3867   27.9428   38.8660 N   0  0  0  0  0  0  0  0  0  0  0  0
   18.9958   27.2574   37.8774 C   0  0  1  0  0  0  0  0  0  0  0  0
   18.9931   25.8816   37.8884 C   0  0  1  0  0  0  0  0  0  0  0  0
   18.3002   25.1972   39.0078 C   0  0  0  0  0  0  0  0  0  0  0  0
   18.2656   23.9487   39.0750 O   0  0  0  0  0  0  0  0  0  0  0  0
   19.6611   25.4630   36.7998 N   0  0  0  0  0  0  0  0  0  0  0  0
   20.0667   26.5690   36.1343 C   0  0  0  0  0  0  0  0  0  0  0  0
   19.6532   27.6584   36.8014 N   0  0  1  0  0  0  0  0  0  0  0  0
  1  2  1  0  0  0  0
  3  1  1  6  0  0  0
  3  4  1  0  0  0  0
  3  5  1  0  0  0  0
  5  6  1  1  0  0  0
  5  7  1  0  0  0  0
  7  8  1  0  0  0  0
  8  4  1  6  0  0  0
  8 19  1  0  0  0  0
  9 15  1  0  0  0  0
  9 10  1  0  0  0  0
 10 11  1  6  0  0  0
 10 12  1  0  0  0  0
 13 12  1  6  0  0  0
 13 14  1  0  0  0  0
 13 19  1  0  0  0  0
 14 15  1  6  0  0  0
 14 17  1  0  0  0  0
 15 16  2  0  0  0  0
 17 18  1  0  0  0  0
 19 18  1  6  0  0  0
M  END
>  <CHROM.1>
-56.37223361,-63.44259163,18.86068556,27.88966632,36.91001776,-1.02854187
-1.19858930,2.79938162

>  <Name>
ligand

>  <RI>
0

>  <Rbt.Current_Directory>
/home/itssahil/PROJECTS/Mol_Feturizer/New_Systems/rnas/3SKL

>  <Rbt.Executable>
rbdock ($Id: //depot/dev/client3/rdock/2013.1/src/exe/rbdock.cxx#4 $)

>  <Rbt.Library>
libRbt.so (2013.1, Build901 2013/11/27)

>  <Rbt.Parameter_File>
/export/apps/rDock/src/rDock_2013.1_src/data/scripts/dock_solv.prm

>  <Rbt.Receptor>
prm/pocket_docking_3.prm

>  <SCORE>
-17.1735

>  <SCORE.INTER>
-17.1026

>  <SCORE.INTER.CONST>
1

>  <SCORE.INTER.POLAR>
0

>  <SCORE.INTER.ROT>
2

>  <SCORE.INTER.SOLV>
16.4621

>  <SCORE.INTER.VDW>
-21.8225

>  <SCORE.INTER.norm>
-0.900139

>  <SCORE.INTRA>
-0.0708112

>  <SCORE.INTRA.DIHEDRAL>
-0.254648

>  <SCORE.INTRA.DIHEDRAL.0>
1.50031

>  <SCORE.INTRA.POLAR>
0

>  <SCORE.INTRA.POLAR.0>
0

>  <SCORE.INTRA.REPUL>
0

>  <SCORE.INTRA.REPUL.0>
0

>  <SCORE.INTRA.SOLV>
0.010147

>  <SCORE.INTRA.SOLV.lig_0>
-37.9941

>  <SCORE.INTRA.VDW>
0.0514394

>  <SCORE.INTRA.VDW.0>
-0.964461

>  <SCORE.INTRA.norm>
-0.00372691

>  <SCORE.RESTR>
0

>  <SCORE.RESTR.CAVITY>
0

>  <SCORE.RESTR.norm>
0

>  <SCORE.SYSTEM>
0

>  <SCORE.SYSTEM.CONST>
0

>  <SCORE.SYSTEM.DIHEDRAL>
0

>  <SCORE.SYSTEM.SOLV>
0

>  <SCORE.SYSTEM.norm>
0

>  <SCORE.heavy>
19

>  <SCORE.norm>
-0.903866

>  <RMSD>
1.009

$$$$
ligand
 OpenBabel11021811483D
libRbt.so/2013.1/901 2013/11/27
 19 21  0  0  0  0  0  0  0  0999 V2000
   17.4618   29.5808   34.0879 C   0  0  0  0  0  0  0  0  0  0  0  0
   17.7473   28.1774   33.9549 O   0  0  0  0  0  0  0  0  0  0  0  0
   18.5283   30.2880   34.9307 C   0  0  1  0  0  0  0  0  0  0  0  0
   18.6204   29.6928   36.2248 O   0  0  0  0  0  0  0  0  0  0  0  0
   19.9042   30.1894   34.2998 C   0  0  1  0  0  0  0  0  0  0  0  0
   20.5249   31.4738   34.3697 O   0  0  0  0  0  0  0  0  0  0  0  0
   20.6969   29.2156   35.1419 C   0  0  0  0  0  0  0  0  0  0  0  0
   19.9022   29.0770   36.4276 C   0  0  2  0  0  0  0  0  0  0  0  0
   17.5554   25.9927   39.8536 N   0  0  0  0  0  0  0  0  0  0  0  0
   17.5797   27.3432   39.7478 C   0  0  2  0  0  0  0  0  0  0  0  0
   16.9021   28.1044   40.6328 N   0  0  0  0  0  0  0  0  0  0  0  0
   18.2704   27.9636   38.7681 N   0  0  0  0  0  0  0  0  0  0  0  0
   18.9695   27.2674   37.8490 C   0  0  1  0  0  0  0  0  0  0  0  0
   18.9943   25.8926   37.8971 C   0  0  1  0  0  0  0  0  0  0  0  0
   18.2298   25.2213   38.9771 C   0  0  0  0  0  0  0  0  0  0  0  0
   18.2158   23.9744   39.0753 O   0  0  0  0  0  0  0  0  0  0  0  0
   19.7545   25.4617   36.8758 N   0  0  0  0  0  0  0  0  0  0  0  0
   20.1882   26.5594   36.2142 C   0  0  0  0  0  0  0  0  0  0  0  0
   19.7011   27.6558   36.8172 N   0  0  1  0  0  0  0  0  0  0  0  0
  1  2  1  0  0  0  0
  3  1  1  6  0  0  0
  3  4  1  0  0  0  0
  3  5  1  0  0  0  0
  5  6  1  1  0  0  0
  5  7  1  0  0  0  0
  7  8  1  0  0  0  0
  8  4  1  6  0  0  0
  8 19  1  0  0  0  0
  9 15  1  0  0  0  0
  9 10  1  0  0  0  0
 10 11  1  6  0  0  0
 10 12  1  0  0  0  0
 13 12  1  6  0  0  0
 13 14  1  0  0  0  0
 13 19  1  0  0  0  0
 14 15  1  6  0  0  0
 14 17  1  0  0  0  0
 15 16  2  0  0  0  0
 17 18  1  0  0  0  0
 19 18  1  6  0  0  0
M  END
>  <CHROM.1>
-57.92334011,-55.85461797,18.82165467,27.89439839,36.89719090,1.15416052
1.03910679,-0.47858600

>  <Name>
ligand

>  <RI>
0

>  <Rbt.Current_Directory>
/home/itssahil/PROJECTS/Mol_Feturizer/New_Systems/rnas/3SKL

>  <Rbt.Executable>
rbdock ($Id: //depot/dev/client3/rdock/2013.1/src/exe/rbdock.cxx#4 $)

>  <Rbt.Library>
libRbt.so (2013.1, Build901 2013/11/27)

>  <Rbt.Parameter_File>
/export/apps/rDock/src/rDock_2013.1_src/data/scripts/dock_solv.prm

>  <Rbt.Receptor>
prm/pocket_docking_8.prm

>  <SCORE>
-17.4868

>  <SCORE.INTER>
-17.4152

>  <SCORE.INTER.CONST>
1

>  <SCORE.INTER.POLAR>
0

>  <SCORE.INTER.ROT>
2

>  <SCORE.INTER.SOLV>
17.1034

>  <SCORE.INTER.VDW>
-22.2446

>  <SCORE.INTER.norm>
-0.916587

>  <SCORE.INTRA>
-0.0716615

>  <SCORE.INTRA.DIHEDRAL>
-0.27714

>  <SCORE.INTRA.DIHEDRAL.0>
1.50031

>  <SCORE.INTRA.POLAR>
0

>  <SCORE.INTRA.POLAR.0>
0

>  <SCORE.INTRA.REPUL>
0

>  <SCORE.INTRA.REPUL.0>
0

>  <SCORE.INTRA.SOLV>
0.000450084

>  <SCORE.INTRA.SOLV.lig_0>
-37.9941

>  <SCORE.INTRA.VDW>
0.0666836

>  <SCORE.INTRA.VDW.0>
-0.964461

>  <SCORE.INTRA.norm>
-0.00377166

>  <SCORE.RESTR>
0

>  <SCORE.RESTR.CAVITY>
0

>  <SCORE.RESTR.norm>
0

>  <SCORE.SYSTEM>
0

>  <SCORE.SYSTEM.CONST>
0

>  <SCORE.SYSTEM.DIHEDRAL>
0

>  <SCORE.SYSTEM.SOLV>
0

>  <SCORE.SYSTEM.norm>
0

>  <SCORE.heavy>
19

>  <SCORE.norm>
-0.920359

>  <RMSD>
1.015

$$$$
ligand
 OpenBabel11021811483D
libRbt.so/2013.1/901 2013/11/27
 19 21  0  0  0  0  0  0  0  0999 V2000
   17.4223   29.6324   34.1580 C   0  0  0  0  0  0  0  0  0  0  0  0
   17.6551   28.2185   34.0347 O   0  0  0  0  0  0  0  0  0  0  0  0
   18.5348   30.3113   34.9637 C   0  0  1  0  0  0  0  0  0  0  0  0
   18.6448   29.7240   36.2600 O   0  0  0  0  0  0  0  0  0  0  0  0
   19.8881   30.1628   34.2948 C   0  0  1  0  0  0  0  0  0  0  0  0
   20.5518   31.4268   34.3355 O   0  0  0  0  0  0  0  0  0  0  0  0
   20.6728   29.1705   35.1228 C   0  0  0  0  0  0  0  0  0  0  0  0
   19.9113   29.0683   36.4318 C   0  0  2  0  0  0  0  0  0  0  0  0
   17.4209   26.0835   39.8445 N   0  0  0  0  0  0  0  0  0  0  0  0
   17.4710   27.4313   39.7165 C   0  0  2  0  0  0  0  0  0  0  0  0
   16.7830   28.2189   40.5698 N   0  0  0  0  0  0  0  0  0  0  0  0
   18.1983   28.0231   38.7456 N   0  0  0  0  0  0  0  0  0  0  0  0
   18.9099   27.2994   37.8578 C   0  0  1  0  0  0  0  0  0  0  0  0
   18.9100   25.9254   37.9298 C   0  0  1  0  0  0  0  0  0  0  0  0
   18.1053   25.2859   38.9998 C   0  0  0  0  0  0  0  0  0  0  0  0
   18.0674   24.0413   39.1186 O   0  0  0  0  0  0  0  0  0  0  0  0
   19.6898   25.4643   36.9370 N   0  0  0  0  0  0  0  0  0  0  0  0
   20.1599   26.5430   36.2689 C   0  0  0  0  0  0  0  0  0  0  0  0
   19.6755   27.6576   36.8397 N   0  0  1  0  0  0  0  0  0  0  0  0
  1  2  1  0  0  0  0
  3  1  1  6  0  0  0
  3  4  1  0  0  0  0
  3  5  1  0  0  0  0
  5  6  1  1  0  0  0
  5  7  1  0  0  0  0
  7  8  1  0  0  0  0
  8  4  1  6  0  0  0
  8 19  1  0  0  0  0
  9 15  1  0  0  0  0
  9 10  1  0  0  0  0
 10 11  1  6  0  0  0
 10 12  1  0  0  0  0
 13 12  1  6  0  0  0
 13 14  1  0  0  0  0
 13 19  1  0  0  0  0
 14 15  1  6  0  0  0
 14 17  1  0  0  0  0
 15 16  2  0  0  0  0
 17 18  1  0  0  0  0
 19 18  1  6  0  0  0
M  END
>  <CHROM.1>
-57.66252467,-52.50769248,18.76565384,27.92348317,36.91256646,1.15311694
0.98379722,-0.49358939

>  <Name>
ligand

>  <RI>
0

>  <Rbt.Current_Directory>
/home/itssahil/PROJECTS/Mol_Feturizer/New_Systems/rnas/3SKL

>  <Rbt.Executable>
rbdock ($Id: //depot/dev/client3/rdock/2013.1/src/exe/rbdock.cxx#4 $)

>  <Rbt.Library>
libRbt.so (2013.1, Build901 2013/11/27)

>  <Rbt.Parameter_File>
/export/apps/rDock/src/rDock_2013.1_src/data/scripts/dock_solv.prm

>  <Rbt.Receptor>
prm/pocket_docking_3.prm

>  <SCORE>
-17.4335

>  <SCORE.INTER>
-17.3626

>  <SCORE.INTER.CONST>
1

>  <SCORE.INTER.POLAR>
0

>  <SCORE.INTER.ROT>
2

>  <SCORE.INTER.SOLV>
17.4957

>  <SCORE.INTER.VDW>
-22.3403

>  <SCORE.INTER.norm>
-0.913821

>  <SCORE.INTRA>
-0.0708722

>  <SCORE.INTRA.DIHEDRAL>
-0.268719

>  <SCORE.INTRA.DIHEDRAL.0>
1.50031

>  <SCORE.INTRA.POLAR>
0

>  <SCORE.INTRA.POLAR.0>
0

>  <SCORE.INTRA.REPUL>
0

>  <SCORE.INTRA.REPUL.0>
0

>  <SCORE.INTRA.SOLV>
-0.00231001

>  <SCORE.INTRA.SOLV.lig_0>
-37.9941

>  <SCORE.INTRA.VDW>
0.0646423

>  <SCORE.INTRA.VDW.0>
-0.964461

>  <SCORE.INTRA.norm>
-0.00373011

>  <SCORE.RESTR>
0

>  <SCORE.RESTR.CAVITY>
0

>  <SCORE.RESTR.norm>
0

>  <SCORE.SYSTEM>
0

>  <SCORE.SYSTEM.CONST>
0

>  <SCORE.SYSTEM.DIHEDRAL>
0

>  <SCORE.SYSTEM.SOLV>
0

>  <SCORE.SYSTEM.norm>
0

>  <SCORE.heavy>
19

>  <SCORE.norm>
-0.917551

>  <RMSD>
1.017

$$$$
ligand
 OpenBabel11021811483D
libRbt.so/2013.1/901 2013/11/27
 19 21  0  0  0  0  0  0  0  0999 V2000
   17.4161   29.5834   34.1066 C   0  0  0  0  0  0  0  0  0  0  0  0
   17.7031   28.1831   33.9476 O   0  0  0  0  0  0  0  0  0  0  0  0
   18.5093   30.2868   34.9179 C   0  0  1  0  0  0  0  0  0  0  0  0
   18.6379   29.6904   36.2083 O   0  0  0  0  0  0  0  0  0  0  0  0
   19.8655   30.1844   34.2464 C   0  0  1  0  0  0  0  0  0  0  0  0
   20.4920   31.4669   34.2987 O   0  0  0  0  0  0  0  0  0  0  0  0
   20.6799   29.2076   35.0640 C   0  0  0  0  0  0  0  0  0  0  0  0
   19.9232   29.0704   36.3726 C   0  0  2  0  0  0  0  0  0  0  0  0
   17.6171   25.9878   39.8276 N   0  0  0  0  0  0  0  0  0  0  0  0
   17.6370   27.3381   39.7187 C   0  0  2  0  0  0  0  0  0  0  0  0
   16.9662   28.0995   40.6086 N   0  0  0  0  0  0  0  0  0  0  0  0
   18.3167   27.9581   38.7311 N   0  0  0  0  0  0  0  0  0  0  0  0
   19.0086   27.2616   37.8068 C   0  0  1  0  0  0  0  0  0  0  0  0
   19.0373   25.8869   37.8575 C   0  0  1  0  0  0  0  0  0  0  0  0
   18.2848   25.2162   38.9462 C   0  0  0  0  0  0  0  0  0  0  0  0
   18.2748   23.9694   39.0471 O   0  0  0  0  0  0  0  0  0  0  0  0
   19.7886   25.4558   36.8298 N   0  0  0  0  0  0  0  0  0  0  0  0
   20.2132   26.5531   36.1618 C   0  0  0  0  0  0  0  0  0  0  0  0
   19.7293   27.6496   36.7671 N   0  0  1  0  0  0  0  0  0  0  0  0
  1  2  1  0  0  0  0
  3  1  1  6  0  0  0
  3  4  1  0  0  0  0
  3  5  1  0  0  0  0
  5  6  1  1  0  0  0
  5  7  1  0  0  0  0
  7  8  1  0  0  0  0
  8  4  1  6  0  0  0
  8 19  1  0  0  0  0
  9 15  1  0  0  0  0
  9 10  1  0  0  0  0
 10 11  1  6  0  0  0
 10 12  1  0  0  0  0
 13 12  1  6  0  0  0
 13 14  1  0  0  0  0
 13 19  1  0  0  0  0
 14 15  1  6  0  0  0
 14 17  1  0  0  0  0
 15 16  2  0  0  0  0
 17 18  1  0  0  0  0
 19 18  1  6  0  0  0
M  END
>  <CHROM.1>
-58.76804241,-54.65553683,18.83906216,27.89017180,36.86166150,1.18498135
1.03416450,-0.50668150

>  <Name>
ligand

>  <RI>
0

>  <Rbt.Current_Directory>
/home/itssahil/PROJECTS/Mol_Feturizer/New_Systems/rnas/3SKL

>  <Rbt.Executable>
rbdock ($Id: //depot/dev/client3/rdock/2013.1/src/exe/rbdock.cxx#4 $)

>  <Rbt.Library>
libRbt.so (2013.1, Build901 2013/11/27)

>  <Rbt.Parameter_File>
/export/apps/rDock/src/rDock_2013.1_src/data/scripts/dock_solv.prm

>  <Rbt.Receptor>
prm/blind_docking_100.prm

>  <SCORE>
-17.3634

>  <SCORE.INTER>
-17.294

>  <SCORE.INTER.CONST>
1

>  <SCORE.INTER.POLAR>
0

>  <SCORE.INTER.ROT>
2

>  <SCORE.INTER.SOLV>
16.8667

>  <SCORE.INTER.VDW>
-22.0849

>  <SCORE.INTER.norm>
-0.91021

>  <SCORE.INTRA>
-0.069436

>  <SCORE.INTRA.DIHEDRAL>
-0.285963

>  <SCORE.INTRA.DIHEDRAL.0>
1.50031

>  <SCORE.INTRA.POLAR>
0

>  <SCORE.INTRA.POLAR.0>
0

>  <SCORE.INTRA.REPUL>
0

>  <SCORE.INTRA.REPUL.0>
0

>  <SCORE.INTRA.SOLV>
-0.00231236

>  <SCORE.INTRA.SOLV.lig_0>
-37.9941

>  <SCORE.INTRA.VDW>
0.0747019

>  <SCORE.INTRA.VDW.0>
-0.964461

>  <SCORE.INTRA.norm>
-0.00365453

>  <SCORE.RESTR>
0

>  <SCORE.RESTR.CAVITY>
0

>  <SCORE.RESTR.norm>
0

>  <SCORE.SYSTEM>
0

>  <SCORE.SYSTEM.CONST>
0

>  <SCORE.SYSTEM.DIHEDRAL>
0

>  <SCORE.SYSTEM.SOLV>
0

>  <SCORE.SYSTEM.norm>
0

>  <SCORE.heavy>
19

>  <SCORE.norm>
-0.913865

>  <RMSD>
1.020

$$$$
ligand
 OpenBabel11021811483D
libRbt.so/2013.1/901 2013/11/27
 19 21  0  0  0  0  0  0  0  0999 V2000
   17.4151   29.6241   34.1724 C   0  0  0  0  0  0  0  0  0  0  0  0
   17.6510   28.2108   34.0477 O   0  0  0  0  0  0  0  0  0  0  0  0
   18.5266   30.3047   34.9784 C   0  0  1  0  0  0  0  0  0  0  0  0
   18.6468   29.7079   36.2694 O   0  0  0  0  0  0  0  0  0  0  0  0
   19.8778   30.1712   34.3021 C   0  0  1  0  0  0  0  0  0  0  0  0
   20.5326   31.4395   34.3496 O   0  0  0  0  0  0  0  0  0  0  0  0
   20.6734   29.1780   35.1186 C   0  0  0  0  0  0  0  0  0  0  0  0
   19.9187   29.0601   36.4302 C   0  0  2  0  0  0  0  0  0  0  0  0
   17.4918   26.0321   39.8507 N   0  0  0  0  0  0  0  0  0  0  0  0
   17.5344   27.3814   39.7349 C   0  0  2  0  0  0  0  0  0  0  0  0
   16.8558   28.1578   40.6058 N   0  0  0  0  0  0  0  0  0  0  0  0
   18.2447   27.9855   38.7590 N   0  0  0  0  0  0  0  0  0  0  0  0
   18.9460   27.2734   37.8539 C   0  0  1  0  0  0  0  0  0  0  0  0
   18.9529   25.8988   37.9127 C   0  0  1  0  0  0  0  0  0  0  0  0
   18.1670   25.2456   38.9884 C   0  0  0  0  0  0  0  0  0  0  0  0
   18.1360   23.9998   39.0959 O   0  0  0  0  0  0  0  0  0  0  0  0
   19.7199   25.4505   36.9041 N   0  0  0  0  0  0  0  0  0  0  0  0
   20.1754   26.5375   36.2395 C   0  0  0  0  0  0  0  0  0  0  0  0
   19.6949   27.6445   36.8281 N   0  0  1  0  0  0  0  0  0  0  0  0
  1  2  1  0  0  0  0
  3  1  1  6  0  0  0
  3  4  1  0  0  0  0
  3  5  1  0  0  0  0
  5  6  1  1  0  0  0
  5  7  1  0  0  0  0
  7  8  1  0  0  0  0
  8  4  1  6  0  0  0
  8 19  1  0  0  0  0
  9 15  1  0  0  0  0
  9 10  1  0  0  0  0
 10 11  1  6  0  0  0
 10 12  1  0  0  0  0
 13 12  1  6  0  0  0
 13 14  1  0  0  0  0
 13 19  1  0  0  0  0
 14 15  1  6  0  0  0
 14 17  1  0  0  0  0
 15 16  2  0  0  0  0
 17 18  1  0  0  0  0
 19 18  1  6  0  0  0
M  END
>  <CHROM.1>
-57.11982186,-53.12253497,18.79059399,27.90358231,36.91358841,1.16476123
1.00069478,-0.49404373

>  <Name>
ligand

>  <RI>
0

>  <Rbt.Current_Directory>
/home/itssahil/PROJECTS/Mol_Feturizer/New_Systems/rnas/3SKL

>  <Rbt.Executable>
rbdock ($Id: //depot/dev/client3/rdock/2013.1/src/exe/rbdock.cxx#4 $)

>  <Rbt.Library>
libRbt.so (2013.1, Build901 2013/11/27)

>  <Rbt.Parameter_File>
/export/apps/rDock/src/rDock_2013.1_src/data/scripts/dock_solv.prm

>  <Rbt.Receptor>
prm/pocket_docking_3.prm

>  <SCORE>
-17.4334

>  <SCORE.INTER>
-17.364

>  <SCORE.INTER.CONST>
1

>  <SCORE.INTER.POLAR>
0

>  <SCORE.INTER.ROT>
2

>  <SCORE.INTER.SOLV>
17.2972

>  <SCORE.INTER.VDW>
-22.2751

>  <SCORE.INTER.norm>
-0.913893

>  <SCORE.INTRA>
-0.0694133

>  <SCORE.INTRA.DIHEDRAL>
-0.259101

>  <SCORE.INTRA.DIHEDRAL.0>
1.50031

>  <SCORE.INTRA.POLAR>
0

>  <SCORE.INTRA.POLAR.0>
0

>  <SCORE.INTRA.REPUL>
0

>  <SCORE.INTRA.REPUL.0>
0

>  <SCORE.INTRA.SOLV>
-0.000851285

>  <SCORE.INTRA.SOLV.lig_0>
-37.9941

>  <SCORE.INTRA.VDW>
0.0605629

>  <SCORE.INTRA.VDW.0>
-0.964461

>  <SCORE.INTRA.norm>
-0.00365333

>  <SCORE.RESTR>
0

>  <SCORE.RESTR.CAVITY>
0

>  <SCORE.RESTR.norm>
0

>  <SCORE.SYSTEM>
0

>  <SCORE.SYSTEM.CONST>
0

>  <SCORE.SYSTEM.DIHEDRAL>
0

>  <SCORE.SYSTEM.SOLV>
0

>  <SCORE.SYSTEM.norm>
0

>  <SCORE.heavy>
19

>  <SCORE.norm>
-0.917547

>  <RMSD>
1.032

$$$$
ligand
 OpenBabel11021811483D
libRbt.so/2013.1/901 2013/11/27
 19 21  0  0  0  0  0  0  0  0999 V2000
   17.4212   29.6242   34.1789 C   0  0  0  0  0  0  0  0  0  0  0  0
   17.6548   28.2113   34.0455 O   0  0  0  0  0  0  0  0  0  0  0  0
   18.5386   30.2995   34.9810 C   0  0  1  0  0  0  0  0  0  0  0  0
   18.6599   29.7027   36.2719 O   0  0  0  0  0  0  0  0  0  0  0  0
   19.8870   30.1590   34.3005 C   0  0  1  0  0  0  0  0  0  0  0  0
   20.5482   31.4241   34.3455 O   0  0  0  0  0  0  0  0  0  0  0  0
   20.6802   29.1623   35.1149 C   0  0  0  0  0  0  0  0  0  0  0  0
   19.9291   29.0486   36.4290 C   0  0  2  0  0  0  0  0  0  0  0  0
   17.5383   26.0360   39.8882 N   0  0  0  0  0  0  0  0  0  0  0  0
   17.5914   27.3850   39.7743 C   0  0  2  0  0  0  0  0  0  0  0  0
   16.9365   28.1659   40.6593 N   0  0  0  0  0  0  0  0  0  0  0  0
   18.2890   27.9846   38.7865 N   0  0  0  0  0  0  0  0  0  0  0  0
   18.9665   27.2679   37.8670 C   0  0  1  0  0  0  0  0  0  0  0  0
   18.9617   25.8932   37.9229 C   0  0  1  0  0  0  0  0  0  0  0  0
   18.1899   25.2450   39.0118 C   0  0  0  0  0  0  0  0  0  0  0  0
   18.1493   23.9993   39.1173 O   0  0  0  0  0  0  0  0  0  0  0  0
   19.7054   25.4400   36.8993 N   0  0  0  0  0  0  0  0  0  0  0  0
   20.1586   26.5241   36.2284 C   0  0  0  0  0  0  0  0  0  0  0  0
   19.6996   27.6344   36.8281 N   0  0  1  0  0  0  0  0  0  0  0  0
  1  2  1  0  0  0  0
  3  1  1  6  0  0  0
  3  4  1  0  0  0  0
  3  5  1  0  0  0  0
  5  6  1  1  0  0  0
  5  7  1  0  0  0  0
  7  8  1  0  0  0  0
  8  4  1  6  0  0  0
  8 19  1  0  0  0  0
  9 15  1  0  0  0  0
  9 10  1  0  0  0  0
 10 11  1  6  0  0  0
 10 12  1  0  0  0  0
 13 12  1  6  0  0  0
 13 14  1  0  0  0  0
 13 19  1  0  0  0  0
 14 15  1  6  0  0  0
 14 17  1  0  0  0  0
 15 16  2  0  0  0  0
 17 18  1  0  0  0  0
 19 18  1  6  0  0  0
M  END
>  <CHROM.1>
-57.54699989,-54.05710768,18.80859027,27.89855202,36.92434829,1.15112437
1.03336057,-0.48086735

>  <Name>
ligand

>  <RI>
0

>  <Rbt.Current_Directory>
/home/itssahil/PROJECTS/Mol_Feturizer/New_Systems/rnas/3SKL

>  <Rbt.Executable>
rbdock ($Id: //depot/dev/client3/rdock/2013.1/src/exe/rbdock.cxx#4 $)

>  <Rbt.Library>
libRbt.so (2013.1, Build901 2013/11/27)

>  <Rbt.Parameter_File>
/export/apps/rDock/src/rDock_2013.1_src/data/scripts/dock_solv.prm

>  <Rbt.Receptor>
prm/pocket_docking_3.prm

>  <SCORE>
-17.4936

>  <SCORE.INTER>
-17.4231

>  <SCORE.INTER.CONST>
1

>  <SCORE.INTER.POLAR>
0

>  <SCORE.INTER.ROT>
2

>  <SCORE.INTER.SOLV>
17.0933

>  <SCORE.INTER.VDW>
-22.2465

>  <SCORE.INTER.norm>
-0.917006

>  <SCORE.INTRA>
-0.0704385

>  <SCORE.INTRA.DIHEDRAL>
-0.268601

>  <SCORE.INTRA.DIHEDRAL.0>
1.50031

>  <SCORE.INTRA.POLAR>
0

>  <SCORE.INTRA.POLAR.0>
0

>  <SCORE.INTRA.REPUL>
0

>  <SCORE.INTRA.REPUL.0>
0

>  <SCORE.INTRA.SOLV>
-0.000655082

>  <SCORE.INTRA.SOLV.lig_0>
-37.9941

>  <SCORE.INTRA.VDW>
0.0641893

>  <SCORE.INTRA.VDW.0>
-0.964461

>  <SCORE.INTRA.norm>
-0.00370729

>  <SCORE.RESTR>
0

>  <SCORE.RESTR.CAVITY>
0

>  <SCORE.RESTR.norm>
0

>  <SCORE.SYSTEM>
0

>  <SCORE.SYSTEM.CONST>
0

>  <SCORE.SYSTEM.DIHEDRAL>
0

>  <SCORE.SYSTEM.SOLV>
0

>  <SCORE.SYSTEM.norm>
0

>  <SCORE.heavy>
19

>  <SCORE.norm>
-0.920713

>  <RMSD>
1.032

$$$$
ligand
 OpenBabel11021811483D
libRbt.so/2013.1/901 2013/11/27
 19 21  0  0  0  0  0  0  0  0999 V2000
   17.5836   29.5891   33.9724 C   0  0  0  0  0  0  0  0  0  0  0  0
   17.9112   28.1945   33.8431 O   0  0  0  0  0  0  0  0  0  0  0  0
   18.5589   30.3048   34.9128 C   0  0  1  0  0  0  0  0  0  0  0  0
   18.5694   29.6784   36.1953 O   0  0  0  0  0  0  0  0  0  0  0  0
   19.9819   30.2636   34.3890 C   0  0  1  0  0  0  0  0  0  0  0  0
   20.5546   31.5635   34.5383 O   0  0  0  0  0  0  0  0  0  0  0  0
   20.7374   29.2916   35.2667 C   0  0  0  0  0  0  0  0  0  0  0  0
   19.8504   29.0954   36.4827 C   0  0  2  0  0  0  0  0  0  0  0  0
   17.7284   25.8712   39.9264 N   0  0  0  0  0  0  0  0  0  0  0  0
   17.7577   27.2249   39.8806 C   0  0  2  0  0  0  0  0  0  0  0  0
   17.1531   27.9487   40.8461 N   0  0  0  0  0  0  0  0  0  0  0  0
   18.3816   27.8856   38.8825 N   0  0  0  0  0  0  0  0  0  0  0  0
   19.0058   27.2281   37.8844 C   0  0  1  0  0  0  0  0  0  0  0  0
   19.0211   25.8524   37.8679 C   0  0  1  0  0  0  0  0  0  0  0  0
   18.3304   25.1368   38.9690 C   0  0  0  0  0  0  0  0  0  0  0  0
   18.3117   23.8869   39.0112 O   0  0  0  0  0  0  0  0  0  0  0  0
   19.7013   25.4643   36.7756 N   0  0  0  0  0  0  0  0  0  0  0  0
   20.0965   26.5886   36.1348 C   0  0  0  0  0  0  0  0  0  0  0  0
   19.6646   27.6591   36.8208 N   0  0  1  0  0  0  0  0  0  0  0  0
  1  2  1  0  0  0  0
  3  1  1  6  0  0  0
  3  4  1  0  0  0  0
  3  5  1  0  0  0  0
  5  6  1  1  0  0  0
  5  7  1  0  0  0  0
  7  8  1  0  0  0  0
  8  4  1  6  0  0  0
  8 19  1  0  0  0  0
  9 15  1  0  0  0  0
  9 10  1  0  0  0  0
 10 11  1  6  0  0  0
 10 12  1  0  0  0  0
 13 12  1  6  0  0  0
 13 14  1  0  0  0  0
 13 19  1  0  0  0  0
 14 15  1  6  0  0  0
 14 17  1  0  0  0  0
 15 16  2  0  0  0  0
 17 18  1  0  0  0  0
 19 18  1  6  0  0  0
M  END
>  <CHROM.1>
-57.09818725,-64.82055211,18.88318000,27.87430102,36.92038261,-1.02098205
-1.20142783,2.82520145

>  <Name>
ligand

>  <RI>
0

>  <Rbt.Current_Directory>
/home/itssahil/PROJECTS/Mol_Feturizer/New_Systems/rnas/3SKL

>  <Rbt.Executable>
rbdock ($Id: //depot/dev/client3/rdock/2013.1/src/exe/rbdock.cxx#4 $)

>  <Rbt.Library>
libRbt.so (2013.1, Build901 2013/11/27)

>  <Rbt.Parameter_File>
/export/apps/rDock/src/rDock_2013.1_src/data/scripts/dock_solv.prm

>  <Rbt.Receptor>
prm/pocket_docking_4.prm

>  <SCORE>
-17.1268

>  <SCORE.INTER>
-17.0448

>  <SCORE.INTER.CONST>
1

>  <SCORE.INTER.POLAR>
0

>  <SCORE.INTER.ROT>
2

>  <SCORE.INTER.SOLV>
16.4941

>  <SCORE.INTER.VDW>
-21.7945

>  <SCORE.INTER.norm>
-0.897092

>  <SCORE.INTRA>
-0.082088

>  <SCORE.INTRA.DIHEDRAL>
-0.27367

>  <SCORE.INTRA.DIHEDRAL.0>
1.50031

>  <SCORE.INTRA.POLAR>
0

>  <SCORE.INTRA.POLAR.0>
0

>  <SCORE.INTRA.REPUL>
0

>  <SCORE.INTRA.REPUL.0>
0

>  <SCORE.INTRA.SOLV>
0.0101901

>  <SCORE.INTRA.SOLV.lig_0>
-37.9941

>  <SCORE.INTRA.VDW>
0.0496518

>  <SCORE.INTRA.VDW.0>
-0.964461

>  <SCORE.INTRA.norm>
-0.00432042

>  <SCORE.RESTR>
0

>  <SCORE.RESTR.CAVITY>
0

>  <SCORE.RESTR.norm>
0

>  <SCORE.SYSTEM>
0

>  <SCORE.SYSTEM.CONST>
0

>  <SCORE.SYSTEM.DIHEDRAL>
0

>  <SCORE.SYSTEM.SOLV>
0

>  <SCORE.SYSTEM.norm>
0

>  <SCORE.heavy>
19

>  <SCORE.norm>
-0.901413

>  <RMSD>
1.047

$$$$
ligand
 OpenBabel11021811483D
libRbt.so/2013.1/901 2013/11/27
 19 21  0  0  0  0  0  0  0  0999 V2000
   19.5931   28.6755   32.5867 C   0  0  0  0  0  0  0  0  0  0  0  0
   20.2771   29.3044   31.4889 O   0  0  0  0  0  0  0  0  0  0  0  0
   19.1314   29.7087   33.6198 C   0  0  1  0  0  0  0  0  0  0  0  0
   18.3972   29.0761   34.6678 O   0  0  0  0  0  0  0  0  0  0  0  0
   20.3028   30.4215   34.2685 C   0  0  1  0  0  0  0  0  0  0  0  0
   20.0090   31.8183   34.3174 O   0  0  0  0  0  0  0  0  0  0  0  0
   20.4021   29.8919   35.6812 C   0  0  0  0  0  0  0  0  0  0  0  0
   19.0795   29.1890   35.9268 C   0  0  2  0  0  0  0  0  0  0  0  0
   17.8854   26.1914   39.9699 N   0  0  0  0  0  0  0  0  0  0  0  0
   17.5789   27.4840   39.7037 C   0  0  2  0  0  0  0  0  0  0  0  0
   16.8331   28.1965   40.5743 N   0  0  0  0  0  0  0  0  0  0  0  0
   18.0011   28.0933   38.5757 N   0  0  0  0  0  0  0  0  0  0  0  0
   18.7489   27.4432   37.6612 C   0  0  1  0  0  0  0  0  0  0  0  0
   19.1028   26.1296   37.8669 C   0  0  1  0  0  0  0  0  0  0  0  0
   18.6314   25.4696   39.1093 C   0  0  0  0  0  0  0  0  0  0  0  0
   18.9225   24.2781   39.3544 O   0  0  0  0  0  0  0  0  0  0  0  0
   19.8366   25.7343   36.8126 N   0  0  0  0  0  0  0  0  0  0  0  0
   19.9297   26.7931   35.9753 C   0  0  0  0  0  0  0  0  0  0  0  0
   19.2603   27.8302   36.5038 N   0  0  1  0  0  0  0  0  0  0  0  0
  1  2  1  0  0  0  0
  3  1  1  6  0  0  0
  3  4  1  0  0  0  0
  3  5  1  0  0  0  0
  5  6  1  1  0  0  0
  5  7  1  0  0  0  0
  7  8  1  0  0  0  0
  8  4  1  6  0  0  0
  8 19  1  0  0  0  0
  9 15  1  0  0  0  0
  9 10  1  0  0  0  0
 10 11  1  6  0  0  0
 10 12  1  0  0  0  0
 13 12  1  6  0  0  0
 13 14  1  0  0  0  0
 13 19  1  0  0  0  0
 14 15  1  6  0  0  0
 14 17  1  0  0  0  0
 15 16  2  0  0  0  0
 17 18  1  0  0  0  0
 19 18  1  6  0  0  0
M  END
>  <CHROM.1>
177.10775141,-118.82290992,19.06388088,28.03547438,36.47675945,-0.95836109
-1.16489653,2.69185900

>  <Name>
ligand

>  <RI>
0

>  <Rbt.Current_Directory>
/home/itssahil/PROJECTS/Mol_Feturizer/New_Systems/rnas/3SKL

>  <Rbt.Executable>
rbdock ($Id: //depot/dev/client3/rdock/2013.1/src/exe/rbdock.cxx#4 $)

>  <Rbt.Library>
libRbt.so (2013.1, Build901 2013/11/27)

>  <Rbt.Parameter_File>
/export/apps/rDock/src/rDock_2013.1_src/data/scripts/dock_solv.prm

>  <Rbt.Receptor>
prm/pocket_docking_8.prm

>  <SCORE>
-16.2836

>  <SCORE.INTER>
-15.8082

>  <SCORE.INTER.CONST>
1

>  <SCORE.INTER.POLAR>
0

>  <SCORE.INTER.ROT>
2

>  <SCORE.INTER.SOLV>
16.2671

>  <SCORE.INTER.VDW>
-20.8945

>  <SCORE.INTER.norm>
-0.832012

>  <SCORE.INTRA>
-0.475353

>  <SCORE.INTRA.DIHEDRAL>
-0.269913

>  <SCORE.INTRA.DIHEDRAL.0>
1.50031

>  <SCORE.INTRA.POLAR>
0

>  <SCORE.INTRA.POLAR.0>
0

>  <SCORE.INTRA.REPUL>
0

>  <SCORE.INTRA.REPUL.0>
0

>  <SCORE.INTRA.SOLV>
-0.472703

>  <SCORE.INTRA.SOLV.lig_0>
-37.9941

>  <SCORE.INTRA.VDW>
-0.104045

>  <SCORE.INTRA.VDW.0>
-0.964461

>  <SCORE.INTRA.norm>
-0.0250186

>  <SCORE.RESTR>
0

>  <SCORE.RESTR.CAVITY>
0

>  <SCORE.RESTR.norm>
0

>  <SCORE.SYSTEM>
0

>  <SCORE.SYSTEM.CONST>
0

>  <SCORE.SYSTEM.DIHEDRAL>
0

>  <SCORE.SYSTEM.SOLV>
0

>  <SCORE.SYSTEM.norm>
0

>  <SCORE.heavy>
19

>  <SCORE.norm>
-0.857031

>  <RMSD>
1.072

$$$$
ligand
 OpenBabel11021811483D
libRbt.so/2013.1/901 2013/11/27
 19 21  0  0  0  0  0  0  0  0999 V2000
   19.6127   28.6938   32.6525 C   0  0  0  0  0  0  0  0  0  0  0  0
   20.3231   29.4022   31.6219 O   0  0  0  0  0  0  0  0  0  0  0  0
   18.9626   29.6620   33.6463 C   0  0  1  0  0  0  0  0  0  0  0  0
   18.2509   28.9435   34.6536 O   0  0  0  0  0  0  0  0  0  0  0  0
   19.9931   30.5176   34.3583 C   0  0  1  0  0  0  0  0  0  0  0  0
   19.5238   31.8664   34.3765 O   0  0  0  0  0  0  0  0  0  0  0  0
   20.0716   30.0068   35.7791 C   0  0  0  0  0  0  0  0  0  0  0  0
   18.8352   29.1432   35.9506 C   0  0  2  0  0  0  0  0  0  0  0  0
   18.1045   26.1881   40.1329 N   0  0  0  0  0  0  0  0  0  0  0  0
   17.6880   27.4466   39.8531 C   0  0  2  0  0  0  0  0  0  0  0  0
   16.9434   28.1287   40.7487 N   0  0  0  0  0  0  0  0  0  0  0  0
   17.9974   28.0512   38.6866 N   0  0  0  0  0  0  0  0  0  0  0  0
   18.7367   27.4302   37.7454 C   0  0  1  0  0  0  0  0  0  0  0  0
   19.1985   26.1525   37.9625 C   0  0  1  0  0  0  0  0  0  0  0  0
   18.8505   25.4971   39.2474 C   0  0  0  0  0  0  0  0  0  0  0  0
   19.2431   24.3376   39.5045 O   0  0  0  0  0  0  0  0  0  0  0  0
   19.8968   25.7803   36.8761 N   0  0  0  0  0  0  0  0  0  0  0  0
   19.8621   26.8177   36.0083 C   0  0  0  0  0  0  0  0  0  0  0  0
   19.1496   27.8187   36.5498 N   0  0  1  0  0  0  0  0  0  0  0  0
  1  2  1  0  0  0  0
  3  1  1  6  0  0  0
  3  4  1  0  0  0  0
  3  5  1  0  0  0  0
  5  6  1  1  0  0  0
  5  7  1  0  0  0  0
  7  8  1  0  0  0  0
  8  4  1  6  0  0  0
  8 19  1  0  0  0  0
  9 15  1  0  0  0  0
  9 10  1  0  0  0  0
 10 11  1  6  0  0  0
 10 12  1  0  0  0  0
 13 12  1  6  0  0  0
 13 14  1  0  0  0  0
 13 19  1  0  0  0  0
 14 15  1  6  0  0  0
 14 17  1  0  0  0  0
 15 16  2  0  0  0  0
 17 18  1  0  0  0  0
 19 18  1  6  0  0  0
M  END
>  <CHROM.1>
179.40336160,-126.46387918,19.02551922,28.04417995,36.56554250,-1.13449126
-1.13887965,2.51597542

>  <Name>
ligand

>  <RI>
0

>  <Rbt.Current_Directory>
/home/itssahil/PROJECTS/Mol_Feturizer/New_Systems/rnas/3SKL

>  <Rbt.Executable>
rbdock ($Id: //depot/dev/client3/rdock/2013.1/src/exe/rbdock.cxx#4 $)

>  <Rbt.Library>
libRbt.so (2013.1, Build901 2013/11/27)

>  <Rbt.Parameter_File>
/export/apps/rDock/src/rDock_2013.1_src/data/scripts/dock_solv.prm

>  <Rbt.Receptor>
prm/pocket_docking_5.prm

>  <SCORE>
-16.363

>  <SCORE.INTER>
-15.8443

>  <SCORE.INTER.CONST>
1

>  <SCORE.INTER.POLAR>
0

>  <SCORE.INTER.ROT>
2

>  <SCORE.INTER.SOLV>
16.5013

>  <SCORE.INTER.VDW>
-20.9966

>  <SCORE.INTER.norm>
-0.83391

>  <SCORE.INTRA>
-0.518679

>  <SCORE.INTRA.DIHEDRAL>
-0.288339

>  <SCORE.INTRA.DIHEDRAL.0>
1.50031

>  <SCORE.INTRA.POLAR>
0

>  <SCORE.INTRA.POLAR.0>
0

>  <SCORE.INTRA.REPUL>
0

>  <SCORE.INTRA.REPUL.0>
0

>  <SCORE.INTRA.SOLV>
-0.461441

>  <SCORE.INTRA.SOLV.lig_0>
-37.9941

>  <SCORE.INTRA.VDW>
-0.143789

>  <SCORE.INTRA.VDW.0>
-0.964461

>  <SCORE.INTRA.norm>
-0.0272989

>  <SCORE.RESTR>
0

>  <SCORE.RESTR.CAVITY>
0

>  <SCORE.RESTR.norm>
0

>  <SCORE.SYSTEM>
0

>  <SCORE.SYSTEM.CONST>
0

>  <SCORE.SYSTEM.DIHEDRAL>
0

>  <SCORE.SYSTEM.SOLV>
0

>  <SCORE.SYSTEM.norm>
0

>  <SCORE.heavy>
19

>  <SCORE.norm>
-0.861209

>  <RMSD>
1.109

$$$$
ligand
 OpenBabel11021811483D
libRbt.so/2013.1/901 2013/11/27
 19 21  0  0  0  0  0  0  0  0999 V2000
   19.6565   28.6720   32.6529 C   0  0  0  0  0  0  0  0  0  0  0  0
   20.3376   29.3815   31.6035 O   0  0  0  0  0  0  0  0  0  0  0  0
   19.0050   29.6394   33.6467 C   0  0  1  0  0  0  0  0  0  0  0  0
   18.2871   28.9202   34.6491 O   0  0  0  0  0  0  0  0  0  0  0  0
   20.0350   30.4902   34.3651 C   0  0  1  0  0  0  0  0  0  0  0  0
   19.5694   31.8402   34.3851 O   0  0  0  0  0  0  0  0  0  0  0  0
   20.1062   29.9753   35.7849 C   0  0  0  0  0  0  0  0  0  0  0  0
   18.8667   29.1148   35.9490 C   0  0  2  0  0  0  0  0  0  0  0  0
   18.1496   26.1685   40.1398 N   0  0  0  0  0  0  0  0  0  0  0  0
   17.7417   27.4305   39.8633 C   0  0  2  0  0  0  0  0  0  0  0  0
   17.0119   28.1197   40.7656 N   0  0  0  0  0  0  0  0  0  0  0  0
   18.0453   28.0317   38.6935 N   0  0  0  0  0  0  0  0  0  0  0  0
   18.7700   27.4037   37.7456 C   0  0  1  0  0  0  0  0  0  0  0  0
   19.2223   26.1219   37.9591 C   0  0  1  0  0  0  0  0  0  0  0  0
   18.8808   25.4704   39.2476 C   0  0  0  0  0  0  0  0  0  0  0  0
   19.2653   24.3075   39.5016 O   0  0  0  0  0  0  0  0  0  0  0  0
   19.9069   25.7429   36.8663 N   0  0  0  0  0  0  0  0  0  0  0  0
   19.8732   26.7803   35.9982 C   0  0  0  0  0  0  0  0  0  0  0  0
   19.1750   27.7879   36.5459 N   0  0  1  0  0  0  0  0  0  0  0  0
  1  2  1  0  0  0  0
  3  1  1  6  0  0  0
  3  4  1  0  0  0  0
  3  5  1  0  0  0  0
  5  6  1  1  0  0  0
  5  7  1  0  0  0  0
  7  8  1  0  0  0  0
  8  4  1  6  0  0  0
  8 19  1  0  0  0  0
  9 15  1  0  0  0  0
  9 10  1  0  0  0  0
 10 11  1  6  0  0  0
 10 12  1  0  0  0  0
 13 12  1  6  0  0  0
 13 14  1  0  0  0  0
 13 19  1  0  0  0  0
 14 15  1  6  0  0  0
 14 17  1  0  0  0  0
 15 16  2  0  0  0  0
 17 18  1  0  0  0  0
 19 18  1  6  0  0  0
M  END
>  <CHROM.1>
177.57892503,-127.34170941,19.06031402,28.01872759,36.56587105,-1.12451425
-1.15057035,2.52621637

>  <Name>
ligand

>  <RI>
0

>  <Rbt.Current_Directory>
/home/itssahil/PROJECTS/Mol_Feturizer/New_Systems/rnas/3SKL

>  <Rbt.Executable>
rbdock ($Id: //depot/dev/client3/rdock/2013.1/src/exe/rbdock.cxx#4 $)

>  <Rbt.Library>
libRbt.so (2013.1, Build901 2013/11/27)

>  <Rbt.Parameter_File>
/export/apps/rDock/src/rDock_2013.1_src/data/scripts/dock_solv.prm

>  <Rbt.Receptor>
prm/blind_docking_100.prm

>  <SCORE>
-16.332

>  <SCORE.INTER>
-15.8049

>  <SCORE.INTER.CONST>
1

>  <SCORE.INTER.POLAR>
0

>  <SCORE.INTER.ROT>
2

>  <SCORE.INTER.SOLV>
16.3135

>  <SCORE.INTER.VDW>
-20.9077

>  <SCORE.INTER.norm>
-0.831835

>  <SCORE.INTRA>
-0.527107

>  <SCORE.INTRA.DIHEDRAL>
-0.267948

>  <SCORE.INTRA.DIHEDRAL.0>
1.50031

>  <SCORE.INTRA.POLAR>
0

>  <SCORE.INTRA.POLAR.0>
0

>  <SCORE.INTRA.REPUL>
0

>  <SCORE.INTRA.REPUL.0>
0

>  <SCORE.INTRA.SOLV>
-0.470289

>  <SCORE.INTRA.SOLV.lig_0>
-37.9941

>  <SCORE.INTRA.VDW>
-0.157988

>  <SCORE.INTRA.VDW.0>
-0.964461

>  <SCORE.INTRA.norm>
-0.0277425

>  <SCORE.RESTR>
0

>  <SCORE.RESTR.CAVITY>
0

>  <SCORE.RESTR.norm>
0

>  <SCORE.SYSTEM>
0

>  <SCORE.SYSTEM.CONST>
0

>  <SCORE.SYSTEM.DIHEDRAL>
0

>  <SCORE.SYSTEM.SOLV>
0

>  <SCORE.SYSTEM.norm>
0

>  <SCORE.heavy>
19

>  <SCORE.norm>
-0.859577

>  <RMSD>
1.117

$$$$
ligand
 OpenBabel11021811483D
libRbt.so/2013.1/901 2013/11/27
 19 21  0  0  0  0  0  0  0  0999 V2000
   19.6399   28.7089   32.6697 C   0  0  0  0  0  0  0  0  0  0  0  0
   20.3422   29.4159   31.6326 O   0  0  0  0  0  0  0  0  0  0  0  0
   19.0100   29.6782   33.6755 C   0  0  1  0  0  0  0  0  0  0  0  0
   18.2822   28.9624   34.6731 O   0  0  0  0  0  0  0  0  0  0  0  0
   20.0583   30.5020   34.3989 C   0  0  1  0  0  0  0  0  0  0  0  0
   19.6183   31.8603   34.4342 O   0  0  0  0  0  0  0  0  0  0  0  0
   20.1245   29.9714   35.8132 C   0  0  0  0  0  0  0  0  0  0  0  0
   18.8696   29.1327   35.9728 C   0  0  2  0  0  0  0  0  0  0  0  0
   18.1490   26.1736   40.1540 N   0  0  0  0  0  0  0  0  0  0  0  0
   17.7679   27.4473   39.8932 C   0  0  2  0  0  0  0  0  0  0  0  0
   17.0702   28.1473   40.8124 N   0  0  0  0  0  0  0  0  0  0  0  0
   18.0670   28.0496   38.7229 N   0  0  0  0  0  0  0  0  0  0  0  0
   18.7603   27.4111   37.7587 C   0  0  1  0  0  0  0  0  0  0  0  0
   19.1844   26.1171   37.9555 C   0  0  1  0  0  0  0  0  0  0  0  0
   18.8481   25.4644   39.2449 C   0  0  0  0  0  0  0  0  0  0  0  0
   19.2080   24.2906   39.4842 O   0  0  0  0  0  0  0  0  0  0  0  0
   19.8413   25.7296   36.8488 N   0  0  0  0  0  0  0  0  0  0  0  0
   19.8190   26.7739   35.9888 C   0  0  0  0  0  0  0  0  0  0  0  0
   19.1548   27.7942   36.5552 N   0  0  1  0  0  0  0  0  0  0  0  0
  1  2  1  0  0  0  0
  3  1  1  6  0  0  0
  3  4  1  0  0  0  0
  3  5  1  0  0  0  0
  5  6  1  1  0  0  0
  5  7  1  0  0  0  0
  7  8  1  0  0  0  0
  8  4  1  6  0  0  0
  8 19  1  0  0  0  0
  9 15  1  0  0  0  0
  9 10  1  0  0  0  0
 10 11  1  6  0  0  0
 10 12  1  0  0  0  0
 13 12  1  6  0  0  0
 13 14  1  0  0  0  0
 13 19  1  0  0  0  0
 14 15  1  6  0  0  0
 14 17  1  0  0  0  0
 15 16  2  0  0  0  0
 17 18  1  0  0  0  0
 19 18  1  6  0  0  0
M  END
>  <CHROM.1>
178.16749942,-128.17700308,19.05609722,28.03143955,36.58346581,-1.09040175
-1.17320924,2.56653065

>  <Name>
ligand

>  <RI>
0

>  <Rbt.Current_Directory>
/home/itssahil/PROJECTS/Mol_Feturizer/New_Systems/rnas/3SKL

>  <Rbt.Executable>
rbdock ($Id: //depot/dev/client3/rdock/2013.1/src/exe/rbdock.cxx#4 $)

>  <Rbt.Library>
libRbt.so (2013.1, Build901 2013/11/27)

>  <Rbt.Parameter_File>
/export/apps/rDock/src/rDock_2013.1_src/data/scripts/dock_solv.prm

>  <Rbt.Receptor>
prm/pocket_docking_8.prm

>  <SCORE>
-16.2747

>  <SCORE.INTER>
-15.7462

>  <SCORE.INTER.CONST>
1

>  <SCORE.INTER.POLAR>
0

>  <SCORE.INTER.ROT>
2

>  <SCORE.INTER.SOLV>
16.1331

>  <SCORE.INTER.VDW>
-20.8085

>  <SCORE.INTER.norm>
-0.828745

>  <SCORE.INTRA>
-0.52854

>  <SCORE.INTRA.DIHEDRAL>
-0.275812

>  <SCORE.INTRA.DIHEDRAL.0>
1.50031

>  <SCORE.INTRA.POLAR>
0

>  <SCORE.INTRA.POLAR.0>
0

>  <SCORE.INTRA.REPUL>
0

>  <SCORE.INTRA.REPUL.0>
0

>  <SCORE.INTRA.SOLV>
-0.467444

>  <SCORE.INTRA.SOLV.lig_0>
-37.9941

>  <SCORE.INTRA.VDW>
-0.156913

>  <SCORE.INTRA.VDW.0>
-0.964461

>  <SCORE.INTRA.norm>
-0.0278179

>  <SCORE.RESTR>
0

>  <SCORE.RESTR.CAVITY>
0

>  <SCORE.RESTR.norm>
0

>  <SCORE.SYSTEM>
0

>  <SCORE.SYSTEM.CONST>
0

>  <SCORE.SYSTEM.DIHEDRAL>
0

>  <SCORE.SYSTEM.SOLV>
0

>  <SCORE.SYSTEM.norm>
0

>  <SCORE.heavy>
19

>  <SCORE.norm>
-0.856563

>  <RMSD>
1.119

$$$$
ligand
 OpenBabel11021811483D
libRbt.so/2013.1/901 2013/11/27
 19 21  0  0  0  0  0  0  0  0999 V2000
   17.1793   29.0659   34.0044 C   0  0  0  0  0  0  0  0  0  0  0  0
   15.8879   29.0777   34.6375 O   0  0  0  0  0  0  0  0  0  0  0  0
   18.1777   29.9485   34.7607 C   0  0  1  0  0  0  0  0  0  0  0  0
   18.2979   29.5203   36.1171 O   0  0  0  0  0  0  0  0  0  0  0  0
   19.5653   29.8818   34.1515 C   0  0  1  0  0  0  0  0  0  0  0  0
   20.0856   31.2094   34.0698 O   0  0  0  0  0  0  0  0  0  0  0  0
   20.4187   29.0791   35.1072 C   0  0  0  0  0  0  0  0  0  0  0  0
   19.6200   29.0336   36.3972 C   0  0  2  0  0  0  0  0  0  0  0  0
   17.4921   26.2123   40.1747 N   0  0  0  0  0  0  0  0  0  0  0  0
   17.4174   27.5388   39.9097 C   0  0  2  0  0  0  0  0  0  0  0  0
   16.6819   28.3475   40.7014 N   0  0  0  0  0  0  0  0  0  0  0  0
   18.0647   28.0881   38.8603 N   0  0  0  0  0  0  0  0  0  0  0  0
   18.8170   27.3412   38.0270 C   0  0  1  0  0  0  0  0  0  0  0  0
   18.9428   25.9874   38.2373 C   0  0  1  0  0  0  0  0  0  0  0  0
   18.2252   25.3943   39.3927 C   0  0  0  0  0  0  0  0  0  0  0  0
   18.3026   24.1701   39.6378 O   0  0  0  0  0  0  0  0  0  0  0  0
   19.7369   25.4958   37.2708 N   0  0  0  0  0  0  0  0  0  0  0  0
   20.0914   26.5363   36.4820 C   0  0  0  0  0  0  0  0  0  0  0  0
   19.5224   27.6575   36.9531 N   0  0  1  0  0  0  0  0  0  0  0  0
  1  2  1  0  0  0  0
  3  1  1  6  0  0  0
  3  4  1  0  0  0  0
  3  5  1  0  0  0  0
  5  6  1  1  0  0  0
  5  7  1  0  0  0  0
  7  8  1  0  0  0  0
  8  4  1  6  0  0  0
  8 19  1  0  0  0  0
  9 15  1  0  0  0  0
  9 10  1  0  0  0  0
 10 11  1  6  0  0  0
 10 12  1  0  0  0  0
 13 12  1  6  0  0  0
 13 14  1  0  0  0  0
 13 19  1  0  0  0  0
 14 15  1  6  0  0  0
 14 17  1  0  0  0  0
 15 16  2  0  0  0  0
 17 18  1  0  0  0  0
 19 18  1  6  0  0  0
M  END
>  <CHROM.1>
57.57589137,-56.38397807,18.52957070,27.92241334,37.04176738,1.42673805,0.58181260
-0.83904742

>  <Name>
ligand

>  <RI>
0

>  <Rbt.Current_Directory>
/home/itssahil/PROJECTS/Mol_Feturizer/New_Systems/rnas/3SKL

>  <Rbt.Executable>
rbdock ($Id: //depot/dev/client3/rdock/2013.1/src/exe/rbdock.cxx#4 $)

>  <Rbt.Library>
libRbt.so (2013.1, Build901 2013/11/27)

>  <Rbt.Parameter_File>
/export/apps/rDock/src/rDock_2013.1_src/data/scripts/dock_solv.prm

>  <Rbt.Receptor>
prm/pocket_docking_4.prm

>  <SCORE>
-17.0662

>  <SCORE.INTER>
-17.0283

>  <SCORE.INTER.CONST>
1

>  <SCORE.INTER.POLAR>
0

>  <SCORE.INTER.ROT>
2

>  <SCORE.INTER.SOLV>
18.6998

>  <SCORE.INTER.VDW>
-22.5188

>  <SCORE.INTER.norm>
-0.896226

>  <SCORE.INTRA>
-0.0378684

>  <SCORE.INTRA.DIHEDRAL>
-0.273542

>  <SCORE.INTRA.DIHEDRAL.0>
1.50031

>  <SCORE.INTRA.POLAR>
0

>  <SCORE.INTRA.POLAR.0>
0

>  <SCORE.INTRA.REPUL>
0

>  <SCORE.INTRA.REPUL.0>
0

>  <SCORE.INTRA.SOLV>
-0.504705

>  <SCORE.INTRA.SOLV.lig_0>
-37.9941

>  <SCORE.INTRA.VDW>
0.351255

>  <SCORE.INTRA.VDW.0>
-0.964461

>  <SCORE.INTRA.norm>
-0.00199307

>  <SCORE.RESTR>
0

>  <SCORE.RESTR.CAVITY>
0

>  <SCORE.RESTR.norm>
0

>  <SCORE.SYSTEM>
0

>  <SCORE.SYSTEM.CONST>
0

>  <SCORE.SYSTEM.DIHEDRAL>
0

>  <SCORE.SYSTEM.SOLV>
0

>  <SCORE.SYSTEM.norm>
0

>  <SCORE.heavy>
19

>  <SCORE.norm>
-0.898219

>  <RMSD>
1.120

$$$$
ligand
 OpenBabel11021811483D
libRbt.so/2013.1/901 2013/11/27
 19 21  0  0  0  0  0  0  0  0999 V2000
   19.5880   28.7791   32.6653 C   0  0  0  0  0  0  0  0  0  0  0  0
   20.2649   29.4890   31.6134 O   0  0  0  0  0  0  0  0  0  0  0  0
   18.9665   29.7461   33.6786 C   0  0  1  0  0  0  0  0  0  0  0  0
   18.2550   29.0274   34.6859 O   0  0  0  0  0  0  0  0  0  0  0  0
   20.0201   30.5753   34.3880 C   0  0  1  0  0  0  0  0  0  0  0  0
   19.5742   31.9315   34.4283 O   0  0  0  0  0  0  0  0  0  0  0  0
   20.1071   30.0459   35.8016 C   0  0  0  0  0  0  0  0  0  0  0  0
   18.8583   29.2013   35.9779 C   0  0  2  0  0  0  0  0  0  0  0  0
   18.0856   26.1894   40.1118 N   0  0  0  0  0  0  0  0  0  0  0  0
   17.6829   27.4564   39.8506 C   0  0  2  0  0  0  0  0  0  0  0  0
   16.9431   28.1322   40.7548 N   0  0  0  0  0  0  0  0  0  0  0  0
   18.0018   28.0758   38.6944 N   0  0  0  0  0  0  0  0  0  0  0  0
   18.7372   27.4618   37.7455 C   0  0  1  0  0  0  0  0  0  0  0  0
   19.1851   26.1761   37.9440 C   0  0  1  0  0  0  0  0  0  0  0  0
   18.8268   25.5045   39.2176 C   0  0  0  0  0  0  0  0  0  0  0  0
   19.2066   24.3372   39.4576 O   0  0  0  0  0  0  0  0  0  0  0  0
   19.8824   25.8135   36.8537 N   0  0  0  0  0  0  0  0  0  0  0  0
   19.8609   26.8647   36.0020 C   0  0  0  0  0  0  0  0  0  0  0  0
   19.1574   27.8645   36.5572 N   0  0  1  0  0  0  0  0  0  0  0  0
  1  2  1  0  0  0  0
  3  1  1  6  0  0  0
  3  4  1  0  0  0  0
  3  5  1  0  0  0  0
  5  6  1  1  0  0  0
  5  7  1  0  0  0  0
  7  8  1  0  0  0  0
  8  4  1  6  0  0  0
  8 19  1  0  0  0  0
  9 15  1  0  0  0  0
  9 10  1  0  0  0  0
 10 11  1  6  0  0  0
 10 12  1  0  0  0  0
 13 12  1  6  0  0  0
 13 14  1  0  0  0  0
 13 19  1  0  0  0  0
 14 15  1  6  0  0  0
 14 17  1  0  0  0  0
 15 16  2  0  0  0  0
 17 18  1  0  0  0  0
 19 18  1  6  0  0  0
M  END
>  <CHROM.1>
177.73069556,-125.51039621,19.02318788,28.08654977,36.56983009,-1.11768940
-1.14954876,2.54480943

>  <Name>
ligand

>  <RI>
0

>  <Rbt.Current_Directory>
/home/itssahil/PROJECTS/Mol_Feturizer/New_Systems/rnas/3SKL

>  <Rbt.Executable>
rbdock ($Id: //depot/dev/client3/rdock/2013.1/src/exe/rbdock.cxx#4 $)

>  <Rbt.Library>
libRbt.so (2013.1, Build901 2013/11/27)

>  <Rbt.Parameter_File>
/export/apps/rDock/src/rDock_2013.1_src/data/scripts/dock_solv.prm

>  <Rbt.Receptor>
prm/pocket_docking_6.prm

>  <SCORE>
-16.3028

>  <SCORE.INTER>
-15.7809

>  <SCORE.INTER.CONST>
1

>  <SCORE.INTER.POLAR>
0

>  <SCORE.INTER.ROT>
2

>  <SCORE.INTER.SOLV>
16.5225

>  <SCORE.INTER.VDW>
-20.9614

>  <SCORE.INTER.norm>
-0.830572

>  <SCORE.INTRA>
-0.521956

>  <SCORE.INTRA.DIHEDRAL>
-0.272709

>  <SCORE.INTRA.DIHEDRAL.0>
1.50031

>  <SCORE.INTRA.POLAR>
0

>  <SCORE.INTRA.POLAR.0>
0

>  <SCORE.INTRA.REPUL>
0

>  <SCORE.INTRA.REPUL.0>
0

>  <SCORE.INTRA.SOLV>
-0.469543

>  <SCORE.INTRA.SOLV.lig_0>
-37.9941

>  <SCORE.INTRA.VDW>
-0.15083

>  <SCORE.INTRA.VDW.0>
-0.964461

>  <SCORE.INTRA.norm>
-0.0274713

>  <SCORE.RESTR>
0

>  <SCORE.RESTR.CAVITY>
0

>  <SCORE.RESTR.norm>
0

>  <SCORE.SYSTEM>
0

>  <SCORE.SYSTEM.CONST>
0

>  <SCORE.SYSTEM.DIHEDRAL>
0

>  <SCORE.SYSTEM.SOLV>
0

>  <SCORE.SYSTEM.norm>
0

>  <SCORE.heavy>
19

>  <SCORE.norm>
-0.858043

>  <RMSD>
1.126

$$$$
ligand
 OpenBabel11021811483D
libRbt.so/2013.1/901 2013/11/27
 19 21  0  0  0  0  0  0  0  0999 V2000
   19.6559   28.7245   32.6593 C   0  0  0  0  0  0  0  0  0  0  0  0
   20.3322   29.4279   31.6027 O   0  0  0  0  0  0  0  0  0  0  0  0
   19.0359   29.6976   33.6676 C   0  0  1  0  0  0  0  0  0  0  0  0
   18.3132   28.9858   34.6718 O   0  0  0  0  0  0  0  0  0  0  0  0
   20.0915   30.5200   34.3818 C   0  0  1  0  0  0  0  0  0  0  0  0
   19.6554   31.8796   34.4175 O   0  0  0  0  0  0  0  0  0  0  0  0
   20.1664   29.9922   35.7966 C   0  0  0  0  0  0  0  0  0  0  0  0
   18.9104   29.1572   35.9670 C   0  0  2  0  0  0  0  0  0  0  0  0
   18.1278   26.1733   40.1193 N   0  0  0  0  0  0  0  0  0  0  0  0
   17.7398   27.4442   39.8554 C   0  0  2  0  0  0  0  0  0  0  0  0
   17.0152   28.1335   40.7618 N   0  0  0  0  0  0  0  0  0  0  0  0
   18.0585   28.0545   38.6944 N   0  0  0  0  0  0  0  0  0  0  0  0
   18.7791   27.4270   37.7430 C   0  0  1  0  0  0  0  0  0  0  0  0
   19.2117   26.1364   37.9439 C   0  0  1  0  0  0  0  0  0  0  0  0
   18.8537   25.4750   39.2229 C   0  0  0  0  0  0  0  0  0  0  0  0
   19.2200   24.3038   39.4654 O   0  0  0  0  0  0  0  0  0  0  0  0
   19.8966   25.7601   36.8504 N   0  0  0  0  0  0  0  0  0  0  0  0
   19.8827   26.8078   35.9943 C   0  0  0  0  0  0  0  0  0  0  0  0
   19.1961   27.8191   36.5500 N   0  0  1  0  0  0  0  0  0  0  0  0
  1  2  1  0  0  0  0
  3  1  1  6  0  0  0
  3  4  1  0  0  0  0
  3  5  1  0  0  0  0
  5  6  1  1  0  0  0
  5  7  1  0  0  0  0
  7  8  1  0  0  0  0
  8  4  1  6  0  0  0
  8 19  1  0  0  0  0
  9 15  1  0  0  0  0
  9 10  1  0  0  0  0
 10 11  1  6  0  0  0
 10 12  1  0  0  0  0
 13 12  1  6  0  0  0
 13 14  1  0  0  0  0
 13 19  1  0  0  0  0
 14 15  1  6  0  0  0
 14 17  1  0  0  0  0
 15 16  2  0  0  0  0
 17 18  1  0  0  0  0
 19 18  1  6  0  0  0
M  END
>  <CHROM.1>
177.12731778,-126.32489767,19.07314180,28.04664356,36.56634913,-1.09478107
-1.15973492,2.56299999

>  <Name>
ligand

>  <RI>
0

>  <Rbt.Current_Directory>
/home/itssahil/PROJECTS/Mol_Feturizer/New_Systems/rnas/3SKL

>  <Rbt.Executable>
rbdock ($Id: //depot/dev/client3/rdock/2013.1/src/exe/rbdock.cxx#4 $)

>  <Rbt.Library>
libRbt.so (2013.1, Build901 2013/11/27)

>  <Rbt.Parameter_File>
/export/apps/rDock/src/rDock_2013.1_src/data/scripts/dock_solv.prm

>  <Rbt.Receptor>
prm/pocket_docking_4.prm

>  <SCORE>
-16.2983

>  <SCORE.INTER>
-15.7744

>  <SCORE.INTER.CONST>
1

>  <SCORE.INTER.POLAR>
0

>  <SCORE.INTER.ROT>
2

>  <SCORE.INTER.SOLV>
16.2614

>  <SCORE.INTER.VDW>
-20.8701

>  <SCORE.INTER.norm>
-0.830231

>  <SCORE.INTRA>
-0.523854

>  <SCORE.INTRA.DIHEDRAL>
-0.2607

>  <SCORE.INTRA.DIHEDRAL.0>
1.50031

>  <SCORE.INTRA.POLAR>
0

>  <SCORE.INTRA.POLAR.0>
0

>  <SCORE.INTRA.REPUL>
0

>  <SCORE.INTRA.REPUL.0>
0

>  <SCORE.INTRA.SOLV>
-0.472476

>  <SCORE.INTRA.SOLV.lig_0>
-37.9941

>  <SCORE.INTRA.VDW>
-0.157265

>  <SCORE.INTRA.VDW.0>
-0.964461

>  <SCORE.INTRA.norm>
-0.0275712

>  <SCORE.RESTR>
0

>  <SCORE.RESTR.CAVITY>
0

>  <SCORE.RESTR.norm>
0

>  <SCORE.SYSTEM>
0

>  <SCORE.SYSTEM.CONST>
0

>  <SCORE.SYSTEM.DIHEDRAL>
0

>  <SCORE.SYSTEM.SOLV>
0

>  <SCORE.SYSTEM.norm>
0

>  <SCORE.heavy>
19

>  <SCORE.norm>
-0.857803

>  <RMSD>
1.127

$$$$
ligand
 OpenBabel11021811483D
libRbt.so/2013.1/901 2013/11/27
 19 21  0  0  0  0  0  0  0  0999 V2000
   19.7139   28.6934   32.6480 C   0  0  0  0  0  0  0  0  0  0  0  0
   20.4305   29.4107   31.6278 O   0  0  0  0  0  0  0  0  0  0  0  0
   19.0240   29.6535   33.6227 C   0  0  1  0  0  0  0  0  0  0  0  0
   18.2941   28.9260   34.6105 O   0  0  0  0  0  0  0  0  0  0  0  0
   20.0232   30.5227   34.3622 C   0  0  1  0  0  0  0  0  0  0  0  0
   19.5360   31.8652   34.3666 O   0  0  0  0  0  0  0  0  0  0  0  0
   20.0690   30.0134   35.7851 C   0  0  0  0  0  0  0  0  0  0  0  0
   18.8397   29.1338   35.9229 C   0  0  2  0  0  0  0  0  0  0  0  0
   18.1332   26.2189   40.1375 N   0  0  0  0  0  0  0  0  0  0  0  0
   17.7185   27.4762   39.8496 C   0  0  2  0  0  0  0  0  0  0  0  0
   16.9833   28.1687   40.7450 N   0  0  0  0  0  0  0  0  0  0  0  0
   18.0204   28.0692   38.6753 N   0  0  0  0  0  0  0  0  0  0  0  0
   18.7502   27.4374   37.7338 C   0  0  1  0  0  0  0  0  0  0  0  0
   19.2096   26.1602   37.9588 C   0  0  1  0  0  0  0  0  0  0  0  0
   18.8699   25.5175   39.2523 C   0  0  0  0  0  0  0  0  0  0  0  0
   19.2608   24.3592   39.5168 O   0  0  0  0  0  0  0  0  0  0  0  0
   19.8980   25.7759   36.8703 N   0  0  0  0  0  0  0  0  0  0  0  0
   19.8597   26.8056   35.9934 C   0  0  0  0  0  0  0  0  0  0  0  0
   19.1548   27.8138   36.5315 N   0  0  1  0  0  0  0  0  0  0  0  0
  1  2  1  0  0  0  0
  3  1  1  6  0  0  0
  3  4  1  0  0  0  0
  3  5  1  0  0  0  0
  5  6  1  1  0  0  0
  5  7  1  0  0  0  0
  7  8  1  0  0  0  0
  8  4  1  6  0  0  0
  8 19  1  0  0  0  0
  9 15  1  0  0  0  0
  9 10  1  0  0  0  0
 10 11  1  6  0  0  0
 10 12  1  0  0  0  0
 13 12  1  6  0  0  0
 13 14  1  0  0  0  0
 13 19  1  0  0  0  0
 14 15  1  6  0  0  0
 14 17  1  0  0  0  0
 15 16  2  0  0  0  0
 17 18  1  0  0  0  0
 19 18  1  6  0  0  0
M  END
>  <CHROM.1>
178.73454544,-128.76138544,19.05521167,28.05127619,36.55795550,-1.12355290
-1.13763112,2.52171912

>  <Name>
ligand

>  <RI>
0

>  <Rbt.Current_Directory>
/home/itssahil/PROJECTS/Mol_Feturizer/New_Systems/rnas/3SKL

>  <Rbt.Executable>
rbdock ($Id: //depot/dev/client3/rdock/2013.1/src/exe/rbdock.cxx#4 $)

>  <Rbt.Library>
libRbt.so (2013.1, Build901 2013/11/27)

>  <Rbt.Parameter_File>
/export/apps/rDock/src/rDock_2013.1_src/data/scripts/dock_solv.prm

>  <Rbt.Receptor>
prm/pocket_docking_8.prm

>  <SCORE>
-16.3928

>  <SCORE.INTER>
-15.8648

>  <SCORE.INTER.CONST>
1

>  <SCORE.INTER.POLAR>
0

>  <SCORE.INTER.ROT>
2

>  <SCORE.INTER.SOLV>
16.3853

>  <SCORE.INTER.VDW>
-20.9717

>  <SCORE.INTER.norm>
-0.834992

>  <SCORE.INTRA>
-0.527946

>  <SCORE.INTRA.DIHEDRAL>
-0.281303

>  <SCORE.INTRA.DIHEDRAL.0>
1.50031

>  <SCORE.INTRA.POLAR>
0

>  <SCORE.INTRA.POLAR.0>
0

>  <SCORE.INTRA.REPUL>
0

>  <SCORE.INTRA.REPUL.0>
0

>  <SCORE.INTRA.SOLV>
-0.464705

>  <SCORE.INTRA.SOLV.lig_0>
-37.9941

>  <SCORE.INTRA.VDW>
-0.154942

>  <SCORE.INTRA.VDW.0>
-0.964461

>  <SCORE.INTRA.norm>
-0.0277866

>  <SCORE.RESTR>
0

>  <SCORE.RESTR.CAVITY>
0

>  <SCORE.RESTR.norm>
0

>  <SCORE.SYSTEM>
0

>  <SCORE.SYSTEM.CONST>
0

>  <SCORE.SYSTEM.DIHEDRAL>
0

>  <SCORE.SYSTEM.SOLV>
0

>  <SCORE.SYSTEM.norm>
0

>  <SCORE.heavy>
19

>  <SCORE.norm>
-0.862778

>  <RMSD>
1.130

$$$$
ligand
 OpenBabel11021811483D
libRbt.so/2013.1/901 2013/11/27
 19 21  0  0  0  0  0  0  0  0999 V2000
   17.2159   29.0587   34.0609 C   0  0  0  0  0  0  0  0  0  0  0  0
   15.9252   29.1111   34.6932 O   0  0  0  0  0  0  0  0  0  0  0  0
   18.2372   29.9224   34.8086 C   0  0  1  0  0  0  0  0  0  0  0  0
   18.3348   29.5149   36.1731 O   0  0  0  0  0  0  0  0  0  0  0  0
   19.6258   29.8009   34.2104 C   0  0  1  0  0  0  0  0  0  0  0  0
   20.1887   31.1096   34.1090 O   0  0  0  0  0  0  0  0  0  0  0  0
   20.4470   28.9886   35.1861 C   0  0  0  0  0  0  0  0  0  0  0  0
   19.6390   28.9914   36.4709 C   0  0  2  0  0  0  0  0  0  0  0  0
   17.3414   26.2949   40.2402 N   0  0  0  0  0  0  0  0  0  0  0  0
   17.3049   27.6172   39.9477 C   0  0  2  0  0  0  0  0  0  0  0  0
   16.5665   28.4580   40.7025 N   0  0  0  0  0  0  0  0  0  0  0  0
   17.9939   28.1307   38.9067 N   0  0  0  0  0  0  0  0  0  0  0  0
   18.7516   27.3505   38.1096 C   0  0  1  0  0  0  0  0  0  0  0  0
   18.8400   25.9986   38.3495 C   0  0  1  0  0  0  0  0  0  0  0  0
   18.0769   25.4451   39.4952 C   0  0  0  0  0  0  0  0  0  0  0  0
   18.1190   24.2246   39.7660 O   0  0  0  0  0  0  0  0  0  0  0  0
   19.6492   25.4700   37.4156 N   0  0  0  0  0  0  0  0  0  0  0  0
   20.0498   26.4864   36.6172 C   0  0  0  0  0  0  0  0  0  0  0  0
   19.4939   27.6293   37.0503 N   0  0  1  0  0  0  0  0  0  0  0  0
  1  2  1  0  0  0  0
  3  1  1  6  0  0  0
  3  4  1  0  0  0  0
  3  5  1  0  0  0  0
  5  6  1  1  0  0  0
  5  7  1  0  0  0  0
  7  8  1  0  0  0  0
  8  4  1  6  0  0  0
  8 19  1  0  0  0  0
  9 15  1  0  0  0  0
  9 10  1  0  0  0  0
 10 11  1  6  0  0  0
 10 12  1  0  0  0  0
 13 12  1  6  0  0  0
 13 14  1  0  0  0  0
 13 19  1  0  0  0  0
 14 15  1  6  0  0  0
 14 17  1  0  0  0  0
 15 16  2  0  0  0  0
 17 18  1  0  0  0  0
 19 18  1  6  0  0  0
M  END
>  <CHROM.1>
56.94249585,-55.04828311,18.49366744,27.92301120,37.11580451,1.38759107,0.58007119
-0.83264211

>  <Name>
ligand

>  <RI>
0

>  <Rbt.Current_Directory>
/home/itssahil/PROJECTS/Mol_Feturizer/New_Systems/rnas/3SKL

>  <Rbt.Executable>
rbdock ($Id: //depot/dev/client3/rdock/2013.1/src/exe/rbdock.cxx#4 $)

>  <Rbt.Library>
libRbt.so (2013.1, Build901 2013/11/27)

>  <Rbt.Parameter_File>
/export/apps/rDock/src/rDock_2013.1_src/data/scripts/dock_solv.prm

>  <Rbt.Receptor>
prm/pocket_docking_5.prm

>  <SCORE>
-17.1373

>  <SCORE.INTER>
-17.1087

>  <SCORE.INTER.CONST>
1

>  <SCORE.INTER.POLAR>
0

>  <SCORE.INTER.ROT>
2

>  <SCORE.INTER.SOLV>
19.2243

>  <SCORE.INTER.VDW>
-22.7472

>  <SCORE.INTER.norm>
-0.900458

>  <SCORE.INTRA>
-0.0286156

>  <SCORE.INTRA.DIHEDRAL>
-0.259514

>  <SCORE.INTRA.DIHEDRAL.0>
1.50031

>  <SCORE.INTRA.POLAR>
0

>  <SCORE.INTRA.POLAR.0>
0

>  <SCORE.INTRA.REPUL>
0

>  <SCORE.INTRA.REPUL.0>
0

>  <SCORE.INTRA.SOLV>
-0.500467

>  <SCORE.INTRA.SOLV.lig_0>
-37.9941

>  <SCORE.INTRA.VDW>
0.351374

>  <SCORE.INTRA.VDW.0>
-0.964461

>  <SCORE.INTRA.norm>
-0.00150609

>  <SCORE.RESTR>
0

>  <SCORE.RESTR.CAVITY>
0

>  <SCORE.RESTR.norm>
0

>  <SCORE.SYSTEM>
0

>  <SCORE.SYSTEM.CONST>
0

>  <SCORE.SYSTEM.DIHEDRAL>
0

>  <SCORE.SYSTEM.SOLV>
0

>  <SCORE.SYSTEM.norm>
0

>  <SCORE.heavy>
19

>  <SCORE.norm>
-0.901964

>  <RMSD>
1.132

$$$$
ligand
 OpenBabel11021811483D
libRbt.so/2013.1/901 2013/11/27
 19 21  0  0  0  0  0  0  0  0999 V2000
   17.2027   29.0553   34.0609 C   0  0  0  0  0  0  0  0  0  0  0  0
   15.9070   29.0939   34.6840 O   0  0  0  0  0  0  0  0  0  0  0  0
   18.2052   29.9425   34.8064 C   0  0  1  0  0  0  0  0  0  0  0  0
   18.3209   29.5327   36.1688 O   0  0  0  0  0  0  0  0  0  0  0  0
   19.5932   29.8594   34.2003 C   0  0  1  0  0  0  0  0  0  0  0  0
   20.1213   31.1827   34.1009 O   0  0  0  0  0  0  0  0  0  0  0  0
   20.4406   29.0652   35.1684 C   0  0  0  0  0  0  0  0  0  0  0  0
   19.6398   29.0423   36.4576 C   0  0  2  0  0  0  0  0  0  0  0  0
   17.4525   26.2774   40.2430 N   0  0  0  0  0  0  0  0  0  0  0  0
   17.3819   27.5998   39.9570 C   0  0  2  0  0  0  0  0  0  0  0  0
   16.6340   28.4200   40.7247 N   0  0  0  0  0  0  0  0  0  0  0  0
   18.0457   28.1334   38.9098 N   0  0  0  0  0  0  0  0  0  0  0  0
   18.8112   27.3744   38.0998 C   0  0  1  0  0  0  0  0  0  0  0  0
   18.9337   26.0238   38.3324 C   0  0  1  0  0  0  0  0  0  0  0  0
   18.1979   25.4479   39.4850 C   0  0  0  0  0  0  0  0  0  0  0  0
   18.2715   24.2276   39.7496 O   0  0  0  0  0  0  0  0  0  0  0  0
   19.7430   25.5180   37.3860 N   0  0  0  0  0  0  0  0  0  0  0  0
   20.1099   26.5467   36.5874 C   0  0  0  0  0  0  0  0  0  0  0  0
   19.5334   27.6747   37.0325 N   0  0  1  0  0  0  0  0  0  0  0  0
  1  2  1  0  0  0  0
  3  1  1  6  0  0  0
  3  4  1  0  0  0  0
  3  5  1  0  0  0  0
  5  6  1  1  0  0  0
  5  7  1  0  0  0  0
  7  8  1  0  0  0  0
  8  4  1  6  0  0  0
  8 19  1  0  0  0  0
  9 15  1  0  0  0  0
  9 10  1  0  0  0  0
 10 11  1  6  0  0  0
 10 12  1  0  0  0  0
 13 12  1  6  0  0  0
 13 14  1  0  0  0  0
 13 19  1  0  0  0  0
 14 15  1  6  0  0  0
 14 17  1  0  0  0  0
 15 16  2  0  0  0  0
 17 18  1  0  0  0  0
 19 18  1  6  0  0  0
M  END
>  <CHROM.1>
58.16467138,-55.49284283,18.53111961,27.94463081,37.10756902,1.41683166,0.56980345
-0.84575382

>  <Name>
ligand

>  <RI>
0

>  <Rbt.Current_Directory>
/home/itssahil/PROJECTS/Mol_Feturizer/New_Systems/rnas/3SKL

>  <Rbt.Executable>
rbdock ($Id: //depot/dev/client3/rdock/2013.1/src/exe/rbdock.cxx#4 $)

>  <Rbt.Library>
libRbt.so (2013.1, Build901 2013/11/27)

>  <Rbt.Parameter_File>
/export/apps/rDock/src/rDock_2013.1_src/data/scripts/dock_solv.prm

>  <Rbt.Receptor>
prm/pocket_docking_6.prm

>  <SCORE>
-17.1046

>  <SCORE.INTER>
-17.0611

>  <SCORE.INTER.CONST>
1

>  <SCORE.INTER.POLAR>
0

>  <SCORE.INTER.ROT>
2

>  <SCORE.INTER.SOLV>
18.959

>  <SCORE.INTER.VDW>
-22.627

>  <SCORE.INTER.norm>
-0.89795

>  <SCORE.INTRA>
-0.0435344

>  <SCORE.INTRA.DIHEDRAL>
-0.281271

>  <SCORE.INTRA.DIHEDRAL.0>
1.50031

>  <SCORE.INTRA.POLAR>
0

>  <SCORE.INTRA.POLAR.0>
0

>  <SCORE.INTRA.REPUL>
0

>  <SCORE.INTRA.REPUL.0>
0

>  <SCORE.INTRA.SOLV>
-0.506994

>  <SCORE.INTRA.SOLV.lig_0>
-37.9941

>  <SCORE.INTRA.VDW>
0.350598

>  <SCORE.INTRA.VDW.0>
-0.964461

>  <SCORE.INTRA.norm>
-0.00229128

>  <SCORE.RESTR>
0

>  <SCORE.RESTR.CAVITY>
0

>  <SCORE.RESTR.norm>
0

>  <SCORE.SYSTEM>
0

>  <SCORE.SYSTEM.CONST>
0

>  <SCORE.SYSTEM.DIHEDRAL>
0

>  <SCORE.SYSTEM.SOLV>
0

>  <SCORE.SYSTEM.norm>
0

>  <SCORE.heavy>
19

>  <SCORE.norm>
-0.900242

>  <RMSD>
1.132

$$$$
ligand
 OpenBabel11021811483D
libRbt.so/2013.1/901 2013/11/27
 19 21  0  0  0  0  0  0  0  0999 V2000
   17.2019   29.0722   34.0616 C   0  0  0  0  0  0  0  0  0  0  0  0
   15.9167   29.0784   34.7073 O   0  0  0  0  0  0  0  0  0  0  0  0
   18.2081   29.9471   34.8168 C   0  0  1  0  0  0  0  0  0  0  0  0
   18.3167   29.5264   36.1764 O   0  0  0  0  0  0  0  0  0  0  0  0
   19.5974   29.8590   34.2143 C   0  0  1  0  0  0  0  0  0  0  0  0
   20.1348   31.1793   34.1263 O   0  0  0  0  0  0  0  0  0  0  0  0
   20.4363   29.0519   35.1791 C   0  0  0  0  0  0  0  0  0  0  0  0
   19.6314   29.0249   36.4656 C   0  0  2  0  0  0  0  0  0  0  0  0
   17.4195   26.2485   40.2282 N   0  0  0  0  0  0  0  0  0  0  0  0
   17.3594   27.5735   39.9521 C   0  0  2  0  0  0  0  0  0  0  0  0
   16.6172   28.3937   40.7255 N   0  0  0  0  0  0  0  0  0  0  0  0
   18.0282   28.1099   38.9096 N   0  0  0  0  0  0  0  0  0  0  0  0
   18.7884   27.3511   38.0944 C   0  0  1  0  0  0  0  0  0  0  0  0
   18.9002   25.9979   38.3169 C   0  0  1  0  0  0  0  0  0  0  0  0
   18.1590   25.4191   39.4645 C   0  0  0  0  0  0  0  0  0  0  0  0
   18.2229   24.1962   39.7200 O   0  0  0  0  0  0  0  0  0  0  0  0
   19.7064   25.4930   37.3674 N   0  0  0  0  0  0  0  0  0  0  0  0
   20.0820   26.5248   36.5768 C   0  0  0  0  0  0  0  0  0  0  0  0
   19.5139   27.6539   37.0301 N   0  0  1  0  0  0  0  0  0  0  0  0
  1  2  1  0  0  0  0
  3  1  1  6  0  0  0
  3  4  1  0  0  0  0
  3  5  1  0  0  0  0
  5  6  1  1  0  0  0
  5  7  1  0  0  0  0
  7  8  1  0  0  0  0
  8  4  1  6  0  0  0
  8 19  1  0  0  0  0
  9 15  1  0  0  0  0
  9 10  1  0  0  0  0
 10 11  1  6  0  0  0
 10 12  1  0  0  0  0
 13 12  1  6  0  0  0
 13 14  1  0  0  0  0
 13 19  1  0  0  0  0
 14 15  1  6  0  0  0
 14 17  1  0  0  0  0
 15 16  2  0  0  0  0
 17 18  1  0  0  0  0
 19 18  1  6  0  0  0
M  END
>  <CHROM.1>
56.15963752,-55.63518180,18.51563990,27.92821624,37.10691803,1.40705537,0.57790134
-0.83314709

>  <Name>
ligand

>  <RI>
0

>  <Rbt.Current_Directory>
/home/itssahil/PROJECTS/Mol_Feturizer/New_Systems/rnas/3SKL

>  <Rbt.Executable>
rbdock ($Id: //depot/dev/client3/rdock/2013.1/src/exe/rbdock.cxx#4 $)

>  <Rbt.Library>
libRbt.so (2013.1, Build901 2013/11/27)

>  <Rbt.Parameter_File>
/export/apps/rDock/src/rDock_2013.1_src/data/scripts/dock_solv.prm

>  <Rbt.Receptor>
prm/pocket_docking_5.prm

>  <SCORE>
-17.1172

>  <SCORE.INTER>
-17.1006

>  <SCORE.INTER.CONST>
1

>  <SCORE.INTER.POLAR>
0

>  <SCORE.INTER.ROT>
2

>  <SCORE.INTER.SOLV>
19.0239

>  <SCORE.INTER.VDW>
-22.675

>  <SCORE.INTER.norm>
-0.900031

>  <SCORE.INTRA>
-0.0165745

>  <SCORE.INTRA.DIHEDRAL>
-0.241075

>  <SCORE.INTRA.DIHEDRAL.0>
1.50031

>  <SCORE.INTRA.POLAR>
0

>  <SCORE.INTRA.POLAR.0>
0

>  <SCORE.INTRA.REPUL>
0

>  <SCORE.INTRA.REPUL.0>
0

>  <SCORE.INTRA.SOLV>
-0.496921

>  <SCORE.INTRA.SOLV.lig_0>
-37.9941

>  <SCORE.INTRA.VDW>
0.352424

>  <SCORE.INTRA.VDW.0>
-0.964461

>  <SCORE.INTRA.norm>
-0.000872339

>  <SCORE.RESTR>
0

>  <SCORE.RESTR.CAVITY>
0

>  <SCORE.RESTR.norm>
0

>  <SCORE.SYSTEM>
0

>  <SCORE.SYSTEM.CONST>
0

>  <SCORE.SYSTEM.DIHEDRAL>
0

>  <SCORE.SYSTEM.SOLV>
0

>  <SCORE.SYSTEM.norm>
0

>  <SCORE.heavy>
19

>  <SCORE.norm>
-0.900903

>  <RMSD>
1.136

$$$$
ligand
 OpenBabel11021811483D
libRbt.so/2013.1/901 2013/11/27
 19 21  0  0  0  0  0  0  0  0999 V2000
   17.2015   29.0886   34.0612 C   0  0  0  0  0  0  0  0  0  0  0  0
   15.9134   29.1384   34.6992 O   0  0  0  0  0  0  0  0  0  0  0  0
   18.2266   29.9471   34.8096 C   0  0  1  0  0  0  0  0  0  0  0  0
   18.3317   29.5297   36.1705 O   0  0  0  0  0  0  0  0  0  0  0  0
   19.6120   29.8302   34.2030 C   0  0  1  0  0  0  0  0  0  0  0  0
   20.1741   31.1398   34.1080 O   0  0  0  0  0  0  0  0  0  0  0  0
   20.4386   29.0111   35.1683 C   0  0  0  0  0  0  0  0  0  0  0  0
   19.6375   29.0045   36.4575 C   0  0  2  0  0  0  0  0  0  0  0  0
   17.3798   26.2841   40.2338 N   0  0  0  0  0  0  0  0  0  0  0  0
   17.3434   27.6089   39.9522 C   0  0  2  0  0  0  0  0  0  0  0  0
   16.6169   28.4456   40.7229 N   0  0  0  0  0  0  0  0  0  0  0  0
   18.0207   28.1287   38.9068 N   0  0  0  0  0  0  0  0  0  0  0  0
   18.7662   27.3529   38.0941 C   0  0  1  0  0  0  0  0  0  0  0  0
   18.8537   25.9989   38.3221 C   0  0  1  0  0  0  0  0  0  0  0  0
   18.1034   25.4383   39.4728 C   0  0  0  0  0  0  0  0  0  0  0  0
   18.1454   24.2156   39.7333 O   0  0  0  0  0  0  0  0  0  0  0  0
   19.6496   25.4756   37.3739 N   0  0  0  0  0  0  0  0  0  0  0  0
   20.0430   26.4971   36.5787 C   0  0  0  0  0  0  0  0  0  0  0  0
   19.4959   27.6381   37.0278 N   0  0  1  0  0  0  0  0  0  0  0  0
  1  2  1  0  0  0  0
  3  1  1  6  0  0  0
  3  4  1  0  0  0  0
  3  5  1  0  0  0  0
  5  6  1  1  0  0  0
  5  7  1  0  0  0  0
  7  8  1  0  0  0  0
  8  4  1  6  0  0  0
  8 19  1  0  0  0  0
  9 15  1  0  0  0  0
  9 10  1  0  0  0  0
 10 11  1  6  0  0  0
 10 12  1  0  0  0  0
 13 12  1  6  0  0  0
 13 14  1  0  0  0  0
 13 19  1  0  0  0  0
 14 15  1  6  0  0  0
 14 17  1  0  0  0  0
 15 16  2  0  0  0  0
 17 18  1  0  0  0  0
 19 18  1  6  0  0  0
M  END
>  <CHROM.1>
57.06449299,-55.49368347,18.50127454,27.93239653,37.10475670,1.39494930,0.59058534
-0.83024952

>  <Name>
ligand

>  <RI>
0

>  <Rbt.Current_Directory>
/home/itssahil/PROJECTS/Mol_Feturizer/New_Systems/rnas/3SKL

>  <Rbt.Executable>
rbdock ($Id: //depot/dev/client3/rdock/2013.1/src/exe/rbdock.cxx#4 $)

>  <Rbt.Library>
libRbt.so (2013.1, Build901 2013/11/27)

>  <Rbt.Parameter_File>
/export/apps/rDock/src/rDock_2013.1_src/data/scripts/dock_solv.prm

>  <Rbt.Receptor>
prm/pocket_docking_6.prm

>  <SCORE>
-17.1343

>  <SCORE.INTER>
-17.1037

>  <SCORE.INTER.CONST>
1

>  <SCORE.INTER.POLAR>
0

>  <SCORE.INTER.ROT>
2

>  <SCORE.INTER.SOLV>
19.0611

>  <SCORE.INTER.VDW>
-22.6895

>  <SCORE.INTER.norm>
-0.900195

>  <SCORE.INTRA>
-0.0305633

>  <SCORE.INTRA.DIHEDRAL>
-0.262676

>  <SCORE.INTRA.DIHEDRAL.0>
1.50031

>  <SCORE.INTRA.POLAR>
0

>  <SCORE.INTRA.POLAR.0>
0

>  <SCORE.INTRA.REPUL>
0

>  <SCORE.INTRA.REPUL.0>
0

>  <SCORE.INTRA.SOLV>
-0.501427

>  <SCORE.INTRA.SOLV.lig_0>
-37.9941

>  <SCORE.INTRA.VDW>
0.351488

>  <SCORE.INTRA.VDW.0>
-0.964461

>  <SCORE.INTRA.norm>
-0.0016086

>  <SCORE.RESTR>
0

>  <SCORE.RESTR.CAVITY>
0

>  <SCORE.RESTR.norm>
0

>  <SCORE.SYSTEM>
0

>  <SCORE.SYSTEM.CONST>
0

>  <SCORE.SYSTEM.DIHEDRAL>
0

>  <SCORE.SYSTEM.SOLV>
0

>  <SCORE.SYSTEM.norm>
0

>  <SCORE.heavy>
19

>  <SCORE.norm>
-0.901804

>  <RMSD>
1.137

$$$$
ligand
 OpenBabel11021811483D
libRbt.so/2013.1/901 2013/11/27
 19 21  0  0  0  0  0  0  0  0999 V2000
   17.2141   29.0734   34.0534 C   0  0  0  0  0  0  0  0  0  0  0  0
   15.9165   29.1074   34.6730 O   0  0  0  0  0  0  0  0  0  0  0  0
   18.2156   29.9514   34.8111 C   0  0  1  0  0  0  0  0  0  0  0  0
   18.3289   29.5254   36.1687 O   0  0  0  0  0  0  0  0  0  0  0  0
   19.6046   29.8751   34.2063 C   0  0  1  0  0  0  0  0  0  0  0  0
   20.1331   31.1993   34.1234 O   0  0  0  0  0  0  0  0  0  0  0  0
   20.4501   29.0692   35.1663 C   0  0  0  0  0  0  0  0  0  0  0  0
   19.6472   29.0312   36.4538 C   0  0  2  0  0  0  0  0  0  0  0  0
   17.4887   26.2302   40.2291 N   0  0  0  0  0  0  0  0  0  0  0  0
   17.4226   27.5566   39.9610 C   0  0  2  0  0  0  0  0  0  0  0  0
   16.6887   28.3712   40.7482 N   0  0  0  0  0  0  0  0  0  0  0  0
   18.0770   28.0999   38.9130 N   0  0  0  0  0  0  0  0  0  0  0  0
   18.8282   27.3470   38.0841 C   0  0  1  0  0  0  0  0  0  0  0  0
   18.9454   25.9929   38.2978 C   0  0  1  0  0  0  0  0  0  0  0  0
   18.2200   25.4064   39.4516 C   0  0  0  0  0  0  0  0  0  0  0  0
   18.2894   24.1823   39.6996 O   0  0  0  0  0  0  0  0  0  0  0  0
   19.7404   25.4946   37.3354 N   0  0  0  0  0  0  0  0  0  0  0  0
   20.1039   26.5315   36.5457 C   0  0  0  0  0  0  0  0  0  0  0  0
   19.5395   27.6569   37.0123 N   0  0  1  0  0  0  0  0  0  0  0  0
  1  2  1  0  0  0  0
  3  1  1  6  0  0  0
  3  4  1  0  0  0  0
  3  5  1  0  0  0  0
  5  6  1  1  0  0  0
  5  7  1  0  0  0  0
  7  8  1  0  0  0  0
  8  4  1  6  0  0  0
  8 19  1  0  0  0  0
  9 15  1  0  0  0  0
  9 10  1  0  0  0  0
 10 11  1  6  0  0  0
 10 12  1  0  0  0  0
 13 12  1  6  0  0  0
 13 14  1  0  0  0  0
 13 19  1  0  0  0  0
 14 15  1  6  0  0  0
 14 17  1  0  0  0  0
 15 16  2  0  0  0  0
 17 18  1  0  0  0  0
 19 18  1  6  0  0  0
M  END
>  <CHROM.1>
58.29464067,-56.33693075,18.54724990,27.92867057,37.09632449,1.41973292,0.58246530
-0.83722582

>  <Name>
ligand

>  <RI>
0

>  <Rbt.Current_Directory>
/home/itssahil/PROJECTS/Mol_Feturizer/New_Systems/rnas/3SKL

>  <Rbt.Executable>
rbdock ($Id: //depot/dev/client3/rdock/2013.1/src/exe/rbdock.cxx#4 $)

>  <Rbt.Library>
libRbt.so (2013.1, Build901 2013/11/27)

>  <Rbt.Parameter_File>
/export/apps/rDock/src/rDock_2013.1_src/data/scripts/dock_solv.prm

>  <Rbt.Receptor>
prm/pocket_docking_6.prm

>  <SCORE>
-17.1657

>  <SCORE.INTER>
-17.1203

>  <SCORE.INTER.CONST>
1

>  <SCORE.INTER.POLAR>
0

>  <SCORE.INTER.ROT>
2

>  <SCORE.INTER.SOLV>
18.7527

>  <SCORE.INTER.VDW>
-22.5978

>  <SCORE.INTER.norm>
-0.901069

>  <SCORE.INTRA>
-0.0454346

>  <SCORE.INTRA.DIHEDRAL>
-0.283975

>  <SCORE.INTRA.DIHEDRAL.0>
1.50031

>  <SCORE.INTRA.POLAR>
0

>  <SCORE.INTRA.POLAR.0>
0

>  <SCORE.INTRA.REPUL>
0

>  <SCORE.INTRA.REPUL.0>
0

>  <SCORE.INTRA.SOLV>
-0.508297

>  <SCORE.INTRA.SOLV.lig_0>
-37.9941

>  <SCORE.INTRA.VDW>
0.350702

>  <SCORE.INTRA.VDW.0>
-0.964461

>  <SCORE.INTRA.norm>
-0.00239129

>  <SCORE.RESTR>
0

>  <SCORE.RESTR.CAVITY>
0

>  <SCORE.RESTR.norm>
0

>  <SCORE.SYSTEM>
0

>  <SCORE.SYSTEM.CONST>
0

>  <SCORE.SYSTEM.DIHEDRAL>
0

>  <SCORE.SYSTEM.SOLV>
0

>  <SCORE.SYSTEM.norm>
0

>  <SCORE.heavy>
19

>  <SCORE.norm>
-0.90346

>  <RMSD>
1.137

$$$$
ligand
 OpenBabel11021811483D
libRbt.so/2013.1/901 2013/11/27
 19 21  0  0  0  0  0  0  0  0999 V2000
   17.2892   29.1785   34.0137 C   0  0  0  0  0  0  0  0  0  0  0  0
   15.9958   29.1560   34.6425 O   0  0  0  0  0  0  0  0  0  0  0  0
   18.2796   30.0355   34.8090 C   0  0  1  0  0  0  0  0  0  0  0  0
   18.3640   29.5808   36.1594 O   0  0  0  0  0  0  0  0  0  0  0  0
   19.6799   29.9646   34.2303 C   0  0  1  0  0  0  0  0  0  0  0  0
   20.2163   31.2875   34.1854 O   0  0  0  0  0  0  0  0  0  0  0  0
   20.5025   29.1347   35.1897 C   0  0  0  0  0  0  0  0  0  0  0  0
   19.6741   29.0741   36.4601 C   0  0  2  0  0  0  0  0  0  0  0  0
   17.4707   26.2151   40.1654 N   0  0  0  0  0  0  0  0  0  0  0  0
   17.4206   27.5478   39.9265 C   0  0  2  0  0  0  0  0  0  0  0  0
   16.6932   28.3530   40.7292 N   0  0  0  0  0  0  0  0  0  0  0  0
   18.0848   28.1066   38.8929 N   0  0  0  0  0  0  0  0  0  0  0  0
   18.8304   27.3637   38.0500 C   0  0  1  0  0  0  0  0  0  0  0  0
   18.9314   26.0039   38.2340 C   0  0  1  0  0  0  0  0  0  0  0  0
   18.1954   25.4004   39.3722 C   0  0  0  0  0  0  0  0  0  0  0  0
   18.2501   24.1704   39.5932 O   0  0  0  0  0  0  0  0  0  0  0  0
   19.7241   25.5181   37.2634 N   0  0  0  0  0  0  0  0  0  0  0  0
   20.1021   26.5679   36.4981 C   0  0  0  0  0  0  0  0  0  0  0  0
   19.5489   27.6892   36.9876 N   0  0  1  0  0  0  0  0  0  0  0  0
  1  2  1  0  0  0  0
  3  1  1  6  0  0  0
  3  4  1  0  0  0  0
  3  5  1  0  0  0  0
  5  6  1  1  0  0  0
  5  7  1  0  0  0  0
  7  8  1  0  0  0  0
  8  4  1  6  0  0  0
  8 19  1  0  0  0  0
  9 15  1  0  0  0  0
  9 10  1  0  0  0  0
 10 11  1  6  0  0  0
 10 12  1  0  0  0  0
 13 12  1  6  0  0  0
 13 14  1  0  0  0  0
 13 19  1  0  0  0  0
 14 15  1  6  0  0  0
 14 17  1  0  0  0  0
 15 16  2  0  0  0  0
 17 18  1  0  0  0  0
 19 18  1  6  0  0  0
M  END
>  <CHROM.1>
55.60156603,-57.34773223,18.56955338,27.96351218,37.06909302,1.40034409,0.59377382
-0.80726342

>  <Name>
ligand

>  <RI>
0

>  <Rbt.Current_Directory>
/home/itssahil/PROJECTS/Mol_Feturizer/New_Systems/rnas/3SKL

>  <Rbt.Executable>
rbdock ($Id: //depot/dev/client3/rdock/2013.1/src/exe/rbdock.cxx#4 $)

>  <Rbt.Library>
libRbt.so (2013.1, Build901 2013/11/27)

>  <Rbt.Parameter_File>
/export/apps/rDock/src/rDock_2013.1_src/data/scripts/dock_solv.prm

>  <Rbt.Receptor>
prm/pocket_docking_6.prm

>  <SCORE>
-17.2132

>  <SCORE.INTER>
-17.2051

>  <SCORE.INTER.CONST>
1

>  <SCORE.INTER.POLAR>
0

>  <SCORE.INTER.ROT>
2

>  <SCORE.INTER.SOLV>
18.7323

>  <SCORE.INTER.VDW>
-22.6475

>  <SCORE.INTER.norm>
-0.90553

>  <SCORE.INTRA>
-0.00809564

>  <SCORE.INTRA.DIHEDRAL>
-0.22695

>  <SCORE.INTRA.DIHEDRAL.0>
1.50031

>  <SCORE.INTRA.POLAR>
0

>  <SCORE.INTRA.POLAR.0>
0

>  <SCORE.INTRA.REPUL>
0

>  <SCORE.INTRA.REPUL.0>
0

>  <SCORE.INTRA.SOLV>
-0.495382

>  <SCORE.INTRA.SOLV.lig_0>
-37.9941

>  <SCORE.INTRA.VDW>
0.35307

>  <SCORE.INTRA.VDW.0>
-0.964461

>  <SCORE.INTRA.norm>
-0.000426086

>  <SCORE.RESTR>
0

>  <SCORE.RESTR.CAVITY>
0

>  <SCORE.RESTR.norm>
0

>  <SCORE.SYSTEM>
0

>  <SCORE.SYSTEM.CONST>
0

>  <SCORE.SYSTEM.DIHEDRAL>
0

>  <SCORE.SYSTEM.SOLV>
0

>  <SCORE.SYSTEM.norm>
0

>  <SCORE.heavy>
19

>  <SCORE.norm>
-0.905956

>  <RMSD>
1.140

$$$$
ligand
 OpenBabel11021811483D
libRbt.so/2013.1/901 2013/11/27
 19 21  0  0  0  0  0  0  0  0999 V2000
   17.2468   29.1565   34.0225 C   0  0  0  0  0  0  0  0  0  0  0  0
   15.9569   29.1341   34.6584 O   0  0  0  0  0  0  0  0  0  0  0  0
   18.2385   30.0226   34.8062 C   0  0  1  0  0  0  0  0  0  0  0  0
   18.3391   29.5720   36.1568 O   0  0  0  0  0  0  0  0  0  0  0  0
   19.6337   29.9605   34.2142 C   0  0  1  0  0  0  0  0  0  0  0  0
   20.1599   31.2872   34.1611 O   0  0  0  0  0  0  0  0  0  0  0  0
   20.4714   29.1390   35.1678 C   0  0  0  0  0  0  0  0  0  0  0  0
   19.6557   29.0756   36.4462 C   0  0  2  0  0  0  0  0  0  0  0  0
   17.4826   26.2045   40.1600 N   0  0  0  0  0  0  0  0  0  0  0  0
   17.4178   27.5357   39.9168 C   0  0  2  0  0  0  0  0  0  0  0  0
   16.6812   28.3355   40.7165 N   0  0  0  0  0  0  0  0  0  0  0  0
   18.0763   28.0985   38.8816 N   0  0  0  0  0  0  0  0  0  0  0  0
   18.8303   27.3611   38.0414 C   0  0  1  0  0  0  0  0  0  0  0  0
   18.9465   26.0032   38.2299 C   0  0  1  0  0  0  0  0  0  0  0  0
   18.2167   25.3952   39.3698 C   0  0  0  0  0  0  0  0  0  0  0  0
   18.2849   24.1667   39.5949 O   0  0  0  0  0  0  0  0  0  0  0  0
   19.7449   25.5230   37.2612 N   0  0  0  0  0  0  0  0  0  0  0  0
   20.1116   26.5744   36.4926 C   0  0  0  0  0  0  0  0  0  0  0  0
   19.5457   27.6910   36.9782 N   0  0  1  0  0  0  0  0  0  0  0  0
  1  2  1  0  0  0  0
  3  1  1  6  0  0  0
  3  4  1  0  0  0  0
  3  5  1  0  0  0  0
  5  6  1  1  0  0  0
  5  7  1  0  0  0  0
  7  8  1  0  0  0  0
  8  4  1  6  0  0  0
  8 19  1  0  0  0  0
  9 15  1  0  0  0  0
  9 10  1  0  0  0  0
 10 11  1  6  0  0  0
 10 12  1  0  0  0  0
 13 12  1  6  0  0  0
 13 14  1  0  0  0  0
 13 19  1  0  0  0  0
 14 15  1  6  0  0  0
 14 17  1  0  0  0  0
 15 16  2  0  0  0  0
 17 18  1  0  0  0  0
 19 18  1  6  0  0  0
M  END
>  <CHROM.1>
56.03072058,-56.73354241,18.55756426,27.95743110,37.06258852,1.41210836,0.58386939
-0.81521434

>  <Name>
ligand

>  <RI>
0

>  <Rbt.Current_Directory>
/home/itssahil/PROJECTS/Mol_Feturizer/New_Systems/rnas/3SKL

>  <Rbt.Executable>
rbdock ($Id: //depot/dev/client3/rdock/2013.1/src/exe/rbdock.cxx#4 $)

>  <Rbt.Library>
libRbt.so (2013.1, Build901 2013/11/27)

>  <Rbt.Parameter_File>
/export/apps/rDock/src/rDock_2013.1_src/data/scripts/dock_solv.prm

>  <Rbt.Receptor>
prm/pocket_docking_6.prm

>  <SCORE>
-17.1981

>  <SCORE.INTER>
-17.1828

>  <SCORE.INTER.CONST>
1

>  <SCORE.INTER.POLAR>
0

>  <SCORE.INTER.ROT>
2

>  <SCORE.INTER.SOLV>
18.7693

>  <SCORE.INTER.VDW>
-22.645

>  <SCORE.INTER.norm>
-0.90436

>  <SCORE.INTRA>
-0.0152887

>  <SCORE.INTRA.DIHEDRAL>
-0.238909

>  <SCORE.INTRA.DIHEDRAL.0>
1.50031

>  <SCORE.INTRA.POLAR>
0

>  <SCORE.INTRA.POLAR.0>
0

>  <SCORE.INTRA.REPUL>
0

>  <SCORE.INTRA.REPUL.0>
0

>  <SCORE.INTRA.SOLV>
-0.497107

>  <SCORE.INTRA.SOLV.lig_0>
-37.9941

>  <SCORE.INTRA.VDW>
0.352719

>  <SCORE.INTRA.VDW.0>
-0.964461

>  <SCORE.INTRA.norm>
-0.000804669

>  <SCORE.RESTR>
0

>  <SCORE.RESTR.CAVITY>
0

>  <SCORE.RESTR.norm>
0

>  <SCORE.SYSTEM>
0

>  <SCORE.SYSTEM.CONST>
0

>  <SCORE.SYSTEM.DIHEDRAL>
0

>  <SCORE.SYSTEM.SOLV>
0

>  <SCORE.SYSTEM.norm>
0

>  <SCORE.heavy>
19

>  <SCORE.norm>
-0.905165

>  <RMSD>
1.141

$$$$
ligand
 OpenBabel11021811483D
libRbt.so/2013.1/901 2013/11/27
 19 21  0  0  0  0  0  0  0  0999 V2000
   19.7289   28.7319   32.6653 C   0  0  0  0  0  0  0  0  0  0  0  0
   20.4235   29.4595   31.6373 O   0  0  0  0  0  0  0  0  0  0  0  0
   19.0353   29.6819   33.6474 C   0  0  1  0  0  0  0  0  0  0  0  0
   18.3023   28.9443   34.6251 O   0  0  0  0  0  0  0  0  0  0  0  0
   20.0318   30.5438   34.3991 C   0  0  1  0  0  0  0  0  0  0  0  0
   19.5442   31.8861   34.4154 O   0  0  0  0  0  0  0  0  0  0  0  0
   20.0728   30.0202   35.8169 C   0  0  0  0  0  0  0  0  0  0  0  0
   18.8432   29.1389   35.9416 C   0  0  2  0  0  0  0  0  0  0  0  0
   18.1295   26.1844   40.1271 N   0  0  0  0  0  0  0  0  0  0  0  0
   17.7161   27.4447   39.8509 C   0  0  2  0  0  0  0  0  0  0  0  0
   16.9804   28.1292   40.7520 N   0  0  0  0  0  0  0  0  0  0  0  0
   18.0199   28.0487   38.6827 N   0  0  0  0  0  0  0  0  0  0  0  0
   18.7502   27.4253   37.7360 C   0  0  1  0  0  0  0  0  0  0  0  0
   19.2084   26.1456   37.9493 C   0  0  1  0  0  0  0  0  0  0  0  0
   18.8666   25.4909   39.2362 C   0  0  0  0  0  0  0  0  0  0  0  0
   19.2562   24.3297   39.4900 O   0  0  0  0  0  0  0  0  0  0  0  0
   19.8977   25.7712   36.8580 N   0  0  0  0  0  0  0  0  0  0  0  0
   19.8612   26.8093   35.9909 C   0  0  0  0  0  0  0  0  0  0  0  0
   19.1565   27.8129   36.5379 N   0  0  1  0  0  0  0  0  0  0  0  0
  1  2  1  0  0  0  0
  3  1  1  6  0  0  0
  3  4  1  0  0  0  0
  3  5  1  0  0  0  0
  5  6  1  1  0  0  0
  5  7  1  0  0  0  0
  7  8  1  0  0  0  0
  8  4  1  6  0  0  0
  8 19  1  0  0  0  0
  9 15  1  0  0  0  0
  9 10  1  0  0  0  0
 10 11  1  6  0  0  0
 10 12  1  0  0  0  0
 13 12  1  6  0  0  0
 13 14  1  0  0  0  0
 13 19  1  0  0  0  0
 14 15  1  6  0  0  0
 14 17  1  0  0  0  0
 15 16  2  0  0  0  0
 17 18  1  0  0  0  0
 19 18  1  6  0  0  0
M  END
>  <CHROM.1>
177.41322050,-128.91059097,19.05712451,28.05091285,36.56617555,-1.11972761
-1.13840262,2.53497966

>  <Name>
ligand

>  <RI>
0

>  <Rbt.Current_Directory>
/home/itssahil/PROJECTS/Mol_Feturizer/New_Systems/rnas/3SKL

>  <Rbt.Executable>
rbdock ($Id: //depot/dev/client3/rdock/2013.1/src/exe/rbdock.cxx#4 $)

>  <Rbt.Library>
libRbt.so (2013.1, Build901 2013/11/27)

>  <Rbt.Parameter_File>
/export/apps/rDock/src/rDock_2013.1_src/data/scripts/dock_solv.prm

>  <Rbt.Receptor>
prm/blind_docking_80.prm

>  <SCORE>
-16.3467

>  <SCORE.INTER>
-15.8162

>  <SCORE.INTER.CONST>
1

>  <SCORE.INTER.POLAR>
0

>  <SCORE.INTER.ROT>
2

>  <SCORE.INTER.SOLV>
16.3792

>  <SCORE.INTER.VDW>
-20.9372

>  <SCORE.INTER.norm>
-0.832434

>  <SCORE.INTRA>
-0.530448

>  <SCORE.INTRA.DIHEDRAL>
-0.263159

>  <SCORE.INTRA.DIHEDRAL.0>
1.50031

>  <SCORE.INTRA.POLAR>
0

>  <SCORE.INTRA.POLAR.0>
0

>  <SCORE.INTRA.REPUL>
0

>  <SCORE.INTRA.REPUL.0>
0

>  <SCORE.INTRA.SOLV>
-0.471118

>  <SCORE.INTRA.SOLV.lig_0>
-37.9941

>  <SCORE.INTRA.VDW>
-0.16331

>  <SCORE.INTRA.VDW.0>
-0.964461

>  <SCORE.INTRA.norm>
-0.0279183

>  <SCORE.RESTR>
0

>  <SCORE.RESTR.CAVITY>
0

>  <SCORE.RESTR.norm>
0

>  <SCORE.SYSTEM>
0

>  <SCORE.SYSTEM.CONST>
0

>  <SCORE.SYSTEM.DIHEDRAL>
0

>  <SCORE.SYSTEM.SOLV>
0

>  <SCORE.SYSTEM.norm>
0

>  <SCORE.heavy>
19

>  <SCORE.norm>
-0.860352

>  <RMSD>
1.148

$$$$
ligand
 OpenBabel11021811483D
libRbt.so/2013.1/901 2013/11/27
 19 21  0  0  0  0  0  0  0  0999 V2000
   17.2376   29.1566   34.0277 C   0  0  0  0  0  0  0  0  0  0  0  0
   15.9450   29.1368   34.6581 O   0  0  0  0  0  0  0  0  0  0  0  0
   18.2284   30.0186   34.8172 C   0  0  1  0  0  0  0  0  0  0  0  0
   18.3289   29.5597   36.1650 O   0  0  0  0  0  0  0  0  0  0  0  0
   19.6239   29.9611   34.2254 C   0  0  1  0  0  0  0  0  0  0  0  0
   20.1492   31.2885   34.1806 O   0  0  0  0  0  0  0  0  0  0  0  0
   20.4618   29.1343   35.1742 C   0  0  0  0  0  0  0  0  0  0  0  0
   19.6456   29.0624   36.4518 C   0  0  2  0  0  0  0  0  0  0  0  0
   17.5229   26.1767   40.1834 N   0  0  0  0  0  0  0  0  0  0  0  0
   17.4624   27.5102   39.9516 C   0  0  2  0  0  0  0  0  0  0  0  0
   16.7460   28.3085   40.7709 N   0  0  0  0  0  0  0  0  0  0  0  0
   18.1052   28.0767   38.9086 N   0  0  0  0  0  0  0  0  0  0  0  0
   18.8387   27.3410   38.0490 C   0  0  1  0  0  0  0  0  0  0  0  0
   18.9493   25.9809   38.2250 C   0  0  1  0  0  0  0  0  0  0  0  0
   18.2368   25.3689   39.3736 C   0  0  0  0  0  0  0  0  0  0  0  0
   18.3011   24.1383   39.5880 O   0  0  0  0  0  0  0  0  0  0  0  0
   19.7265   25.5031   37.2380 N   0  0  0  0  0  0  0  0  0  0  0  0
   20.0858   26.5581   36.4707 C   0  0  0  0  0  0  0  0  0  0  0  0
   19.5364   27.6745   36.9753 N   0  0  1  0  0  0  0  0  0  0  0  0
  1  2  1  0  0  0  0
  3  1  1  6  0  0  0
  3  4  1  0  0  0  0
  3  5  1  0  0  0  0
  5  6  1  1  0  0  0
  5  7  1  0  0  0  0
  7  8  1  0  0  0  0
  8  4  1  6  0  0  0
  8 19  1  0  0  0  0
  9 15  1  0  0  0  0
  9 10  1  0  0  0  0
 10 11  1  6  0  0  0
 10 12  1  0  0  0  0
 13 12  1  6  0  0  0
 13 14  1  0  0  0  0
 13 19  1  0  0  0  0
 14 15  1  6  0  0  0
 14 17  1  0  0  0  0
 15 16  2  0  0  0  0
 17 18  1  0  0  0  0
 19 18  1  6  0  0  0
M  END
>  <CHROM.1>
56.42027074,-57.89912332,18.56206129,27.94297391,37.07094389,1.41890010,0.60257604
-0.81505277

>  <Name>
ligand

>  <RI>
0

>  <Rbt.Current_Directory>
/home/itssahil/PROJECTS/Mol_Feturizer/New_Systems/rnas/3SKL

>  <Rbt.Executable>
rbdock ($Id: //depot/dev/client3/rdock/2013.1/src/exe/rbdock.cxx#4 $)

>  <Rbt.Library>
libRbt.so (2013.1, Build901 2013/11/27)

>  <Rbt.Parameter_File>
/export/apps/rDock/src/rDock_2013.1_src/data/scripts/dock_solv.prm

>  <Rbt.Receptor>
prm/pocket_docking_6.prm

>  <SCORE>
-17.1225

>  <SCORE.INTER>
-17.0989

>  <SCORE.INTER.CONST>
1

>  <SCORE.INTER.POLAR>
0

>  <SCORE.INTER.ROT>
2

>  <SCORE.INTER.SOLV>
18.5996

>  <SCORE.INTER.VDW>
-22.5325

>  <SCORE.INTER.norm>
-0.899945

>  <SCORE.INTRA>
-0.0235212

>  <SCORE.INTRA.DIHEDRAL>
-0.250868

>  <SCORE.INTRA.DIHEDRAL.0>
1.50031

>  <SCORE.INTRA.POLAR>
0

>  <SCORE.INTRA.POLAR.0>
0

>  <SCORE.INTRA.REPUL>
0

>  <SCORE.INTRA.REPUL.0>
0

>  <SCORE.INTRA.SOLV>
-0.500006

>  <SCORE.INTRA.SOLV.lig_0>
-37.9941

>  <SCORE.INTRA.VDW>
0.351916

>  <SCORE.INTRA.VDW.0>
-0.964461

>  <SCORE.INTRA.norm>
-0.00123796

>  <SCORE.RESTR>
0

>  <SCORE.RESTR.CAVITY>
0

>  <SCORE.RESTR.norm>
0

>  <SCORE.SYSTEM>
0

>  <SCORE.SYSTEM.CONST>
0

>  <SCORE.SYSTEM.DIHEDRAL>
0

>  <SCORE.SYSTEM.SOLV>
0

>  <SCORE.SYSTEM.norm>
0

>  <SCORE.heavy>
19

>  <SCORE.norm>
-0.901183

>  <RMSD>
1.148

$$$$
ligand
 OpenBabel11021811483D
libRbt.so/2013.1/901 2013/11/27
 19 21  0  0  0  0  0  0  0  0999 V2000
   17.2054   29.0702   34.1476 C   0  0  0  0  0  0  0  0  0  0  0  0
   15.9967   29.0014   34.9240 O   0  0  0  0  0  0  0  0  0  0  0  0
   18.2791   29.8978   34.8619 C   0  0  1  0  0  0  0  0  0  0  0  0
   18.4050   29.4874   36.2233 O   0  0  0  0  0  0  0  0  0  0  0  0
   19.6433   29.7275   34.2209 C   0  0  1  0  0  0  0  0  0  0  0  0
   20.2483   31.0156   34.1002 O   0  0  0  0  0  0  0  0  0  0  0  0
   20.4656   28.8871   35.1716 C   0  0  0  0  0  0  0  0  0  0  0  0
   19.6986   28.9187   36.4810 C   0  0  2  0  0  0  0  0  0  0  0  0
   17.3975   26.3000   40.3027 N   0  0  0  0  0  0  0  0  0  0  0  0
   17.3952   27.6223   40.0077 C   0  0  2  0  0  0  0  0  0  0  0  0
   16.6982   28.4865   40.7753 N   0  0  0  0  0  0  0  0  0  0  0  0
   18.0781   28.1127   38.9517 N   0  0  0  0  0  0  0  0  0  0  0  0
   18.7955   27.3085   38.1413 C   0  0  1  0  0  0  0  0  0  0  0  0
   18.8476   25.9549   38.3826 C   0  0  1  0  0  0  0  0  0  0  0  0
   18.0915   25.4269   39.5449 C   0  0  0  0  0  0  0  0  0  0  0  0
   18.1020   24.2062   39.8177 O   0  0  0  0  0  0  0  0  0  0  0  0
   19.6212   25.4002   37.4337 N   0  0  0  0  0  0  0  0  0  0  0  0
   20.0361   26.4025   36.6250 C   0  0  0  0  0  0  0  0  0  0  0  0
   19.5241   27.5626   37.0665 N   0  0  1  0  0  0  0  0  0  0  0  0
  1  2  1  0  0  0  0
  3  1  1  6  0  0  0
  3  4  1  0  0  0  0
  3  5  1  0  0  0  0
  5  6  1  1  0  0  0
  5  7  1  0  0  0  0
  7  8  1  0  0  0  0
  8  4  1  6  0  0  0
  8 19  1  0  0  0  0
  9 15  1  0  0  0  0
  9 10  1  0  0  0  0
 10 11  1  6  0  0  0
 10 12  1  0  0  0  0
 13 12  1  6  0  0  0
 13 14  1  0  0  0  0
 13 19  1  0  0  0  0
 14 15  1  6  0  0  0
 14 17  1  0  0  0  0
 15 16  2  0  0  0  0
 17 18  1  0  0  0  0
 19 18  1  6  0  0  0
M  END
>  <CHROM.1>
48.16168360,-54.36652353,18.53259229,27.87949409,37.16308565,1.37245071,0.62960135
-0.82280523

>  <Name>
ligand

>  <RI>
0

>  <Rbt.Current_Directory>
/home/itssahil/PROJECTS/Mol_Feturizer/New_Systems/rnas/3SKL

>  <Rbt.Executable>
rbdock ($Id: //depot/dev/client3/rdock/2013.1/src/exe/rbdock.cxx#4 $)

>  <Rbt.Library>
libRbt.so (2013.1, Build901 2013/11/27)

>  <Rbt.Parameter_File>
/export/apps/rDock/src/rDock_2013.1_src/data/scripts/dock_solv.prm

>  <Rbt.Receptor>
prm/pocket_docking_2.prm

>  <SCORE>
-16.6569

>  <SCORE.INTER>
-16.8936

>  <SCORE.INTER.CONST>
1

>  <SCORE.INTER.POLAR>
0

>  <SCORE.INTER.ROT>
2

>  <SCORE.INTER.SOLV>
18.8825

>  <SCORE.INTER.VDW>
-22.4899

>  <SCORE.INTER.norm>
-0.889137

>  <SCORE.INTRA>
0.23671

>  <SCORE.INTRA.DIHEDRAL>
0.195916

>  <SCORE.INTRA.DIHEDRAL.0>
1.50031

>  <SCORE.INTRA.POLAR>
0

>  <SCORE.INTRA.POLAR.0>
0

>  <SCORE.INTRA.REPUL>
0

>  <SCORE.INTRA.REPUL.0>
0

>  <SCORE.INTRA.SOLV>
-0.454021

>  <SCORE.INTRA.SOLV.lig_0>
-37.9941

>  <SCORE.INTRA.VDW>
0.365763

>  <SCORE.INTRA.VDW.0>
-0.964461

>  <SCORE.INTRA.norm>
0.0124584

>  <SCORE.RESTR>
0

>  <SCORE.RESTR.CAVITY>
0

>  <SCORE.RESTR.norm>
0

>  <SCORE.SYSTEM>
0

>  <SCORE.SYSTEM.CONST>
0

>  <SCORE.SYSTEM.DIHEDRAL>
0

>  <SCORE.SYSTEM.SOLV>
0

>  <SCORE.SYSTEM.norm>
0

>  <SCORE.heavy>
19

>  <SCORE.norm>
-0.876678

>  <RMSD>
1.149

$$$$
ligand
 OpenBabel11021811483D
libRbt.so/2013.1/901 2013/11/27
 19 21  0  0  0  0  0  0  0  0999 V2000
   16.9886   28.9946   34.0859 C   0  0  0  0  0  0  0  0  0  0  0  0
   15.7316   29.0241   34.7843 O   0  0  0  0  0  0  0  0  0  0  0  0
   18.0267   29.8896   34.7709 C   0  0  1  0  0  0  0  0  0  0  0  0
   18.2278   29.4795   36.1232 O   0  0  0  0  0  0  0  0  0  0  0  0
   19.3763   29.8187   34.0821 C   0  0  1  0  0  0  0  0  0  0  0  0
   19.8864   31.1464   33.9528 O   0  0  0  0  0  0  0  0  0  0  0  0
   20.2871   29.0307   34.9962 C   0  0  0  0  0  0  0  0  0  0  0  0
   19.5657   28.9999   36.3313 C   0  0  2  0  0  0  0  0  0  0  0  0
   17.5274   26.1870   40.1642 N   0  0  0  0  0  0  0  0  0  0  0  0
   17.4178   27.5068   39.8783 C   0  0  2  0  0  0  0  0  0  0  0  0
   16.6656   28.3092   40.6606 N   0  0  0  0  0  0  0  0  0  0  0  0
   18.0461   28.0552   38.8170 N   0  0  0  0  0  0  0  0  0  0  0  0
   18.8134   27.3144   37.9921 C   0  0  1  0  0  0  0  0  0  0  0  0
   18.9745   25.9677   38.2234 C   0  0  1  0  0  0  0  0  0  0  0  0
   18.2774   25.3753   39.3917 C   0  0  0  0  0  0  0  0  0  0  0  0
   18.3870   24.1577   39.6560 O   0  0  0  0  0  0  0  0  0  0  0  0
   19.7764   25.4808   37.2610 N   0  0  0  0  0  0  0  0  0  0  0  0
   20.1008   26.5171   36.4538 C   0  0  0  0  0  0  0  0  0  0  0  0
   19.5056   27.6310   36.9097 N   0  0  1  0  0  0  0  0  0  0  0  0
  1  2  1  0  0  0  0
  3  1  1  6  0  0  0
  3  4  1  0  0  0  0
  3  5  1  0  0  0  0
  5  6  1  1  0  0  0
  5  7  1  0  0  0  0
  7  8  1  0  0  0  0
  8  4  1  6  0  0  0
  8 19  1  0  0  0  0
  9 15  1  0  0  0  0
  9 10  1  0  0  0  0
 10 11  1  6  0  0  0
 10 12  1  0  0  0  0
 13 12  1  6  0  0  0
 13 14  1  0  0  0  0
 13 19  1  0  0  0  0
 14 15  1  6  0  0  0
 14 17  1  0  0  0  0
 15 16  2  0  0  0  0
 17 18  1  0  0  0  0
 19 18  1  6  0  0  0
M  END
>  <CHROM.1>
58.28892303,-53.02931085,18.47711146,27.88506318,37.02431007,1.46398418,0.56507215
-0.86382403

>  <Name>
ligand

>  <RI>
0

>  <Rbt.Current_Directory>
/home/itssahil/PROJECTS/Mol_Feturizer/New_Systems/rnas/3SKL

>  <Rbt.Executable>
rbdock ($Id: //depot/dev/client3/rdock/2013.1/src/exe/rbdock.cxx#4 $)

>  <Rbt.Library>
libRbt.so (2013.1, Build901 2013/11/27)

>  <Rbt.Parameter_File>
/export/apps/rDock/src/rDock_2013.1_src/data/scripts/dock_solv.prm

>  <Rbt.Receptor>
prm/pocket_docking_4.prm

>  <SCORE>
-16.9917

>  <SCORE.INTER>
-16.9473

>  <SCORE.INTER.CONST>
1

>  <SCORE.INTER.POLAR>
0

>  <SCORE.INTER.ROT>
2

>  <SCORE.INTER.SOLV>
18.8372

>  <SCORE.INTER.VDW>
-22.5106

>  <SCORE.INTER.norm>
-0.891965

>  <SCORE.INTRA>
-0.0443683

>  <SCORE.INTRA.DIHEDRAL>
-0.279736

>  <SCORE.INTRA.DIHEDRAL.0>
1.50031

>  <SCORE.INTRA.POLAR>
0

>  <SCORE.INTRA.POLAR.0>
0

>  <SCORE.INTRA.REPUL>
0

>  <SCORE.INTRA.REPUL.0>
0

>  <SCORE.INTRA.SOLV>
-0.505734

>  <SCORE.INTRA.SOLV.lig_0>
-37.9941

>  <SCORE.INTRA.VDW>
0.348367

>  <SCORE.INTRA.VDW.0>
-0.964461

>  <SCORE.INTRA.norm>
-0.00233517

>  <SCORE.RESTR>
0

>  <SCORE.RESTR.CAVITY>
0

>  <SCORE.RESTR.norm>
0

>  <SCORE.SYSTEM>
0

>  <SCORE.SYSTEM.CONST>
0

>  <SCORE.SYSTEM.DIHEDRAL>
0

>  <SCORE.SYSTEM.SOLV>
0

>  <SCORE.SYSTEM.norm>
0

>  <SCORE.heavy>
19

>  <SCORE.norm>
-0.8943

>  <RMSD>
1.151

$$$$
ligand
 OpenBabel11021811483D
libRbt.so/2013.1/901 2013/11/27
 19 21  0  0  0  0  0  0  0  0999 V2000
   20.7797   28.7343   32.8838 C   0  0  0  0  0  0  0  0  0  0  0  0
   20.1865   27.8222   31.9431 O   0  0  0  0  0  0  0  0  0  0  0  0
   19.7117   29.5690   33.5985 C   0  0  1  0  0  0  0  0  0  0  0  0
   18.8264   28.7257   34.3350 O   0  0  0  0  0  0  0  0  0  0  0  0
   20.3236   30.5407   34.5896 C   0  0  1  0  0  0  0  0  0  0  0  0
   19.6830   31.8075   34.4326 O   0  0  0  0  0  0  0  0  0  0  0  0
   20.0148   30.0030   35.9686 C   0  0  0  0  0  0  0  0  0  0  0  0
   18.9278   28.9670   35.7474 C   0  0  2  0  0  0  0  0  0  0  0  0
   18.0375   26.2686   40.0700 N   0  0  0  0  0  0  0  0  0  0  0  0
   17.6290   27.5054   39.6972 C   0  0  2  0  0  0  0  0  0  0  0  0
   16.8469   28.2369   40.5189 N   0  0  0  0  0  0  0  0  0  0  0  0
   17.9834   28.0394   38.5093 N   0  0  0  0  0  0  0  0  0  0  0  0
   18.7620   27.3662   37.6382 C   0  0  1  0  0  0  0  0  0  0  0  0
   19.2183   26.1065   37.9514 C   0  0  1  0  0  0  0  0  0  0  0  0
   18.8207   25.5289   39.2590 C   0  0  0  0  0  0  0  0  0  0  0  0
   19.2059   24.3894   39.6021 O   0  0  0  0  0  0  0  0  0  0  0  0
   19.9610   25.6725   36.9187 N   0  0  0  0  0  0  0  0  0  0  0  0
   19.9583   26.6549   35.9884 C   0  0  0  0  0  0  0  0  0  0  0  0
   19.2216   27.6832   36.4386 N   0  0  1  0  0  0  0  0  0  0  0  0
  1  2  1  0  0  0  0
  3  1  1  1  0  0  0
  3  4  1  0  0  0  0
  3  5  1  0  0  0  0
  5  6  1  1  0  0  0
  5  7  1  0  0  0  0
  7  8  1  0  0  0  0
  8  4  1  6  0  0  0
  8 19  1  0  0  0  0
  9 15  1  0  0  0  0
  9 10  1  0  0  0  0
 10 11  1  6  0  0  0
 10 12  1  0  0  0  0
 13 12  1  6  0  0  0
 13 14  1  0  0  0  0
 13 19  1  0  0  0  0
 14 15  1  6  0  0  0
 14 17  1  0  0  0  0
 15 16  2  0  0  0  0
 17 18  1  0  0  0  0
 19 18  1  6  0  0  0
M  END
>  <CHROM.1>
61.19101242,-145.30818795,19.17809800,27.91138581,36.55486264,-0.95667396
-1.13749300,2.64967642

>  <Name>
ligand

>  <RI>
0

>  <Rbt.Current_Directory>
/home/itssahil/PROJECTS/Mol_Feturizer/New_Systems/rnas/3SKL

>  <Rbt.Executable>
rbdock ($Id: //depot/dev/client3/rdock/2013.1/src/exe/rbdock.cxx#4 $)

>  <Rbt.Library>
libRbt.so (2013.1, Build901 2013/11/27)

>  <Rbt.Parameter_File>
/export/apps/rDock/src/rDock_2013.1_src/data/scripts/dock_solv.prm

>  <Rbt.Receptor>
prm/pocket_docking_3.prm

>  <SCORE>
-16.044

>  <SCORE.INTER>
-15.3763

>  <SCORE.INTER.CONST>
1

>  <SCORE.INTER.POLAR>
0

>  <SCORE.INTER.ROT>
2

>  <SCORE.INTER.SOLV>
16.3164

>  <SCORE.INTER.VDW>
-20.623

>  <SCORE.INTER.norm>
-0.809277

>  <SCORE.INTRA>
-0.667746

>  <SCORE.INTRA.DIHEDRAL>
-0.268416

>  <SCORE.INTRA.DIHEDRAL.0>
1.50031

>  <SCORE.INTRA.POLAR>
0

>  <SCORE.INTRA.POLAR.0>
0

>  <SCORE.INTRA.REPUL>
0

>  <SCORE.INTRA.REPUL.0>
0

>  <SCORE.INTRA.SOLV>
-0.559599

>  <SCORE.INTRA.SOLV.lig_0>
-37.9941

>  <SCORE.INTRA.VDW>
-0.253738

>  <SCORE.INTRA.VDW.0>
-0.964461

>  <SCORE.INTRA.norm>
-0.0351445

>  <SCORE.RESTR>
0

>  <SCORE.RESTR.CAVITY>
0

>  <SCORE.RESTR.norm>
0

>  <SCORE.SYSTEM>
0

>  <SCORE.SYSTEM.CONST>
0

>  <SCORE.SYSTEM.DIHEDRAL>
0

>  <SCORE.SYSTEM.SOLV>
0

>  <SCORE.SYSTEM.norm>
0

>  <SCORE.heavy>
19

>  <SCORE.norm>
-0.844422

>  <RMSD>
1.158

$$$$
ligand
 OpenBabel11021811483D
libRbt.so/2013.1/901 2013/11/27
 19 21  0  0  0  0  0  0  0  0999 V2000
   17.2238   29.0890   34.1414 C   0  0  0  0  0  0  0  0  0  0  0  0
   16.0154   29.0025   34.9165 O   0  0  0  0  0  0  0  0  0  0  0  0
   18.2963   29.9039   34.8720 C   0  0  1  0  0  0  0  0  0  0  0  0
   18.4187   29.4706   36.2265 O   0  0  0  0  0  0  0  0  0  0  0  0
   19.6619   29.7436   34.2314 C   0  0  1  0  0  0  0  0  0  0  0  0
   20.2677   31.0333   34.1338 O   0  0  0  0  0  0  0  0  0  0  0  0
   20.4814   28.8869   35.1697 C   0  0  0  0  0  0  0  0  0  0  0  0
   19.7115   28.8968   36.4777 C   0  0  2  0  0  0  0  0  0  0  0  0
   17.3246   26.2016   40.1920 N   0  0  0  0  0  0  0  0  0  0  0  0
   17.3159   27.5276   39.9144 C   0  0  2  0  0  0  0  0  0  0  0  0
   16.5856   28.3735   40.6712 N   0  0  0  0  0  0  0  0  0  0  0  0
   18.0252   28.0397   38.8865 N   0  0  0  0  0  0  0  0  0  0  0  0
   18.7765   27.2545   38.0882 C   0  0  1  0  0  0  0  0  0  0  0  0
   18.8370   25.8985   38.3134 C   0  0  1  0  0  0  0  0  0  0  0  0
   18.0517   25.3465   39.4448 C   0  0  0  0  0  0  0  0  0  0  0  0
   18.0681   24.1225   39.7019 O   0  0  0  0  0  0  0  0  0  0  0  0
   19.6459   25.3654   37.3818 N   0  0  0  0  0  0  0  0  0  0  0  0
   20.0737   26.3829   36.5993 C   0  0  0  0  0  0  0  0  0  0  0  0
   19.5349   27.5312   37.0398 N   0  0  1  0  0  0  0  0  0  0  0  0
  1  2  1  0  0  0  0
  3  1  1  6  0  0  0
  3  4  1  0  0  0  0
  3  5  1  0  0  0  0
  5  6  1  1  0  0  0
  5  7  1  0  0  0  0
  7  8  1  0  0  0  0
  8  4  1  6  0  0  0
  8 19  1  0  0  0  0
  9 15  1  0  0  0  0
  9 10  1  0  0  0  0
 10 11  1  6  0  0  0
 10 12  1  0  0  0  0
 13 12  1  6  0  0  0
 13 14  1  0  0  0  0
 13 19  1  0  0  0  0
 14 15  1  6  0  0  0
 14 17  1  0  0  0  0
 15 16  2  0  0  0  0
 17 18  1  0  0  0  0
 19 18  1  6  0  0  0
M  END
>  <CHROM.1>
47.88629676,-52.58196333,18.52196160,27.84268212,37.12329642,1.36083889,0.60007307
-0.79676924

>  <Name>
ligand

>  <RI>
0

>  <Rbt.Current_Directory>
/home/itssahil/PROJECTS/Mol_Feturizer/New_Systems/rnas/3SKL

>  <Rbt.Executable>
rbdock ($Id: //depot/dev/client3/rdock/2013.1/src/exe/rbdock.cxx#4 $)

>  <Rbt.Library>
libRbt.so (2013.1, Build901 2013/11/27)

>  <Rbt.Parameter_File>
/export/apps/rDock/src/rDock_2013.1_src/data/scripts/dock_solv.prm

>  <Rbt.Receptor>
prm/pocket_docking_2.prm

>  <SCORE>
-16.7231

>  <SCORE.INTER>
-16.9553

>  <SCORE.INTER.CONST>
1

>  <SCORE.INTER.POLAR>
0

>  <SCORE.INTER.ROT>
2

>  <SCORE.INTER.SOLV>
19.0333

>  <SCORE.INTER.VDW>
-22.5813

>  <SCORE.INTER.norm>
-0.892382

>  <SCORE.INTRA>
0.22999

>  <SCORE.INTRA.DIHEDRAL>
0.220376

>  <SCORE.INTRA.DIHEDRAL.0>
1.50031

>  <SCORE.INTRA.POLAR>
0

>  <SCORE.INTRA.POLAR.0>
0

>  <SCORE.INTRA.REPUL>
0

>  <SCORE.INTRA.REPUL.0>
0

>  <SCORE.INTRA.SOLV>
-0.451126

>  <SCORE.INTRA.SOLV.lig_0>
-37.9941

>  <SCORE.INTRA.VDW>
0.345365

>  <SCORE.INTRA.VDW.0>
-0.964461

>  <SCORE.INTRA.norm>
0.0121048

>  <SCORE.RESTR>
0.00216998

>  <SCORE.RESTR.CAVITY>
0.00216998

>  <SCORE.RESTR.norm>
0.00011421

>  <SCORE.SYSTEM>
0

>  <SCORE.SYSTEM.CONST>
0

>  <SCORE.SYSTEM.DIHEDRAL>
0

>  <SCORE.SYSTEM.SOLV>
0

>  <SCORE.SYSTEM.norm>
0

>  <SCORE.heavy>
19

>  <SCORE.norm>
-0.880163

>  <RMSD>
1.159

$$$$
ligand
 OpenBabel11021811483D
libRbt.so/2013.1/901 2013/11/27
 19 21  0  0  0  0  0  0  0  0999 V2000
   17.2662   29.2056   34.0048 C   0  0  0  0  0  0  0  0  0  0  0  0
   15.9965   29.1450   34.6777 O   0  0  0  0  0  0  0  0  0  0  0  0
   18.2780   30.0378   34.7997 C   0  0  1  0  0  0  0  0  0  0  0  0
   18.3940   29.5449   36.1342 O   0  0  0  0  0  0  0  0  0  0  0  0
   19.6636   29.9806   34.1852 C   0  0  1  0  0  0  0  0  0  0  0  0
   20.2022   31.3033   34.1647 O   0  0  0  0  0  0  0  0  0  0  0  0
   20.5071   29.1222   35.1004 C   0  0  0  0  0  0  0  0  0  0  0  0
   19.7096   29.0273   36.3884 C   0  0  2  0  0  0  0  0  0  0  0  0
   17.5544   26.0626   40.0386 N   0  0  0  0  0  0  0  0  0  0  0  0
   17.4984   27.4011   39.8366 C   0  0  2  0  0  0  0  0  0  0  0  0
   16.7780   28.1823   40.6688 N   0  0  0  0  0  0  0  0  0  0  0  0
   18.1498   27.9897   38.8113 N   0  0  0  0  0  0  0  0  0  0  0  0
   18.8877   27.2720   37.9404 C   0  0  1  0  0  0  0  0  0  0  0  0
   18.9942   25.9080   38.0862 C   0  0  1  0  0  0  0  0  0  0  0  0
   18.2722   25.2717   39.2156 C   0  0  0  0  0  0  0  0  0  0  0  0
   18.3323   24.0364   39.4025 O   0  0  0  0  0  0  0  0  0  0  0  0
   19.7772   25.4509   37.0941 N   0  0  0  0  0  0  0  0  0  0  0  0
   20.1442   26.5221   36.3535 C   0  0  0  0  0  0  0  0  0  0  0  0
   19.5937   27.6281   36.8794 N   0  0  1  0  0  0  0  0  0  0  0  0
  1  2  1  0  0  0  0
  3  1  1  6  0  0  0
  3  4  1  0  0  0  0
  3  5  1  0  0  0  0
  5  6  1  1  0  0  0
  5  7  1  0  0  0  0
  7  8  1  0  0  0  0
  8  4  1  6  0  0  0
  8 19  1  0  0  0  0
  9 15  1  0  0  0  0
  9 10  1  0  0  0  0
 10 11  1  6  0  0  0
 10 12  1  0  0  0  0
 13 12  1  6  0  0  0
 13 14  1  0  0  0  0
 13 19  1  0  0  0  0
 14 15  1  6  0  0  0
 14 17  1  0  0  0  0
 15 16  2  0  0  0  0
 17 18  1  0  0  0  0
 19 18  1  6  0  0  0
M  END
>  <CHROM.1>
54.41686838,-56.53248655,18.60783179,27.89887791,36.98607733,1.41381066,0.60040500
-0.78490790

>  <Name>
ligand

>  <RI>
0

>  <Rbt.Current_Directory>
/home/itssahil/PROJECTS/Mol_Feturizer/New_Systems/rnas/3SKL

>  <Rbt.Executable>
rbdock ($Id: //depot/dev/client3/rdock/2013.1/src/exe/rbdock.cxx#4 $)

>  <Rbt.Library>
libRbt.so (2013.1, Build901 2013/11/27)

>  <Rbt.Parameter_File>
/export/apps/rDock/src/rDock_2013.1_src/data/scripts/dock_solv.prm

>  <Rbt.Receptor>
prm/pocket_docking_3.prm

>  <SCORE>
-17.184

>  <SCORE.INTER>
-17.2024

>  <SCORE.INTER.CONST>
1

>  <SCORE.INTER.POLAR>
0

>  <SCORE.INTER.ROT>
2

>  <SCORE.INTER.SOLV>
18.4274

>  <SCORE.INTER.VDW>
-22.544

>  <SCORE.INTER.norm>
-0.905387

>  <SCORE.INTRA>
0.0183886

>  <SCORE.INTRA.DIHEDRAL>
-0.183976

>  <SCORE.INTRA.DIHEDRAL.0>
1.50031

>  <SCORE.INTRA.POLAR>
0

>  <SCORE.INTRA.POLAR.0>
0

>  <SCORE.INTRA.REPUL>
0

>  <SCORE.INTRA.REPUL.0>
0

>  <SCORE.INTRA.SOLV>
-0.488641

>  <SCORE.INTRA.SOLV.lig_0>
-37.9941

>  <SCORE.INTRA.VDW>
0.354697

>  <SCORE.INTRA.VDW.0>
-0.964461

>  <SCORE.INTRA.norm>
0.000967823

>  <SCORE.RESTR>
0

>  <SCORE.RESTR.CAVITY>
0

>  <SCORE.RESTR.norm>
0

>  <SCORE.SYSTEM>
0

>  <SCORE.SYSTEM.CONST>
0

>  <SCORE.SYSTEM.DIHEDRAL>
0

>  <SCORE.SYSTEM.SOLV>
0

>  <SCORE.SYSTEM.norm>
0

>  <SCORE.heavy>
19

>  <SCORE.norm>
-0.904419

>  <RMSD>
1.163

$$$$
ligand
 OpenBabel11021811483D
libRbt.so/2013.1/901 2013/11/27
 19 21  0  0  0  0  0  0  0  0999 V2000
   19.8327   28.7520   32.6478 C   0  0  0  0  0  0  0  0  0  0  0  0
   20.5466   29.4876   31.6389 O   0  0  0  0  0  0  0  0  0  0  0  0
   19.0852   29.6932   33.5982 C   0  0  1  0  0  0  0  0  0  0  0  0
   18.3288   28.9465   34.5509 O   0  0  0  0  0  0  0  0  0  0  0  0
   20.0366   30.5762   34.3832 C   0  0  1  0  0  0  0  0  0  0  0  0
   19.5246   31.9095   34.3744 O   0  0  0  0  0  0  0  0  0  0  0  0
   20.0329   30.0592   35.8040 C   0  0  0  0  0  0  0  0  0  0  0  0
   18.8156   29.1563   35.8860 C   0  0  2  0  0  0  0  0  0  0  0  0
   18.0441   26.2298   40.0810 N   0  0  0  0  0  0  0  0  0  0  0  0
   17.6238   27.4834   39.7853 C   0  0  2  0  0  0  0  0  0  0  0  0
   16.8625   28.1678   40.6649 N   0  0  0  0  0  0  0  0  0  0  0  0
   17.9459   28.0807   38.6185 N   0  0  0  0  0  0  0  0  0  0  0  0
   18.7023   27.4569   37.6928 C   0  0  1  0  0  0  0  0  0  0  0  0
   19.1689   26.1839   37.9266 C   0  0  1  0  0  0  0  0  0  0  0  0
   18.8068   25.5365   39.2117 C   0  0  0  0  0  0  0  0  0  0  0  0
   19.2028   24.3816   39.4836 O   0  0  0  0  0  0  0  0  0  0  0  0
   19.8848   25.8075   36.8532 N   0  0  0  0  0  0  0  0  0  0  0  0
   19.8560   26.8379   35.9767 C   0  0  0  0  0  0  0  0  0  0  0  0
   19.1297   27.8386   36.5001 N   0  0  1  0  0  0  0  0  0  0  0  0
  1  2  1  0  0  0  0
  3  1  1  6  0  0  0
  3  4  1  0  0  0  0
  3  5  1  0  0  0  0
  5  6  1  1  0  0  0
  5  7  1  0  0  0  0
  7  8  1  0  0  0  0
  8  4  1  6  0  0  0
  8 19  1  0  0  0  0
  9 15  1  0  0  0  0
  9 10  1  0  0  0  0
 10 11  1  6  0  0  0
 10 12  1  0  0  0  0
 13 12  1  6  0  0  0
 13 14  1  0  0  0  0
 13 19  1  0  0  0  0
 14 15  1  6  0  0  0
 14 17  1  0  0  0  0
 15 16  2  0  0  0  0
 17 18  1  0  0  0  0
 19 18  1  6  0  0  0
M  END
>  <CHROM.1>
177.08658685,-130.01382087,19.03834232,28.08153116,36.53048310,-1.10485075
-1.11053477,2.54230448

>  <Name>
ligand

>  <RI>
0

>  <Rbt.Current_Directory>
/home/itssahil/PROJECTS/Mol_Feturizer/New_Systems/rnas/3SKL

>  <Rbt.Executable>
rbdock ($Id: //depot/dev/client3/rdock/2013.1/src/exe/rbdock.cxx#4 $)

>  <Rbt.Library>
libRbt.so (2013.1, Build901 2013/11/27)

>  <Rbt.Parameter_File>
/export/apps/rDock/src/rDock_2013.1_src/data/scripts/dock_solv.prm

>  <Rbt.Receptor>
prm/pocket_docking_4.prm

>  <SCORE>
-16.309

>  <SCORE.INTER>
-15.7772

>  <SCORE.INTER.CONST>
1

>  <SCORE.INTER.POLAR>
0

>  <SCORE.INTER.ROT>
2

>  <SCORE.INTER.SOLV>
16.5804

>  <SCORE.INTER.VDW>
-20.9782

>  <SCORE.INTER.norm>
-0.830376

>  <SCORE.INTRA>
-0.531819

>  <SCORE.INTRA.DIHEDRAL>
-0.255531

>  <SCORE.INTRA.DIHEDRAL.0>
1.50031

>  <SCORE.INTRA.POLAR>
0

>  <SCORE.INTRA.POLAR.0>
0

>  <SCORE.INTRA.REPUL>
0

>  <SCORE.INTRA.REPUL.0>
0

>  <SCORE.INTRA.SOLV>
-0.472731

>  <SCORE.INTRA.SOLV.lig_0>
-37.9941

>  <SCORE.INTRA.VDW>
-0.167687

>  <SCORE.INTRA.VDW.0>
-0.964461

>  <SCORE.INTRA.norm>
-0.0279904

>  <SCORE.RESTR>
0

>  <SCORE.RESTR.CAVITY>
0

>  <SCORE.RESTR.norm>
0

>  <SCORE.SYSTEM>
0

>  <SCORE.SYSTEM.CONST>
0

>  <SCORE.SYSTEM.DIHEDRAL>
0

>  <SCORE.SYSTEM.SOLV>
0

>  <SCORE.SYSTEM.norm>
0

>  <SCORE.heavy>
19

>  <SCORE.norm>
-0.858367

>  <RMSD>
1.165

$$$$
ligand
 OpenBabel11021811483D
libRbt.so/2013.1/901 2013/11/27
 19 21  0  0  0  0  0  0  0  0999 V2000
   20.1790   28.9807   32.8949 C   0  0  0  0  0  0  0  0  0  0  0  0
   20.9565   27.9684   33.5577 O   0  0  0  0  0  0  0  0  0  0  0  0
   19.5369   29.9386   33.9039 C   0  0  1  0  0  0  0  0  0  0  0  0
   18.6677   29.2287   34.7858 O   0  0  0  0  0  0  0  0  0  0  0  0
   20.5754   30.6289   34.7675 C   0  0  1  0  0  0  0  0  0  0  0  0
   20.2407   32.0147   34.8536 O   0  0  0  0  0  0  0  0  0  0  0  0
   20.4708   30.0130   36.1444 C   0  0  0  0  0  0  0  0  0  0  0  0
   19.1453   29.2736   36.1398 C   0  0  2  0  0  0  0  0  0  0  0  0
   17.7412   26.1211   39.9931 N   0  0  0  0  0  0  0  0  0  0  0  0
   17.4775   27.4329   39.7804 C   0  0  2  0  0  0  0  0  0  0  0  0
   16.7225   28.1235   40.6606 N   0  0  0  0  0  0  0  0  0  0  0  0
   17.9524   28.0832   38.6972 N   0  0  0  0  0  0  0  0  0  0  0  0
   18.7125   27.4570   37.7762 C   0  0  1  0  0  0  0  0  0  0  0  0
   19.0250   26.1258   37.9290 C   0  0  1  0  0  0  0  0  0  0  0  0
   18.4959   25.4207   39.1225 C   0  0  0  0  0  0  0  0  0  0  0  0
   18.7476   24.2112   39.3185 O   0  0  0  0  0  0  0  0  0  0  0  0
   19.7824   25.7609   36.8804 N   0  0  0  0  0  0  0  0  0  0  0  0
   19.9305   26.8554   36.0988 C   0  0  0  0  0  0  0  0  0  0  0  0
   19.2715   27.8843   36.6556 N   0  0  1  0  0  0  0  0  0  0  0  0
  1  2  1  0  0  0  0
  3  1  1  6  0  0  0
  3  4  1  0  0  0  0
  3  5  1  0  0  0  0
  5  6  1  1  0  0  0
  5  7  1  0  0  0  0
  7  8  1  0  0  0  0
  8  4  1  6  0  0  0
  8 19  1  0  0  0  0
  9 15  1  0  0  0  0
  9 10  1  0  0  0  0
 10 11  1  6  0  0  0
 10 12  1  0  0  0  0
 13 12  1  6  0  0  0
 13 14  1  0  0  0  0
 13 19  1  0  0  0  0
 14 15  1  6  0  0  0
 14 17  1  0  0  0  0
 15 16  2  0  0  0  0
 17 18  1  0  0  0  0
 19 18  1  6  0  0  0
M  END
>  <CHROM.1>
-60.23993842,-126.42970092,19.16308773,28.01464535,36.77454724,-0.86048504
-1.07421675,2.84489836

>  <Name>
ligand

>  <RI>
0

>  <Rbt.Current_Directory>
/home/itssahil/PROJECTS/Mol_Feturizer/New_Systems/rnas/3SKL

>  <Rbt.Executable>
rbdock ($Id: //depot/dev/client3/rdock/2013.1/src/exe/rbdock.cxx#4 $)

>  <Rbt.Library>
libRbt.so (2013.1, Build901 2013/11/27)

>  <Rbt.Parameter_File>
/export/apps/rDock/src/rDock_2013.1_src/data/scripts/dock_solv.prm

>  <Rbt.Receptor>
prm/pocket_docking_6.prm

>  <SCORE>
-16.1663

>  <SCORE.INTER>
-15.5912

>  <SCORE.INTER.CONST>
1

>  <SCORE.INTER.POLAR>
0

>  <SCORE.INTER.ROT>
2

>  <SCORE.INTER.SOLV>
16.7086

>  <SCORE.INTER.VDW>
-20.897

>  <SCORE.INTER.norm>
-0.820591

>  <SCORE.INTRA>
-0.57503

>  <SCORE.INTRA.DIHEDRAL>
-0.289352

>  <SCORE.INTRA.DIHEDRAL.0>
1.50031

>  <SCORE.INTRA.POLAR>
0

>  <SCORE.INTRA.POLAR.0>
0

>  <SCORE.INTRA.REPUL>
0

>  <SCORE.INTRA.REPUL.0>
0

>  <SCORE.INTRA.SOLV>
0.0395655

>  <SCORE.INTRA.SOLV.lig_0>
-37.9941

>  <SCORE.INTRA.VDW>
-0.450136

>  <SCORE.INTRA.VDW.0>
-0.964461

>  <SCORE.INTRA.norm>
-0.0302647

>  <SCORE.RESTR>
0

>  <SCORE.RESTR.CAVITY>
0

>  <SCORE.RESTR.norm>
0

>  <SCORE.SYSTEM>
0

>  <SCORE.SYSTEM.CONST>
0

>  <SCORE.SYSTEM.DIHEDRAL>
0

>  <SCORE.SYSTEM.SOLV>
0

>  <SCORE.SYSTEM.norm>
0

>  <SCORE.heavy>
19

>  <SCORE.norm>
-0.850856

>  <RMSD>
1.168

$$$$
ligand
 OpenBabel11021811483D
libRbt.so/2013.1/901 2013/11/27
 19 21  0  0  0  0  0  0  0  0999 V2000
   17.4764   29.4346   33.9539 C   0  0  0  0  0  0  0  0  0  0  0  0
   16.1781   29.3643   34.5688 O   0  0  0  0  0  0  0  0  0  0  0  0
   18.4669   30.2061   34.8323 C   0  0  1  0  0  0  0  0  0  0  0  0
   18.4880   29.6690   36.1546 O   0  0  0  0  0  0  0  0  0  0  0  0
   19.8836   30.1189   34.2971 C   0  0  1  0  0  0  0  0  0  0  0  0
   20.4663   31.4218   34.3506 O   0  0  0  0  0  0  0  0  0  0  0  0
   20.6428   29.2038   35.2311 C   0  0  0  0  0  0  0  0  0  0  0  0
   19.7684   29.0979   36.4673 C   0  0  2  0  0  0  0  0  0  0  0  0
   17.3626   26.1078   39.9356 N   0  0  0  0  0  0  0  0  0  0  0  0
   17.3692   27.4535   39.7784 C   0  0  2  0  0  0  0  0  0  0  0  0
   16.6521   28.2365   40.6118 N   0  0  0  0  0  0  0  0  0  0  0  0
   18.0808   28.0476   38.7973 N   0  0  0  0  0  0  0  0  0  0  0  0
   18.8194   27.3285   37.9280 C   0  0  1  0  0  0  0  0  0  0  0  0
   18.8641   25.9571   38.0300 C   0  0  1  0  0  0  0  0  0  0  0  0
   18.0763   25.3149   39.1110 C   0  0  0  0  0  0  0  0  0  0  0  0
   18.0786   24.0726   39.2569 O   0  0  0  0  0  0  0  0  0  0  0  0
   19.6628   25.5004   37.0503 N   0  0  0  0  0  0  0  0  0  0  0  0
   20.1002   26.5791   36.3605 C   0  0  0  0  0  0  0  0  0  0  0  0
   19.5772   27.6894   36.9051 N   0  0  1  0  0  0  0  0  0  0  0  0
  1  2  1  0  0  0  0
  3  1  1  6  0  0  0
  3  4  1  0  0  0  0
  3  5  1  0  0  0  0
  5  6  1  1  0  0  0
  5  7  1  0  0  0  0
  7  8  1  0  0  0  0
  8  4  1  6  0  0  0
  8 19  1  0  0  0  0
  9 15  1  0  0  0  0
  9 10  1  0  0  0  0
 10 11  1  6  0  0  0
 10 12  1  0  0  0  0
 13 12  1  6  0  0  0
 13 14  1  0  0  0  0
 13 19  1  0  0  0  0
 14 15  1  6  0  0  0
 14 17  1  0  0  0  0
 15 16  2  0  0  0  0
 17 18  1  0  0  0  0
 19 18  1  6  0  0  0
M  END
>  <CHROM.1>
52.70196015,-57.92072156,18.61339202,27.99112591,36.97790949,1.33960408,0.60854949
-0.71268847

>  <Name>
ligand

>  <RI>
0

>  <Rbt.Current_Directory>
/home/itssahil/PROJECTS/Mol_Feturizer/New_Systems/rnas/3SKL

>  <Rbt.Executable>
rbdock ($Id: //depot/dev/client3/rdock/2013.1/src/exe/rbdock.cxx#4 $)

>  <Rbt.Library>
libRbt.so (2013.1, Build901 2013/11/27)

>  <Rbt.Parameter_File>
/export/apps/rDock/src/rDock_2013.1_src/data/scripts/dock_solv.prm

>  <Rbt.Receptor>
prm/pocket_docking_5.prm

>  <SCORE>
-17.17

>  <SCORE.INTER>
-17.2327

>  <SCORE.INTER.CONST>
1

>  <SCORE.INTER.POLAR>
0

>  <SCORE.INTER.ROT>
2

>  <SCORE.INTER.SOLV>
18.8585

>  <SCORE.INTER.VDW>
-22.708

>  <SCORE.INTER.norm>
-0.906986

>  <SCORE.INTRA>
0.0625851

>  <SCORE.INTRA.DIHEDRAL>
-0.10792

>  <SCORE.INTRA.DIHEDRAL.0>
1.50031

>  <SCORE.INTRA.POLAR>
0

>  <SCORE.INTRA.POLAR.0>
0

>  <SCORE.INTRA.REPUL>
0

>  <SCORE.INTRA.REPUL.0>
0

>  <SCORE.INTRA.SOLV>
-0.480793

>  <SCORE.INTRA.SOLV.lig_0>
-37.9941

>  <SCORE.INTRA.VDW>
0.356941

>  <SCORE.INTRA.VDW.0>
-0.964461

>  <SCORE.INTRA.norm>
0.00329395

>  <SCORE.RESTR>
0.000160104

>  <SCORE.RESTR.CAVITY>
0.000160104

>  <SCORE.RESTR.norm>
8.42651e-06

>  <SCORE.SYSTEM>
0

>  <SCORE.SYSTEM.CONST>
0

>  <SCORE.SYSTEM.DIHEDRAL>
0

>  <SCORE.SYSTEM.SOLV>
0

>  <SCORE.SYSTEM.norm>
0

>  <SCORE.heavy>
19

>  <SCORE.norm>
-0.903684

>  <RMSD>
1.198

$$$$
ligand
 OpenBabel11021811483D
libRbt.so/2013.1/901 2013/11/27
 19 21  0  0  0  0  0  0  0  0999 V2000
   19.9228   28.7621   32.7153 C   0  0  0  0  0  0  0  0  0  0  0  0
   20.6808   29.5126   31.7504 O   0  0  0  0  0  0  0  0  0  0  0  0
   19.1604   29.6898   33.6671 C   0  0  1  0  0  0  0  0  0  0  0  0
   18.3917   28.9297   34.5991 O   0  0  0  0  0  0  0  0  0  0  0  0
   20.0992   30.5637   34.4770 C   0  0  1  0  0  0  0  0  0  0  0  0
   19.5853   31.8963   34.4784 O   0  0  0  0  0  0  0  0  0  0  0  0
   20.0761   30.0282   35.8908 C   0  0  0  0  0  0  0  0  0  0  0  0
   18.8592   29.1226   35.9436 C   0  0  2  0  0  0  0  0  0  0  0  0
   18.1036   26.1737   40.1259 N   0  0  0  0  0  0  0  0  0  0  0  0
   17.6928   27.4336   39.8438 C   0  0  2  0  0  0  0  0  0  0  0  0
   16.9480   28.1192   40.7365 N   0  0  0  0  0  0  0  0  0  0  0  0
   18.0083   28.0360   38.6778 N   0  0  0  0  0  0  0  0  0  0  0  0
   18.7483   27.4115   37.7394 C   0  0  1  0  0  0  0  0  0  0  0  0
   19.2044   26.1321   37.9591 C   0  0  1  0  0  0  0  0  0  0  0  0
   18.8498   25.4791   39.2434 C   0  0  0  0  0  0  0  0  0  0  0  0
   19.2370   24.3184   39.5027 O   0  0  0  0  0  0  0  0  0  0  0  0
   19.9048   25.7563   36.8753 N   0  0  0  0  0  0  0  0  0  0  0  0
   19.8769   26.7933   36.0065 C   0  0  0  0  0  0  0  0  0  0  0  0
   19.1666   27.7974   36.5449 N   0  0  1  0  0  0  0  0  0  0  0  0
  1  2  1  0  0  0  0
  3  1  1  6  0  0  0
  3  4  1  0  0  0  0
  3  5  1  0  0  0  0
  5  6  1  1  0  0  0
  5  7  1  0  0  0  0
  7  8  1  0  0  0  0
  8  4  1  6  0  0  0
  8 19  1  0  0  0  0
  9 15  1  0  0  0  0
  9 10  1  0  0  0  0
 10 11  1  6  0  0  0
 10 12  1  0  0  0  0
 13 12  1  6  0  0  0
 13 14  1  0  0  0  0
 13 19  1  0  0  0  0
 14 15  1  6  0  0  0
 14 17  1  0  0  0  0
 15 16  2  0  0  0  0
 17 18  1  0  0  0  0
 19 18  1  6  0  0  0
M  END
>  <CHROM.1>
178.76390612,-131.63169282,19.09646975,28.04935494,36.58924146,-1.08976820
-1.11489012,2.56687308

>  <Name>
ligand

>  <RI>
0

>  <Rbt.Current_Directory>
/home/itssahil/PROJECTS/Mol_Feturizer/New_Systems/rnas/3SKL

>  <Rbt.Executable>
rbdock ($Id: //depot/dev/client3/rdock/2013.1/src/exe/rbdock.cxx#4 $)

>  <Rbt.Library>
libRbt.so (2013.1, Build901 2013/11/27)

>  <Rbt.Parameter_File>
/export/apps/rDock/src/rDock_2013.1_src/data/scripts/dock_solv.prm

>  <Rbt.Receptor>
prm/pocket_docking_3.prm

>  <SCORE>
-16.3332

>  <SCORE.INTER>
-15.8011

>  <SCORE.INTER.CONST>
1

>  <SCORE.INTER.POLAR>
0

>  <SCORE.INTER.ROT>
2

>  <SCORE.INTER.SOLV>
16.3893

>  <SCORE.INTER.VDW>
-20.9305

>  <SCORE.INTER.norm>
-0.831639

>  <SCORE.INTRA>
-0.532015

>  <SCORE.INTRA.DIHEDRAL>
-0.278377

>  <SCORE.INTRA.DIHEDRAL.0>
1.50031

>  <SCORE.INTRA.POLAR>
0

>  <SCORE.INTRA.POLAR.0>
0

>  <SCORE.INTRA.REPUL>
0

>  <SCORE.INTRA.REPUL.0>
0

>  <SCORE.INTRA.SOLV>
-0.464643

>  <SCORE.INTRA.SOLV.lig_0>
-37.9941

>  <SCORE.INTRA.VDW>
-0.160505

>  <SCORE.INTRA.VDW.0>
-0.964461

>  <SCORE.INTRA.norm>
-0.0280008

>  <SCORE.RESTR>
0

>  <SCORE.RESTR.CAVITY>
0

>  <SCORE.RESTR.norm>
0

>  <SCORE.SYSTEM>
0

>  <SCORE.SYSTEM.CONST>
0

>  <SCORE.SYSTEM.DIHEDRAL>
0

>  <SCORE.SYSTEM.SOLV>
0

>  <SCORE.SYSTEM.norm>
0

>  <SCORE.heavy>
19

>  <SCORE.norm>
-0.85964

>  <RMSD>
1.200

$$$$
ligand
 OpenBabel11021811483D
libRbt.so/2013.1/901 2013/11/27
 19 21  0  0  0  0  0  0  0  0999 V2000
   17.4753   29.4408   33.9641 C   0  0  0  0  0  0  0  0  0  0  0  0
   16.1789   29.3390   34.5786 O   0  0  0  0  0  0  0  0  0  0  0  0
   18.4536   30.2148   34.8540 C   0  0  1  0  0  0  0  0  0  0  0  0
   18.4725   29.6675   36.1721 O   0  0  0  0  0  0  0  0  0  0  0  0
   19.8739   30.1455   34.3260 C   0  0  1  0  0  0  0  0  0  0  0  0
   20.4437   31.4534   34.3930 O   0  0  0  0  0  0  0  0  0  0  0  0
   20.6367   29.2304   35.2570 C   0  0  0  0  0  0  0  0  0  0  0  0
   19.7567   29.1063   36.4874 C   0  0  2  0  0  0  0  0  0  0  0  0
   17.4578   26.0761   39.9933 N   0  0  0  0  0  0  0  0  0  0  0  0
   17.4622   27.4237   39.8531 C   0  0  2  0  0  0  0  0  0  0  0  0
   16.7742   28.1971   40.7193 N   0  0  0  0  0  0  0  0  0  0  0  0
   18.1431   28.0291   38.8572 N   0  0  0  0  0  0  0  0  0  0  0  0
   18.8516   27.3200   37.9554 C   0  0  1  0  0  0  0  0  0  0  0  0
   18.8966   25.9473   38.0383 C   0  0  1  0  0  0  0  0  0  0  0  0
   18.1428   25.2926   39.1359 C   0  0  0  0  0  0  0  0  0  0  0  0
   18.1472   24.0486   39.2657 O   0  0  0  0  0  0  0  0  0  0  0  0
   19.6623   25.5018   37.0275 N   0  0  0  0  0  0  0  0  0  0  0  0
   20.0794   26.5886   36.3377 C   0  0  0  0  0  0  0  0  0  0  0  0
   19.5767   27.6927   36.9132 N   0  0  1  0  0  0  0  0  0  0  0  0
  1  2  1  0  0  0  0
  3  1  1  6  0  0  0
  3  4  1  0  0  0  0
  3  5  1  0  0  0  0
  5  6  1  1  0  0  0
  5  7  1  0  0  0  0
  7  8  1  0  0  0  0
  8  4  1  6  0  0  0
  8 19  1  0  0  0  0
  9 15  1  0  0  0  0
  9 10  1  0  0  0  0
 10 11  1  6  0  0  0
 10 12  1  0  0  0  0
 13 12  1  6  0  0  0
 13 14  1  0  0  0  0
 13 19  1  0  0  0  0
 14 15  1  6  0  0  0
 14 17  1  0  0  0  0
 15 16  2  0  0  0  0
 17 18  1  0  0  0  0
 19 18  1  6  0  0  0
M  END
>  <CHROM.1>
51.99243876,-60.20675624,18.63749669,27.98653962,37.00463917,1.35297124,0.64331920
-0.71366318

>  <Name>
ligand

>  <RI>
0

>  <Rbt.Current_Directory>
/home/itssahil/PROJECTS/Mol_Feturizer/New_Systems/rnas/3SKL

>  <Rbt.Executable>
rbdock ($Id: //depot/dev/client3/rdock/2013.1/src/exe/rbdock.cxx#4 $)

>  <Rbt.Library>
libRbt.so (2013.1, Build901 2013/11/27)

>  <Rbt.Parameter_File>
/export/apps/rDock/src/rDock_2013.1_src/data/scripts/dock_solv.prm

>  <Rbt.Receptor>
prm/pocket_docking_5.prm

>  <SCORE>
-17.142

>  <SCORE.INTER>
-17.2219

>  <SCORE.INTER.CONST>
1

>  <SCORE.INTER.POLAR>
0

>  <SCORE.INTER.ROT>
2

>  <SCORE.INTER.SOLV>
18.5628

>  <SCORE.INTER.VDW>
-22.6022

>  <SCORE.INTER.norm>
-0.906415

>  <SCORE.INTRA>
0.0798562

>  <SCORE.INTRA.DIHEDRAL>
-0.0728758

>  <SCORE.INTRA.DIHEDRAL.0>
1.50031

>  <SCORE.INTRA.POLAR>
0

>  <SCORE.INTRA.POLAR.0>
0

>  <SCORE.INTRA.REPUL>
0

>  <SCORE.INTRA.REPUL.0>
0

>  <SCORE.INTRA.SOLV>
-0.478876

>  <SCORE.INTRA.SOLV.lig_0>
-37.9941

>  <SCORE.INTRA.VDW>
0.355732

>  <SCORE.INTRA.VDW.0>
-0.964461

>  <SCORE.INTRA.norm>
0.00420296

>  <SCORE.RESTR>
0

>  <SCORE.RESTR.CAVITY>
0

>  <SCORE.RESTR.norm>
0

>  <SCORE.SYSTEM>
0

>  <SCORE.SYSTEM.CONST>
0

>  <SCORE.SYSTEM.DIHEDRAL>
0

>  <SCORE.SYSTEM.SOLV>
0

>  <SCORE.SYSTEM.norm>
0

>  <SCORE.heavy>
19

>  <SCORE.norm>
-0.902212

>  <RMSD>
1.204

$$$$
ligand
 OpenBabel11021811483D
libRbt.so/2013.1/901 2013/11/27
 19 21  0  0  0  0  0  0  0  0999 V2000
   17.5018   29.4796   33.9498 C   0  0  0  0  0  0  0  0  0  0  0  0
   16.2492   29.2722   34.6255 O   0  0  0  0  0  0  0  0  0  0  0  0
   18.4935   30.2393   34.8372 C   0  0  1  0  0  0  0  0  0  0  0  0
   18.5364   29.6673   36.1443 O   0  0  0  0  0  0  0  0  0  0  0  0
   19.9046   30.1836   34.2837 C   0  0  1  0  0  0  0  0  0  0  0  0
   20.4725   31.4915   34.3655 O   0  0  0  0  0  0  0  0  0  0  0  0
   20.6855   29.2531   35.1840 C   0  0  0  0  0  0  0  0  0  0  0  0
   19.8271   29.1036   36.4268 C   0  0  2  0  0  0  0  0  0  0  0  0
   17.5243   25.9957   39.8613 N   0  0  0  0  0  0  0  0  0  0  0  0
   17.5159   27.3453   39.7420 C   0  0  2  0  0  0  0  0  0  0  0  0
   16.8108   28.0980   40.6126 N   0  0  0  0  0  0  0  0  0  0  0  0
   18.2005   27.9731   38.7627 N   0  0  0  0  0  0  0  0  0  0  0  0
   18.9258   27.2854   37.8576 C   0  0  1  0  0  0  0  0  0  0  0  0
   18.9845   25.9122   37.9199 C   0  0  1  0  0  0  0  0  0  0  0  0
   18.2263   25.2328   38.9993 C   0  0  0  0  0  0  0  0  0  0  0  0
   18.2425   23.9870   39.1100 O   0  0  0  0  0  0  0  0  0  0  0  0
   19.7652   25.4904   36.9104 N   0  0  0  0  0  0  0  0  0  0  0  0
   20.1779   26.5920   36.2419 C   0  0  0  0  0  0  0  0  0  0  0  0
   19.6576   27.6818   36.8289 N   0  0  1  0  0  0  0  0  0  0  0  0
  1  2  1  0  0  0  0
  3  1  1  6  0  0  0
  3  4  1  0  0  0  0
  3  5  1  0  0  0  0
  5  6  1  1  0  0  0
  5  7  1  0  0  0  0
  7  8  1  0  0  0  0
  8  4  1  6  0  0  0
  8 19  1  0  0  0  0
  9 15  1  0  0  0  0
  9 10  1  0  0  0  0
 10 11  1  6  0  0  0
 10 12  1  0  0  0  0
 13 12  1  6  0  0  0
 13 14  1  0  0  0  0
 13 19  1  0  0  0  0
 14 15  1  6  0  0  0
 14 17  1  0  0  0  0
 15 16  2  0  0  0  0
 17 18  1  0  0  0  0
 19 18  1  6  0  0  0
M  END
>  <CHROM.1>
47.51448147,-58.54632834,18.70112965,27.96404327,36.92953630,1.35576074,0.63221372
-0.69426223

>  <Name>
ligand

>  <RI>
0

>  <Rbt.Current_Directory>
/home/itssahil/PROJECTS/Mol_Feturizer/New_Systems/rnas/3SKL

>  <Rbt.Executable>
rbdock ($Id: //depot/dev/client3/rdock/2013.1/src/exe/rbdock.cxx#4 $)

>  <Rbt.Library>
libRbt.so (2013.1, Build901 2013/11/27)

>  <Rbt.Parameter_File>
/export/apps/rDock/src/rDock_2013.1_src/data/scripts/dock_solv.prm

>  <Rbt.Receptor>
prm/pocket_docking_3.prm

>  <SCORE>
-17.2474

>  <SCORE.INTER>
-17.5125

>  <SCORE.INTER.CONST>
1

>  <SCORE.INTER.POLAR>
0

>  <SCORE.INTER.ROT>
2

>  <SCORE.INTER.SOLV>
18.4145

>  <SCORE.INTER.VDW>
-22.7465

>  <SCORE.INTER.norm>
-0.921713

>  <SCORE.INTRA>
0.26284

>  <SCORE.INTRA.DIHEDRAL>
0.243537

>  <SCORE.INTRA.DIHEDRAL.0>
1.50031

>  <SCORE.INTRA.POLAR>
0

>  <SCORE.INTRA.POLAR.0>
0

>  <SCORE.INTRA.REPUL>
0

>  <SCORE.INTRA.REPUL.0>
0

>  <SCORE.INTRA.SOLV>
-0.453765

>  <SCORE.INTRA.SOLV.lig_0>
-37.9941

>  <SCORE.INTRA.VDW>
0.367954

>  <SCORE.INTRA.VDW.0>
-0.964461

>  <SCORE.INTRA.norm>
0.0138337

>  <SCORE.RESTR>
0.00228797

>  <SCORE.RESTR.CAVITY>
0.00228797

>  <SCORE.RESTR.norm>
0.000120419

>  <SCORE.SYSTEM>
0

>  <SCORE.SYSTEM.CONST>
0

>  <SCORE.SYSTEM.DIHEDRAL>
0

>  <SCORE.SYSTEM.SOLV>
0

>  <SCORE.SYSTEM.norm>
0

>  <SCORE.heavy>
19

>  <SCORE.norm>
-0.907759

>  <RMSD>
1.222

$$$$
ligand
 OpenBabel11021811483D
libRbt.so/2013.1/901 2013/11/27
 19 21  0  0  0  0  0  0  0  0999 V2000
   17.5086   29.4761   33.9453 C   0  0  0  0  0  0  0  0  0  0  0  0
   16.2502   29.2769   34.6128 O   0  0  0  0  0  0  0  0  0  0  0  0
   18.4955   30.2394   34.8348 C   0  0  1  0  0  0  0  0  0  0  0  0
   18.5367   29.6685   36.1424 O   0  0  0  0  0  0  0  0  0  0  0  0
   19.9083   30.1877   34.2851 C   0  0  1  0  0  0  0  0  0  0  0  0
   20.4719   31.4975   34.3675 O   0  0  0  0  0  0  0  0  0  0  0  0
   20.6896   29.2604   35.1882 C   0  0  0  0  0  0  0  0  0  0  0  0
   19.8283   29.1090   36.4288 C   0  0  2  0  0  0  0  0  0  0  0  0
   17.5253   25.9963   39.8588 N   0  0  0  0  0  0  0  0  0  0  0  0
   17.5130   27.3457   39.7384 C   0  0  2  0  0  0  0  0  0  0  0  0
   16.8029   28.0968   40.6064 N   0  0  0  0  0  0  0  0  0  0  0  0
   18.1985   27.9750   38.7607 N   0  0  0  0  0  0  0  0  0  0  0  0
   18.9286   27.2890   37.8582 C   0  0  1  0  0  0  0  0  0  0  0  0
   18.9915   25.9160   37.9216 C   0  0  1  0  0  0  0  0  0  0  0  0
   18.2323   25.2350   38.9993 C   0  0  0  0  0  0  0  0  0  0  0  0
   18.2521   23.9893   39.1110 O   0  0  0  0  0  0  0  0  0  0  0  0
   19.7765   25.4960   36.9148 N   0  0  0  0  0  0  0  0  0  0  0  0
   20.1877   26.5984   36.2467 C   0  0  0  0  0  0  0  0  0  0  0  0
   19.6622   27.6869   36.8313 N   0  0  1  0  0  0  0  0  0  0  0  0
  1  2  1  0  0  0  0
  3  1  1  6  0  0  0
  3  4  1  0  0  0  0
  3  5  1  0  0  0  0
  5  6  1  1  0  0  0
  5  7  1  0  0  0  0
  7  8  1  0  0  0  0
  8  4  1  6  0  0  0
  8 19  1  0  0  0  0
  9 15  1  0  0  0  0
  9 10  1  0  0  0  0
 10 11  1  6  0  0  0
 10 12  1  0  0  0  0
 13 12  1  6  0  0  0
 13 14  1  0  0  0  0
 13 19  1  0  0  0  0
 14 15  1  6  0  0  0
 14 17  1  0  0  0  0
 15 16  2  0  0  0  0
 17 18  1  0  0  0  0
 19 18  1  6  0  0  0
M  END
>  <CHROM.1>
48.08809817,-58.53090458,18.70412327,27.96700830,36.92879955,1.35729707,0.62655341
-0.69601584

>  <Name>
ligand

>  <RI>
0

>  <Rbt.Current_Directory>
/home/itssahil/PROJECTS/Mol_Feturizer/New_Systems/rnas/3SKL

>  <Rbt.Executable>
rbdock ($Id: //depot/dev/client3/rdock/2013.1/src/exe/rbdock.cxx#4 $)

>  <Rbt.Library>
libRbt.so (2013.1, Build901 2013/11/27)

>  <Rbt.Parameter_File>
/export/apps/rDock/src/rDock_2013.1_src/data/scripts/dock_solv.prm

>  <Rbt.Receptor>
prm/pocket_docking_3.prm

>  <SCORE>
-17.252

>  <SCORE.INTER>
-17.4954

>  <SCORE.INTER.CONST>
1

>  <SCORE.INTER.POLAR>
0

>  <SCORE.INTER.ROT>
2

>  <SCORE.INTER.SOLV>
18.4294

>  <SCORE.INTER.VDW>
-22.74

>  <SCORE.INTER.norm>
-0.920808

>  <SCORE.INTRA>
0.236252

>  <SCORE.INTRA.DIHEDRAL>
0.196466

>  <SCORE.INTRA.DIHEDRAL.0>
1.50031

>  <SCORE.INTRA.POLAR>
0

>  <SCORE.INTRA.POLAR.0>
0

>  <SCORE.INTRA.REPUL>
0

>  <SCORE.INTRA.REPUL.0>
0

>  <SCORE.INTRA.SOLV>
-0.456829

>  <SCORE.INTRA.SOLV.lig_0>
-37.9941

>  <SCORE.INTRA.VDW>
0.366434

>  <SCORE.INTRA.VDW.0>
-0.964461

>  <SCORE.INTRA.norm>
0.0124343

>  <SCORE.RESTR>
0.00712582

>  <SCORE.RESTR.CAVITY>
0.00712582

>  <SCORE.RESTR.norm>
0.000375043

>  <SCORE.SYSTEM>
0

>  <SCORE.SYSTEM.CONST>
0

>  <SCORE.SYSTEM.DIHEDRAL>
0

>  <SCORE.SYSTEM.SOLV>
0

>  <SCORE.SYSTEM.norm>
0

>  <SCORE.heavy>
19

>  <SCORE.norm>
-0.907999

>  <RMSD>
1.222

$$$$
ligand
 OpenBabel11021811483D
libRbt.so/2013.1/901 2013/11/27
 19 21  0  0  0  0  0  0  0  0999 V2000
   19.9626   28.7879   32.8290 C   0  0  0  0  0  0  0  0  0  0  0  0
   20.6948   29.5222   31.8323 O   0  0  0  0  0  0  0  0  0  0  0  0
   19.2783   29.7311   33.8240 C   0  0  1  0  0  0  0  0  0  0  0  0
   18.4932   28.9904   34.7580 O   0  0  0  0  0  0  0  0  0  0  0  0
   20.2852   30.5307   34.6288 C   0  0  1  0  0  0  0  0  0  0  0  0
   19.8466   31.8890   34.6770 O   0  0  0  0  0  0  0  0  0  0  0  0
   20.2695   29.9607   36.0291 C   0  0  0  0  0  0  0  0  0  0  0  0
   19.0058   29.1224   36.0934 C   0  0  2  0  0  0  0  0  0  0  0  0
   18.0657   26.0603   40.1551 N   0  0  0  0  0  0  0  0  0  0  0  0
   17.7051   27.3430   39.9100 C   0  0  2  0  0  0  0  0  0  0  0  0
   16.9676   28.0238   40.8124 N   0  0  0  0  0  0  0  0  0  0  0  0
   18.0642   27.9735   38.7718 N   0  0  0  0  0  0  0  0  0  0  0  0
   18.7999   27.3555   37.8258 C   0  0  1  0  0  0  0  0  0  0  0  0
   19.2064   26.0538   38.0087 C   0  0  1  0  0  0  0  0  0  0  0  0
   18.8040   25.3702   39.2626 C   0  0  0  0  0  0  0  0  0  0  0  0
   19.1450   24.1880   39.4880 O   0  0  0  0  0  0  0  0  0  0  0  0
   19.9141   25.6907   36.9253 N   0  0  0  0  0  0  0  0  0  0  0  0
   19.9396   26.7573   36.0930 C   0  0  0  0  0  0  0  0  0  0  0  0
   19.2547   27.7671   36.6533 N   0  0  1  0  0  0  0  0  0  0  0  0
  1  2  1  0  0  0  0
  3  1  1  6  0  0  0
  3  4  1  0  0  0  0
  3  5  1  0  0  0  0
  5  6  1  1  0  0  0
  5  7  1  0  0  0  0
  7  8  1  0  0  0  0
  8  4  1  6  0  0  0
  8 19  1  0  0  0  0
  9 15  1  0  0  0  0
  9 10  1  0  0  0  0
 10 11  1  6  0  0  0
 10 12  1  0  0  0  0
 13 12  1  6  0  0  0
 13 14  1  0  0  0  0
 13 19  1  0  0  0  0
 14 15  1  6  0  0  0
 14 17  1  0  0  0  0
 15 16  2  0  0  0  0
 17 18  1  0  0  0  0
 19 18  1  6  0  0  0
M  END
>  <CHROM.1>
176.60176598,-128.71802989,19.15994438,28.00670088,36.68497652,-1.01313108
-1.13410263,2.66446087

>  <Name>
ligand

>  <RI>
0

>  <Rbt.Current_Directory>
/home/itssahil/PROJECTS/Mol_Feturizer/New_Systems/rnas/3SKL

>  <Rbt.Executable>
rbdock ($Id: //depot/dev/client3/rdock/2013.1/src/exe/rbdock.cxx#4 $)

>  <Rbt.Library>
libRbt.so (2013.1, Build901 2013/11/27)

>  <Rbt.Parameter_File>
/export/apps/rDock/src/rDock_2013.1_src/data/scripts/dock_solv.prm

>  <Rbt.Receptor>
prm/blind_docking_60.prm

>  <SCORE>
-16.2881

>  <SCORE.INTER>
-15.7601

>  <SCORE.INTER.CONST>
1

>  <SCORE.INTER.POLAR>
0

>  <SCORE.INTER.ROT>
2

>  <SCORE.INTER.SOLV>
16.1047

>  <SCORE.INTER.VDW>
-20.8083

>  <SCORE.INTER.norm>
-0.829481

>  <SCORE.INTRA>
-0.527982

>  <SCORE.INTRA.DIHEDRAL>
-0.246137

>  <SCORE.INTRA.DIHEDRAL.0>
1.50031

>  <SCORE.INTRA.POLAR>
0

>  <SCORE.INTRA.POLAR.0>
0

>  <SCORE.INTRA.REPUL>
0

>  <SCORE.INTRA.REPUL.0>
0

>  <SCORE.INTRA.SOLV>
-0.47506

>  <SCORE.INTRA.SOLV.lig_0>
-37.9941

>  <SCORE.INTRA.VDW>
-0.167384

>  <SCORE.INTRA.VDW.0>
-0.964461

>  <SCORE.INTRA.norm>
-0.0277885

>  <SCORE.RESTR>
0

>  <SCORE.RESTR.CAVITY>
0

>  <SCORE.RESTR.norm>
0

>  <SCORE.SYSTEM>
0

>  <SCORE.SYSTEM.CONST>
0

>  <SCORE.SYSTEM.DIHEDRAL>
0

>  <SCORE.SYSTEM.SOLV>
0

>  <SCORE.SYSTEM.norm>
0

>  <SCORE.heavy>
19

>  <SCORE.norm>
-0.857269

>  <RMSD>
1.230

$$$$
ligand
 OpenBabel11021811483D
libRbt.so/2013.1/901 2013/11/27
 19 21  0  0  0  0  0  0  0  0999 V2000
   17.5000   29.4896   33.9430 C   0  0  0  0  0  0  0  0  0  0  0  0
   16.2263   29.3490   34.5962 O   0  0  0  0  0  0  0  0  0  0  0  0
   18.4969   30.2483   34.8252 C   0  0  1  0  0  0  0  0  0  0  0  0
   18.5470   29.6756   36.1317 O   0  0  0  0  0  0  0  0  0  0  0  0
   19.9049   30.1923   34.2637 C   0  0  1  0  0  0  0  0  0  0  0  0
   20.4739   31.5000   34.3431 O   0  0  0  0  0  0  0  0  0  0  0  0
   20.6905   29.2611   35.1591 C   0  0  0  0  0  0  0  0  0  0  0  0
   19.8390   29.1112   36.4066 C   0  0  2  0  0  0  0  0  0  0  0  0
   17.5796   26.0045   39.8709 N   0  0  0  0  0  0  0  0  0  0  0  0
   17.5736   27.3543   39.7540 C   0  0  2  0  0  0  0  0  0  0  0  0
   16.8845   28.1077   40.6367 N   0  0  0  0  0  0  0  0  0  0  0  0
   18.2451   27.9816   38.7654 N   0  0  0  0  0  0  0  0  0  0  0  0
   18.9541   27.2933   37.8479 C   0  0  1  0  0  0  0  0  0  0  0  0
   19.0094   25.9198   37.9070 C   0  0  1  0  0  0  0  0  0  0  0  0
   18.2658   25.2409   38.9968 C   0  0  0  0  0  0  0  0  0  0  0  0
   18.2797   23.9948   39.1051 O   0  0  0  0  0  0  0  0  0  0  0  0
   19.7730   25.4973   36.8849 N   0  0  0  0  0  0  0  0  0  0  0  0
   20.1789   26.5988   36.2119 C   0  0  0  0  0  0  0  0  0  0  0  0
   19.6712   27.6891   36.8088 N   0  0  1  0  0  0  0  0  0  0  0  0
  1  2  1  0  0  0  0
  3  1  1  6  0  0  0
  3  4  1  0  0  0  0
  3  5  1  0  0  0  0
  5  6  1  1  0  0  0
  5  7  1  0  0  0  0
  7  8  1  0  0  0  0
  8  4  1  6  0  0  0
  8 19  1  0  0  0  0
  9 15  1  0  0  0  0
  9 10  1  0  0  0  0
 10 11  1  6  0  0  0
 10 12  1  0  0  0  0
 13 12  1  6  0  0  0
 13 14  1  0  0  0  0
 13 19  1  0  0  0  0
 14 15  1  6  0  0  0
 14 17  1  0  0  0  0
 15 16  2  0  0  0  0
 17 18  1  0  0  0  0
 19 18  1  6  0  0  0
M  END
>  <CHROM.1>
50.80691613,-59.13282142,18.72111446,27.97650885,36.91850243,1.36699525,0.64078404
-0.70166777

>  <Name>
ligand

>  <RI>
0

>  <Rbt.Current_Directory>
/home/itssahil/PROJECTS/Mol_Feturizer/New_Systems/rnas/3SKL

>  <Rbt.Executable>
rbdock ($Id: //depot/dev/client3/rdock/2013.1/src/exe/rbdock.cxx#4 $)

>  <Rbt.Library>
libRbt.so (2013.1, Build901 2013/11/27)

>  <Rbt.Parameter_File>
/export/apps/rDock/src/rDock_2013.1_src/data/scripts/dock_solv.prm

>  <Rbt.Receptor>
prm/pocket_docking_4.prm

>  <SCORE>
-17.3218

>  <SCORE.INTER>
-17.4451

>  <SCORE.INTER.CONST>
1

>  <SCORE.INTER.POLAR>
0

>  <SCORE.INTER.ROT>
2

>  <SCORE.INTER.SOLV>
18.1376

>  <SCORE.INTER.VDW>
-22.6093

>  <SCORE.INTER.norm>
-0.918164

>  <SCORE.INTRA>
0.123349

>  <SCORE.INTRA.DIHEDRAL>
-0.000540382

>  <SCORE.INTRA.DIHEDRAL.0>
1.50031

>  <SCORE.INTRA.POLAR>
0

>  <SCORE.INTRA.POLAR.0>
0

>  <SCORE.INTRA.REPUL>
0

>  <SCORE.INTRA.REPUL.0>
0

>  <SCORE.INTRA.SOLV>
-0.471776

>  <SCORE.INTRA.SOLV.lig_0>
-37.9941

>  <SCORE.INTRA.VDW>
0.359507

>  <SCORE.INTRA.VDW.0>
-0.964461

>  <SCORE.INTRA.norm>
0.00649208

>  <SCORE.RESTR>
0

>  <SCORE.RESTR.CAVITY>
0

>  <SCORE.RESTR.norm>
0

>  <SCORE.SYSTEM>
0

>  <SCORE.SYSTEM.CONST>
0

>  <SCORE.SYSTEM.DIHEDRAL>
0

>  <SCORE.SYSTEM.SOLV>
0

>  <SCORE.SYSTEM.norm>
0

>  <SCORE.heavy>
19

>  <SCORE.norm>
-0.911672

>  <RMSD>
1.230

$$$$
ligand
 OpenBabel11021811483D
libRbt.so/2013.1/901 2013/11/27
 19 21  0  0  0  0  0  0  0  0999 V2000
   17.5008   29.4754   33.9426 C   0  0  0  0  0  0  0  0  0  0  0  0
   16.2066   29.3765   34.5623 O   0  0  0  0  0  0  0  0  0  0  0  0
   18.4869   30.2392   34.8326 C   0  0  1  0  0  0  0  0  0  0  0  0
   18.5286   29.6675   36.1398 O   0  0  0  0  0  0  0  0  0  0  0  0
   19.8998   30.1891   34.2829 C   0  0  1  0  0  0  0  0  0  0  0  0
   20.4622   31.4993   34.3661 O   0  0  0  0  0  0  0  0  0  0  0  0
   20.6820   29.2620   35.1855 C   0  0  0  0  0  0  0  0  0  0  0  0
   19.8208   29.1091   36.4259 C   0  0  2  0  0  0  0  0  0  0  0  0
   17.5322   25.9933   39.8628 N   0  0  0  0  0  0  0  0  0  0  0  0
   17.5198   27.3428   39.7441 C   0  0  2  0  0  0  0  0  0  0  0  0
   16.8140   28.0932   40.6162 N   0  0  0  0  0  0  0  0  0  0  0  0
   18.2011   27.9730   38.7640 N   0  0  0  0  0  0  0  0  0  0  0  0
   18.9269   27.2877   37.8574 C   0  0  1  0  0  0  0  0  0  0  0  0
   18.9896   25.9147   37.9190 C   0  0  1  0  0  0  0  0  0  0  0  0
   18.2351   25.2327   38.9993 C   0  0  0  0  0  0  0  0  0  0  0  0
   18.2550   23.9869   39.1095 O   0  0  0  0  0  0  0  0  0  0  0  0
   19.7699   25.4955   36.9081 N   0  0  0  0  0  0  0  0  0  0  0  0
   20.1784   26.5985   36.2394 C   0  0  0  0  0  0  0  0  0  0  0  0
   19.6560   27.6866   36.8277 N   0  0  1  0  0  0  0  0  0  0  0  0
  1  2  1  0  0  0  0
  3  1  1  6  0  0  0
  3  4  1  0  0  0  0
  3  5  1  0  0  0  0
  5  6  1  1  0  0  0
  5  7  1  0  0  0  0
  7  8  1  0  0  0  0
  8  4  1  6  0  0  0
  8 19  1  0  0  0  0
  9 15  1  0  0  0  0
  9 10  1  0  0  0  0
 10 11  1  6  0  0  0
 10 12  1  0  0  0  0
 13 12  1  6  0  0  0
 13 14  1  0  0  0  0
 13 19  1  0  0  0  0
 14 15  1  6  0  0  0
 14 17  1  0  0  0  0
 15 16  2  0  0  0  0
 17 18  1  0  0  0  0
 19 18  1  6  0  0  0
M  END
>  <CHROM.1>
53.13676618,-58.80564036,18.69873996,27.97225089,36.92485694,1.36612807,0.62049197
-0.70211822

>  <Name>
ligand

>  <RI>
0

>  <Rbt.Current_Directory>
/home/itssahil/PROJECTS/Mol_Feturizer/New_Systems/rnas/3SKL

>  <Rbt.Executable>
rbdock ($Id: //depot/dev/client3/rdock/2013.1/src/exe/rbdock.cxx#4 $)

>  <Rbt.Library>
libRbt.so (2013.1, Build901 2013/11/27)

>  <Rbt.Parameter_File>
/export/apps/rDock/src/rDock_2013.1_src/data/scripts/dock_solv.prm

>  <Rbt.Receptor>
prm/blind_docking_100.prm

>  <SCORE>
-17.3427

>  <SCORE.INTER>
-17.3911

>  <SCORE.INTER.CONST>
1

>  <SCORE.INTER.POLAR>
0

>  <SCORE.INTER.ROT>
2

>  <SCORE.INTER.SOLV>
18.4092

>  <SCORE.INTER.VDW>
-22.6638

>  <SCORE.INTER.norm>
-0.915319

>  <SCORE.INTRA>
0.0483115

>  <SCORE.INTRA.DIHEDRAL>
-0.130707

>  <SCORE.INTRA.DIHEDRAL.0>
1.50031

>  <SCORE.INTRA.POLAR>
0

>  <SCORE.INTRA.POLAR.0>
0

>  <SCORE.INTRA.REPUL>
0

>  <SCORE.INTRA.REPUL.0>
0

>  <SCORE.INTRA.SOLV>
-0.48376

>  <SCORE.INTRA.SOLV.lig_0>
-37.9941

>  <SCORE.INTRA.VDW>
0.355545

>  <SCORE.INTRA.VDW.0>
-0.964461

>  <SCORE.INTRA.norm>
0.00254271

>  <SCORE.RESTR>
0

>  <SCORE.RESTR.CAVITY>
0

>  <SCORE.RESTR.norm>
0

>  <SCORE.SYSTEM>
0

>  <SCORE.SYSTEM.CONST>
0

>  <SCORE.SYSTEM.DIHEDRAL>
0

>  <SCORE.SYSTEM.SOLV>
0

>  <SCORE.SYSTEM.norm>
0

>  <SCORE.heavy>
19

>  <SCORE.norm>
-0.912776

>  <RMSD>
1.232

$$$$
ligand
 OpenBabel11021811483D
libRbt.so/2013.1/901 2013/11/27
 19 21  0  0  0  0  0  0  0  0999 V2000
   17.4838   29.4860   33.9427 C   0  0  0  0  0  0  0  0  0  0  0  0
   16.1851   29.3877   34.5528 O   0  0  0  0  0  0  0  0  0  0  0  0
   18.4614   30.2565   34.8363 C   0  0  1  0  0  0  0  0  0  0  0  0
   18.5056   29.6824   36.1424 O   0  0  0  0  0  0  0  0  0  0  0  0
   19.8758   30.2202   34.2894 C   0  0  1  0  0  0  0  0  0  0  0  0
   20.4264   31.5351   34.3765 O   0  0  0  0  0  0  0  0  0  0  0  0
   20.6643   29.2980   35.1915 C   0  0  0  0  0  0  0  0  0  0  0  0
   19.8021   29.1348   36.4299 C   0  0  2  0  0  0  0  0  0  0  0  0
   17.5373   25.9917   39.8577 N   0  0  0  0  0  0  0  0  0  0  0  0
   17.5135   27.3414   39.7420 C   0  0  2  0  0  0  0  0  0  0  0  0
   16.8005   28.0837   40.6152 N   0  0  0  0  0  0  0  0  0  0  0  0
   18.1902   27.9796   38.7639 N   0  0  0  0  0  0  0  0  0  0  0  0
   18.9226   27.3027   37.8564 C   0  0  1  0  0  0  0  0  0  0  0  0
   18.9969   25.9300   37.9149 C   0  0  1  0  0  0  0  0  0  0  0  0
   18.2474   25.2392   38.9931 C   0  0  0  0  0  0  0  0  0  0  0  0
   18.2778   23.9933   39.1004 O   0  0  0  0  0  0  0  0  0  0  0  0
   19.7816   25.5199   36.9038 N   0  0  0  0  0  0  0  0  0  0  0  0
   20.1813   26.6278   36.2379 C   0  0  0  0  0  0  0  0  0  0  0  0
   19.6491   27.7100   36.8282 N   0  0  1  0  0  0  0  0  0  0  0  0
  1  2  1  0  0  0  0
  3  1  1  6  0  0  0
  3  4  1  0  0  0  0
  3  5  1  0  0  0  0
  5  6  1  1  0  0  0
  5  7  1  0  0  0  0
  7  8  1  0  0  0  0
  8  4  1  6  0  0  0
  8 19  1  0  0  0  0
  9 15  1  0  0  0  0
  9 10  1  0  0  0  0
 10 11  1  6  0  0  0
 10 12  1  0  0  0  0
 13 12  1  6  0  0  0
 13 14  1  0  0  0  0
 13 19  1  0  0  0  0
 14 15  1  6  0  0  0
 14 17  1  0  0  0  0
 15 16  2  0  0  0  0
 17 18  1  0  0  0  0
 19 18  1  6  0  0  0
M  END
>  <CHROM.1>
53.80549999,-58.87279769,18.68971656,27.98794357,36.92433405,1.37400959,0.61322425
-0.70472960

>  <Name>
ligand

>  <RI>
0

>  <Rbt.Current_Directory>
/home/itssahil/PROJECTS/Mol_Feturizer/New_Systems/rnas/3SKL

>  <Rbt.Executable>
rbdock ($Id: //depot/dev/client3/rdock/2013.1/src/exe/rbdock.cxx#4 $)

>  <Rbt.Library>
libRbt.so (2013.1, Build901 2013/11/27)

>  <Rbt.Parameter_File>
/export/apps/rDock/src/rDock_2013.1_src/data/scripts/dock_solv.prm

>  <Rbt.Receptor>
prm/pocket_docking_4.prm

>  <SCORE>
-17.2913

>  <SCORE.INTER>
-17.3213

>  <SCORE.INTER.CONST>
1

>  <SCORE.INTER.POLAR>
0

>  <SCORE.INTER.ROT>
2

>  <SCORE.INTER.SOLV>
18.5219

>  <SCORE.INTER.VDW>
-22.6548

>  <SCORE.INTER.norm>
-0.911645

>  <SCORE.INTRA>
0.0300046

>  <SCORE.INTRA.DIHEDRAL>
-0.161566

>  <SCORE.INTRA.DIHEDRAL.0>
1.50031

>  <SCORE.INTRA.POLAR>
0

>  <SCORE.INTRA.POLAR.0>
0

>  <SCORE.INTRA.REPUL>
0

>  <SCORE.INTRA.REPUL.0>
0

>  <SCORE.INTRA.SOLV>
-0.487296

>  <SCORE.INTRA.SOLV.lig_0>
-37.9941

>  <SCORE.INTRA.VDW>
0.354435

>  <SCORE.INTRA.VDW.0>
-0.964461

>  <SCORE.INTRA.norm>
0.00157919

>  <SCORE.RESTR>
0

>  <SCORE.RESTR.CAVITY>
0

>  <SCORE.RESTR.norm>
0

>  <SCORE.SYSTEM>
0

>  <SCORE.SYSTEM.CONST>
0

>  <SCORE.SYSTEM.DIHEDRAL>
0

>  <SCORE.SYSTEM.SOLV>
0

>  <SCORE.SYSTEM.norm>
0

>  <SCORE.heavy>
19

>  <SCORE.norm>
-0.910066

>  <RMSD>
1.238

$$$$
ligand
 OpenBabel11021811483D
libRbt.so/2013.1/901 2013/11/27
 19 21  0  0  0  0  0  0  0  0999 V2000
   20.6959   28.6582   32.8442 C   0  0  0  0  0  0  0  0  0  0  0  0
   21.5255   27.9267   33.7636 O   0  0  0  0  0  0  0  0  0  0  0  0
   19.6730   29.5248   33.5864 C   0  0  1  0  0  0  0  0  0  0  0  0
   18.7900   28.7094   34.3563 O   0  0  0  0  0  0  0  0  0  0  0  0
   20.3409   30.4862   34.5510 C   0  0  1  0  0  0  0  0  0  0  0  0
   19.7286   31.7683   34.4055 O   0  0  0  0  0  0  0  0  0  0  0  0
   20.0622   29.9652   35.9427 C   0  0  0  0  0  0  0  0  0  0  0  0
   18.9423   28.9565   35.7631 C   0  0  2  0  0  0  0  0  0  0  0  0
   18.0377   26.2686   40.0892 N   0  0  0  0  0  0  0  0  0  0  0  0
   17.6413   27.5097   39.7176 C   0  0  2  0  0  0  0  0  0  0  0  0
   16.8699   28.2496   40.5418 N   0  0  0  0  0  0  0  0  0  0  0  0
   17.9974   28.0396   38.5284 N   0  0  0  0  0  0  0  0  0  0  0  0
   18.7657   27.3579   37.6548 C   0  0  1  0  0  0  0  0  0  0  0  0
   19.2095   26.0935   37.9667 C   0  0  1  0  0  0  0  0  0  0  0  0
   18.8101   25.5203   39.2757 C   0  0  0  0  0  0  0  0  0  0  0  0
   19.1842   24.3768   39.6178 O   0  0  0  0  0  0  0  0  0  0  0  0
   19.9440   25.6513   36.9316 N   0  0  0  0  0  0  0  0  0  0  0  0
   19.9488   26.6335   36.0010 C   0  0  0  0  0  0  0  0  0  0  0  0
   19.2247   27.6698   36.4536 N   0  0  1  0  0  0  0  0  0  0  0  0
  1  2  1  0  0  0  0
  3  1  1  1  0  0  0
  3  4  1  0  0  0  0
  3  5  1  0  0  0  0
  5  6  1  1  0  0  0
  5  7  1  0  0  0  0
  7  8  1  0  0  0  0
  8  4  1  6  0  0  0
  8 19  1  0  0  0  0
  9 15  1  0  0  0  0
  9 10  1  0  0  0  0
 10 11  1  6  0  0  0
 10 12  1  0  0  0  0
 13 12  1  6  0  0  0
 13 14  1  0  0  0  0
 13 19  1  0  0  0  0
 14 15  1  6  0  0  0
 14 17  1  0  0  0  0
 15 16  2  0  0  0  0
 17 18  1  0  0  0  0
 19 18  1  6  0  0  0
M  END
>  <CHROM.1>
-62.26786322,-143.43447787,19.25772395,27.89873805,36.67025279,-1.03494655
-1.00063858,2.58742183

>  <Name>
ligand

>  <RI>
0

>  <Rbt.Current_Directory>
/home/itssahil/PROJECTS/Mol_Feturizer/New_Systems/rnas/3SKL

>  <Rbt.Executable>
rbdock ($Id: //depot/dev/client3/rdock/2013.1/src/exe/rbdock.cxx#4 $)

>  <Rbt.Library>
libRbt.so (2013.1, Build901 2013/11/27)

>  <Rbt.Parameter_File>
/export/apps/rDock/src/rDock_2013.1_src/data/scripts/dock_solv.prm

>  <Rbt.Receptor>
prm/pocket_docking_3.prm

>  <SCORE>
-15.9805

>  <SCORE.INTER>
-15.404

>  <SCORE.INTER.CONST>
1

>  <SCORE.INTER.POLAR>
0

>  <SCORE.INTER.ROT>
2

>  <SCORE.INTER.SOLV>
16.573

>  <SCORE.INTER.VDW>
-20.727

>  <SCORE.INTER.norm>
-0.810737

>  <SCORE.INTRA>
-0.576518

>  <SCORE.INTRA.DIHEDRAL>
-0.256678

>  <SCORE.INTRA.DIHEDRAL.0>
1.50031

>  <SCORE.INTRA.POLAR>
0

>  <SCORE.INTRA.POLAR.0>
0

>  <SCORE.INTRA.REPUL>
0

>  <SCORE.INTRA.REPUL.0>
0

>  <SCORE.INTRA.SOLV>
0.028199

>  <SCORE.INTRA.SOLV.lig_0>
-37.9941

>  <SCORE.INTRA.VDW>
-0.462278

>  <SCORE.INTRA.VDW.0>
-0.964461

>  <SCORE.INTRA.norm>
-0.030343

>  <SCORE.RESTR>
0

>  <SCORE.RESTR.CAVITY>
0

>  <SCORE.RESTR.norm>
0

>  <SCORE.SYSTEM>
0

>  <SCORE.SYSTEM.CONST>
0

>  <SCORE.SYSTEM.DIHEDRAL>
0

>  <SCORE.SYSTEM.SOLV>
0

>  <SCORE.SYSTEM.norm>
0

>  <SCORE.heavy>
19

>  <SCORE.norm>
-0.84108

>  <RMSD>
1.240

$$$$
ligand
 OpenBabel11021811483D
libRbt.so/2013.1/901 2013/11/27
 19 21  0  0  0  0  0  0  0  0999 V2000
   20.6245   28.7090   33.0888 C   0  0  0  0  0  0  0  0  0  0  0  0
   21.3675   27.8010   33.9206 O   0  0  0  0  0  0  0  0  0  0  0  0
   19.7837   29.6740   33.9313 C   0  0  1  0  0  0  0  0  0  0  0  0
   18.8502   28.9539   34.7359 O   0  0  0  0  0  0  0  0  0  0  0  0
   20.6415   30.4940   34.8760 C   0  0  1  0  0  0  0  0  0  0  0  0
   20.2040   31.8523   34.8175 O   0  0  0  0  0  0  0  0  0  0  0  0
   20.3877   29.9569   36.2664 C   0  0  0  0  0  0  0  0  0  0  0  0
   19.1296   29.1180   36.1354 C   0  0  2  0  0  0  0  0  0  0  0  0
   17.7058   26.2365   40.1884 N   0  0  0  0  0  0  0  0  0  0  0  0
   17.4150   27.5203   39.8679 C   0  0  2  0  0  0  0  0  0  0  0  0
   16.6205   28.2565   40.6733 N   0  0  0  0  0  0  0  0  0  0  0  0
   17.9012   28.0975   38.7487 N   0  0  0  0  0  0  0  0  0  0  0  0
   18.7002   27.4225   37.8977 C   0  0  1  0  0  0  0  0  0  0  0  0
   19.0418   26.1160   38.1613 C   0  0  1  0  0  0  0  0  0  0  0  0
   18.4998   25.4914   39.3932 C   0  0  0  0  0  0  0  0  0  0  0  0
   18.7765   24.3079   39.6890 O   0  0  0  0  0  0  0  0  0  0  0  0
   19.8347   25.6916   37.1626 N   0  0  0  0  0  0  0  0  0  0  0  0
   19.9756   26.7259   36.3018 C   0  0  0  0  0  0  0  0  0  0  0  0
   19.2771   27.7767   36.7608 N   0  0  1  0  0  0  0  0  0  0  0  0
  1  2  1  0  0  0  0
  3  1  1  1  0  0  0
  3  4  1  0  0  0  0
  3  5  1  0  0  0  0
  5  6  1  1  0  0  0
  5  7  1  0  0  0  0
  7  8  1  0  0  0  0
  8  4  1  6  0  0  0
  8 19  1  0  0  0  0
  9 15  1  0  0  0  0
  9 10  1  0  0  0  0
 10 11  1  6  0  0  0
 10 12  1  0  0  0  0
 13 12  1  6  0  0  0
 13 14  1  0  0  0  0
 13 19  1  0  0  0  0
 14 15  1  6  0  0  0
 14 17  1  0  0  0  0
 15 16  2  0  0  0  0
 17 18  1  0  0  0  0
 19 18  1  6  0  0  0
M  END
>  <CHROM.1>
-60.15345764,-133.49573689,19.22581333,27.94215811,36.91448670,-0.87893334
-1.00640475,2.76161191

>  <Name>
ligand

>  <RI>
0

>  <Rbt.Current_Directory>
/home/itssahil/PROJECTS/Mol_Feturizer/New_Systems/rnas/3SKL

>  <Rbt.Executable>
rbdock ($Id: //depot/dev/client3/rdock/2013.1/src/exe/rbdock.cxx#4 $)

>  <Rbt.Library>
libRbt.so (2013.1, Build901 2013/11/27)

>  <Rbt.Parameter_File>
/export/apps/rDock/src/rDock_2013.1_src/data/scripts/dock_solv.prm

>  <Rbt.Receptor>
prm/pocket_docking_6.prm

>  <SCORE>
-16.1672

>  <SCORE.INTER>
-15.5827

>  <SCORE.INTER.CONST>
1

>  <SCORE.INTER.POLAR>
0

>  <SCORE.INTER.ROT>
2

>  <SCORE.INTER.SOLV>
17.1737

>  <SCORE.INTER.VDW>
-21.0463

>  <SCORE.INTER.norm>
-0.82014

>  <SCORE.INTRA>
-0.587949

>  <SCORE.INTRA.DIHEDRAL>
-0.281593

>  <SCORE.INTRA.DIHEDRAL.0>
1.50031

>  <SCORE.INTRA.POLAR>
0

>  <SCORE.INTRA.POLAR.0>
0

>  <SCORE.INTRA.REPUL>
0

>  <SCORE.INTRA.REPUL.0>
0

>  <SCORE.INTRA.SOLV>
0.0392641

>  <SCORE.INTRA.SOLV.lig_0>
-37.9941

>  <SCORE.INTRA.VDW>
-0.466784

>  <SCORE.INTRA.VDW.0>
-0.964461

>  <SCORE.INTRA.norm>
-0.0309447

>  <SCORE.RESTR>
0.0033691

>  <SCORE.RESTR.CAVITY>
0.0033691

>  <SCORE.RESTR.norm>
0.000177321

>  <SCORE.SYSTEM>
0

>  <SCORE.SYSTEM.CONST>
0

>  <SCORE.SYSTEM.DIHEDRAL>
0

>  <SCORE.SYSTEM.SOLV>
0

>  <SCORE.SYSTEM.norm>
0

>  <SCORE.heavy>
19

>  <SCORE.norm>
-0.850908

>  <RMSD>
1.246

$$$$
ligand
 OpenBabel11021811483D
libRbt.so/2013.1/901 2013/11/27
 19 21  0  0  0  0  0  0  0  0999 V2000
   20.7442   28.7987   32.9659 C   0  0  0  0  0  0  0  0  0  0  0  0
   21.4917   27.8834   33.7857 O   0  0  0  0  0  0  0  0  0  0  0  0
   19.8936   29.7439   33.8209 C   0  0  1  0  0  0  0  0  0  0  0  0
   18.9417   29.0065   34.5874 O   0  0  0  0  0  0  0  0  0  0  0  0
   20.7387   30.5310   34.8043 C   0  0  1  0  0  0  0  0  0  0  0  0
   20.3099   31.8931   34.7775 O   0  0  0  0  0  0  0  0  0  0  0  0
   20.4568   29.9554   36.1737 C   0  0  0  0  0  0  0  0  0  0  0  0
   19.1966   29.1283   35.9958 C   0  0  2  0  0  0  0  0  0  0  0  0
   17.8046   26.1844   40.0149 N   0  0  0  0  0  0  0  0  0  0  0  0
   17.5392   27.4828   39.7333 C   0  0  2  0  0  0  0  0  0  0  0  0
   16.7856   28.2187   40.5773 N   0  0  0  0  0  0  0  0  0  0  0  0
   18.0109   28.0749   38.6158 N   0  0  0  0  0  0  0  0  0  0  0  0
   18.7694   27.4011   37.7277 C   0  0  1  0  0  0  0  0  0  0  0  0
   19.0835   26.0802   37.9504 C   0  0  1  0  0  0  0  0  0  0  0  0
   18.5579   25.4392   39.1810 C   0  0  0  0  0  0  0  0  0  0  0  0
   18.8112   24.2421   39.4406 O   0  0  0  0  0  0  0  0  0  0  0  0
   19.8387   25.6606   36.9208 N   0  0  0  0  0  0  0  0  0  0  0  0
   19.9840   26.7120   36.0817 C   0  0  0  0  0  0  0  0  0  0  0  0
   19.3253   27.7686   36.5846 N   0  0  1  0  0  0  0  0  0  0  0  0
  1  2  1  0  0  0  0
  3  1  1  1  0  0  0
  3  4  1  0  0  0  0
  3  5  1  0  0  0  0
  5  6  1  1  0  0  0
  5  7  1  0  0  0  0
  7  8  1  0  0  0  0
  8  4  1  6  0  0  0
  8 19  1  0  0  0  0
  9 15  1  0  0  0  0
  9 10  1  0  0  0  0
 10 11  1  6  0  0  0
 10 12  1  0  0  0  0
 13 12  1  6  0  0  0
 13 14  1  0  0  0  0
 13 19  1  0  0  0  0
 14 15  1  6  0  0  0
 14 17  1  0  0  0  0
 15 16  2  0  0  0  0
 17 18  1  0  0  0  0
 19 18  1  6  0  0  0
M  END
>  <CHROM.1>
-61.54245663,-136.30577969,19.30814357,27.94392948,36.76427712,-0.84781456
-1.02388891,2.81679699

>  <Name>
ligand

>  <RI>
0

>  <Rbt.Current_Directory>
/home/itssahil/PROJECTS/Mol_Feturizer/New_Systems/rnas/3SKL

>  <Rbt.Executable>
rbdock ($Id: //depot/dev/client3/rdock/2013.1/src/exe/rbdock.cxx#4 $)

>  <Rbt.Library>
libRbt.so (2013.1, Build901 2013/11/27)

>  <Rbt.Parameter_File>
/export/apps/rDock/src/rDock_2013.1_src/data/scripts/dock_solv.prm

>  <Rbt.Receptor>
prm/pocket_docking_5.prm

>  <SCORE>
-16.2178

>  <SCORE.INTER>
-15.6335

>  <SCORE.INTER.CONST>
1

>  <SCORE.INTER.POLAR>
0

>  <SCORE.INTER.ROT>
2

>  <SCORE.INTER.SOLV>
16.5837

>  <SCORE.INTER.VDW>
-20.8836

>  <SCORE.INTER.norm>
-0.822817

>  <SCORE.INTRA>
-0.584261

>  <SCORE.INTRA.DIHEDRAL>
-0.27095

>  <SCORE.INTRA.DIHEDRAL.0>
1.50031

>  <SCORE.INTRA.POLAR>
0

>  <SCORE.INTRA.POLAR.0>
0

>  <SCORE.INTRA.REPUL>
0

>  <SCORE.INTRA.REPUL.0>
0

>  <SCORE.INTRA.SOLV>
0.0342816

>  <SCORE.INTRA.SOLV.lig_0>
-37.9941

>  <SCORE.INTRA.VDW>
-0.465927

>  <SCORE.INTRA.VDW.0>
-0.964461

>  <SCORE.INTRA.norm>
-0.0307506

>  <SCORE.RESTR>
0

>  <SCORE.RESTR.CAVITY>
0

>  <SCORE.RESTR.norm>
0

>  <SCORE.SYSTEM>
0

>  <SCORE.SYSTEM.CONST>
0

>  <SCORE.SYSTEM.DIHEDRAL>
0

>  <SCORE.SYSTEM.SOLV>
0

>  <SCORE.SYSTEM.norm>
0

>  <SCORE.heavy>
19

>  <SCORE.norm>
-0.853567

>  <RMSD>
1.300

$$$$
ligand
 OpenBabel11021811483D
libRbt.so/2013.1/901 2013/11/27
 19 21  0  0  0  0  0  0  0  0999 V2000
   20.8194   28.7620   33.0467 C   0  0  0  0  0  0  0  0  0  0  0  0
   21.4827   27.7938   33.8780 O   0  0  0  0  0  0  0  0  0  0  0  0
   19.9503   29.7091   33.8807 C   0  0  1  0  0  0  0  0  0  0  0  0
   18.9740   28.9743   34.6185 O   0  0  0  0  0  0  0  0  0  0  0  0
   20.7719   30.4891   34.8894 C   0  0  1  0  0  0  0  0  0  0  0  0
   20.3507   31.8534   34.8548 O   0  0  0  0  0  0  0  0  0  0  0  0
   20.4495   29.9110   36.2488 C   0  0  0  0  0  0  0  0  0  0  0  0
   19.1906   29.0908   36.0338 C   0  0  2  0  0  0  0  0  0  0  0  0
   17.7638   26.1737   40.0602 N   0  0  0  0  0  0  0  0  0  0  0  0
   17.5219   27.4770   39.7801 C   0  0  2  0  0  0  0  0  0  0  0  0
   16.7872   28.2271   40.6281 N   0  0  0  0  0  0  0  0  0  0  0  0
   17.9989   28.0601   38.6601 N   0  0  0  0  0  0  0  0  0  0  0  0
   18.7395   27.3719   37.7678 C   0  0  1  0  0  0  0  0  0  0  0  0
   19.0293   26.0452   37.9888 C   0  0  1  0  0  0  0  0  0  0  0  0
   18.4981   25.4142   39.2222 C   0  0  0  0  0  0  0  0  0  0  0  0
   18.7297   24.2124   39.4804 O   0  0  0  0  0  0  0  0  0  0  0  0
   19.7707   25.6112   36.9552 N   0  0  0  0  0  0  0  0  0  0  0  0
   19.9317   26.6598   36.1154 C   0  0  0  0  0  0  0  0  0  0  0  0
   19.2963   27.7288   36.6218 N   0  0  1  0  0  0  0  0  0  0  0  0
  1  2  1  0  0  0  0
  3  1  1  1  0  0  0
  3  4  1  0  0  0  0
  3  5  1  0  0  0  0
  5  6  1  1  0  0  0
  5  7  1  0  0  0  0
  7  8  1  0  0  0  0
  8  4  1  6  0  0  0
  8 19  1  0  0  0  0
  9 15  1  0  0  0  0
  9 10  1  0  0  0  0
 10 11  1  6  0  0  0
 10 12  1  0  0  0  0
 13 12  1  6  0  0  0
 13 14  1  0  0  0  0
 13 19  1  0  0  0  0
 14 15  1  6  0  0  0
 14 17  1  0  0  0  0
 15 16  2  0  0  0  0
 17 18  1  0  0  0  0
 19 18  1  6  0  0  0
M  END
>  <CHROM.1>
-58.38344717,-138.36804782,19.29714544,27.90971162,36.81706639,-0.81156932
-1.02797407,2.85243654

>  <Name>
ligand

>  <RI>
0

>  <Rbt.Current_Directory>
/home/itssahil/PROJECTS/Mol_Feturizer/New_Systems/rnas/3SKL

>  <Rbt.Executable>
rbdock ($Id: //depot/dev/client3/rdock/2013.1/src/exe/rbdock.cxx#4 $)

>  <Rbt.Library>
libRbt.so (2013.1, Build901 2013/11/27)

>  <Rbt.Parameter_File>
/export/apps/rDock/src/rDock_2013.1_src/data/scripts/dock_solv.prm

>  <Rbt.Receptor>
prm/pocket_docking_5.prm

>  <SCORE>
-16.1746

>  <SCORE.INTER>
-15.5867

>  <SCORE.INTER.CONST>
1

>  <SCORE.INTER.POLAR>
0

>  <SCORE.INTER.ROT>
2

>  <SCORE.INTER.SOLV>
16.6939

>  <SCORE.INTER.VDW>
-20.8891

>  <SCORE.INTER.norm>
-0.820355

>  <SCORE.INTRA>
-0.587861

>  <SCORE.INTRA.DIHEDRAL>
-0.267535

>  <SCORE.INTRA.DIHEDRAL.0>
1.50031

>  <SCORE.INTRA.POLAR>
0

>  <SCORE.INTRA.POLAR.0>
0

>  <SCORE.INTRA.REPUL>
0

>  <SCORE.INTRA.REPUL.0>
0

>  <SCORE.INTRA.SOLV>
0.0425074

>  <SCORE.INTRA.SOLV.lig_0>
-37.9941

>  <SCORE.INTRA.VDW>
-0.475347

>  <SCORE.INTRA.VDW.0>
-0.964461

>  <SCORE.INTRA.norm>
-0.03094

>  <SCORE.RESTR>
0

>  <SCORE.RESTR.CAVITY>
0

>  <SCORE.RESTR.norm>
0

>  <SCORE.SYSTEM>
0

>  <SCORE.SYSTEM.CONST>
0

>  <SCORE.SYSTEM.DIHEDRAL>
0

>  <SCORE.SYSTEM.SOLV>
0

>  <SCORE.SYSTEM.norm>
0

>  <SCORE.heavy>
19

>  <SCORE.norm>
-0.851295

>  <RMSD>
1.313

$$$$
ligand
 OpenBabel11021811483D
libRbt.so/2013.1/901 2013/11/27
 19 21  0  0  0  0  0  0  0  0999 V2000
   21.2518   28.6045   33.4066 C   0  0  0  0  0  0  0  0  0  0  0  0
   20.6245   27.8004   32.3925 O   0  0  0  0  0  0  0  0  0  0  0  0
   20.2449   29.5517   34.0676 C   0  0  1  0  0  0  0  0  0  0  0  0
   19.1976   28.8116   34.6944 O   0  0  0  0  0  0  0  0  0  0  0  0
   20.8915   30.4016   35.1448 C   0  0  1  0  0  0  0  0  0  0  0  0
   20.4373   31.7469   34.9903 O   0  0  0  0  0  0  0  0  0  0  0  0
   20.3988   29.8673   36.4706 C   0  0  0  0  0  0  0  0  0  0  0  0
   19.2088   28.9931   36.1193 C   0  0  2  0  0  0  0  0  0  0  0  0
   17.6121   26.3056   40.2407 N   0  0  0  0  0  0  0  0  0  0  0  0
   17.4020   27.5970   39.8890 C   0  0  2  0  0  0  0  0  0  0  0  0
   16.6562   28.4007   40.6760 N   0  0  0  0  0  0  0  0  0  0  0  0
   17.9221   28.1152   38.7563 N   0  0  0  0  0  0  0  0  0  0  0  0
   18.6762   27.3710   37.9222 C   0  0  1  0  0  0  0  0  0  0  0  0
   18.9355   26.0525   38.2176 C   0  0  1  0  0  0  0  0  0  0  0  0
   18.3570   25.4931   39.4641 C   0  0  0  0  0  0  0  0  0  0  0  0
   18.5594   24.3021   39.7886 O   0  0  0  0  0  0  0  0  0  0  0  0
   19.6992   25.5551   37.2297 N   0  0  0  0  0  0  0  0  0  0  0  0
   19.9035   26.5574   36.3440 C   0  0  0  0  0  0  0  0  0  0  0  0
   19.2727   27.6607   36.7772 N   0  0  1  0  0  0  0  0  0  0  0  0
  1  2  1  0  0  0  0
  3  1  1  1  0  0  0
  3  4  1  0  0  0  0
  3  5  1  0  0  0  0
  5  6  1  6  0  0  0
  5  7  1  0  0  0  0
  7  8  1  0  0  0  0
  8  4  1  6  0  0  0
  8 19  1  0  0  0  0
  9 15  1  0  0  0  0
  9 10  1  0  0  0  0
 10 11  1  6  0  0  0
 10 12  1  0  0  0  0
 13 12  1  6  0  0  0
 13 14  1  0  0  0  0
 13 19  1  0  0  0  0
 14 15  1  6  0  0  0
 14 17  1  0  0  0  0
 15 16  2  0  0  0  0
 17 18  1  0  0  0  0
 19 18  1  6  0  0  0
M  END
>  <CHROM.1>
60.63652295,-145.38041740,19.25028595,27.88864386,36.90017937,-0.60734702
-1.09979340,3.00148408

>  <Name>
ligand

>  <RI>
0

>  <Rbt.Current_Directory>
/home/itssahil/PROJECTS/Mol_Feturizer/New_Systems/rnas/3SKL

>  <Rbt.Executable>
rbdock ($Id: //depot/dev/client3/rdock/2013.1/src/exe/rbdock.cxx#4 $)

>  <Rbt.Library>
libRbt.so (2013.1, Build901 2013/11/27)

>  <Rbt.Parameter_File>
/export/apps/rDock/src/rDock_2013.1_src/data/scripts/dock_solv.prm

>  <Rbt.Receptor>
prm/pocket_docking_6.prm

>  <SCORE>
-16.2387

>  <SCORE.INTER>
-15.5819

>  <SCORE.INTER.CONST>
1

>  <SCORE.INTER.POLAR>
0

>  <SCORE.INTER.ROT>
2

>  <SCORE.INTER.SOLV>
16.9579

>  <SCORE.INTER.VDW>
-20.9739

>  <SCORE.INTER.norm>
-0.8201

>  <SCORE.INTRA>
-0.668243

>  <SCORE.INTRA.DIHEDRAL>
-0.272226

>  <SCORE.INTRA.DIHEDRAL.0>
1.50031

>  <SCORE.INTRA.POLAR>
0

>  <SCORE.INTRA.POLAR.0>
0

>  <SCORE.INTRA.REPUL>
0

>  <SCORE.INTRA.REPUL.0>
0

>  <SCORE.INTRA.SOLV>
-0.556867

>  <SCORE.INTRA.SOLV.lig_0>
-37.9941

>  <SCORE.INTRA.VDW>
-0.253697

>  <SCORE.INTRA.VDW.0>
-0.964461

>  <SCORE.INTRA.norm>
-0.0351707

>  <SCORE.RESTR>
0.0114247

>  <SCORE.RESTR.CAVITY>
0.0114247

>  <SCORE.RESTR.norm>
0.0006013

>  <SCORE.SYSTEM>
0

>  <SCORE.SYSTEM.CONST>
0

>  <SCORE.SYSTEM.DIHEDRAL>
0

>  <SCORE.SYSTEM.SOLV>
0

>  <SCORE.SYSTEM.norm>
0

>  <SCORE.heavy>
19

>  <SCORE.norm>
-0.85467

>  <RMSD>
1.329

$$$$
ligand
 OpenBabel11021811483D
libRbt.so/2013.1/901 2013/11/27
 19 21  0  0  0  0  0  0  0  0999 V2000
   20.8750   28.8796   33.0221 C   0  0  0  0  0  0  0  0  0  0  0  0
   21.5668   27.9175   33.8371 O   0  0  0  0  0  0  0  0  0  0  0  0
   19.9871   29.7937   33.8730 C   0  0  1  0  0  0  0  0  0  0  0  0
   19.0147   29.0277   34.5838 O   0  0  0  0  0  0  0  0  0  0  0  0
   20.7907   30.5579   34.9081 C   0  0  1  0  0  0  0  0  0  0  0  0
   20.3521   31.9171   34.9052 O   0  0  0  0  0  0  0  0  0  0  0  0
   20.4652   29.9408   36.2495 C   0  0  0  0  0  0  0  0  0  0  0  0
   19.2188   29.1104   36.0033 C   0  0  2  0  0  0  0  0  0  0  0  0
   17.8154   26.0779   39.9520 N   0  0  0  0  0  0  0  0  0  0  0  0
   17.5604   27.3853   39.7043 C   0  0  2  0  0  0  0  0  0  0  0  0
   16.8165   28.1062   40.5695 N   0  0  0  0  0  0  0  0  0  0  0  0
   18.0333   28.0014   38.6003 N   0  0  0  0  0  0  0  0  0  0  0  0
   18.7825   27.3437   37.6925 C   0  0  1  0  0  0  0  0  0  0  0  0
   19.0857   26.0149   37.8805 C   0  0  1  0  0  0  0  0  0  0  0  0
   18.5589   25.3475   39.0965 C   0  0  0  0  0  0  0  0  0  0  0  0
   18.8025   24.1420   39.3248 O   0  0  0  0  0  0  0  0  0  0  0  0
   19.8334   25.6149   36.8378 N   0  0  0  0  0  0  0  0  0  0  0  0
   19.9850   26.6859   36.0250 C   0  0  0  0  0  0  0  0  0  0  0  0
   19.3376   27.7351   36.5569 N   0  0  1  0  0  0  0  0  0  0  0  0
  1  2  1  0  0  0  0
  3  1  1  1  0  0  0
  3  4  1  0  0  0  0
  3  5  1  0  0  0  0
  5  6  1  1  0  0  0
  5  7  1  0  0  0  0
  7  8  1  0  0  0  0
  8  4  1  6  0  0  0
  8 19  1  0  0  0  0
  9 15  1  0  0  0  0
  9 10  1  0  0  0  0
 10 11  1  6  0  0  0
 10 12  1  0  0  0  0
 13 12  1  6  0  0  0
 13 14  1  0  0  0  0
 13 19  1  0  0  0  0
 14 15  1  6  0  0  0
 14 17  1  0  0  0  0
 15 16  2  0  0  0  0
 17 18  1  0  0  0  0
 19 18  1  6  0  0  0
M  END
>  <CHROM.1>
-59.64296244,-138.74620245,19.34068652,27.91368103,36.75993394,-0.83047531
-1.01968824,2.86177014

>  <Name>
ligand

>  <RI>
0

>  <Rbt.Current_Directory>
/home/itssahil/PROJECTS/Mol_Feturizer/New_Systems/rnas/3SKL

>  <Rbt.Executable>
rbdock ($Id: //depot/dev/client3/rdock/2013.1/src/exe/rbdock.cxx#4 $)

>  <Rbt.Library>
libRbt.so (2013.1, Build901 2013/11/27)

>  <Rbt.Parameter_File>
/export/apps/rDock/src/rDock_2013.1_src/data/scripts/dock_solv.prm

>  <Rbt.Receptor>
prm/pocket_docking_4.prm

>  <SCORE>
-16.2031

>  <SCORE.INTER>
-15.6103

>  <SCORE.INTER.CONST>
1

>  <SCORE.INTER.POLAR>
0

>  <SCORE.INTER.ROT>
2

>  <SCORE.INTER.SOLV>
16.6654

>  <SCORE.INTER.VDW>
-20.8954

>  <SCORE.INTER.norm>
-0.821596

>  <SCORE.INTRA>
-0.592778

>  <SCORE.INTRA.DIHEDRAL>
-0.276629

>  <SCORE.INTRA.DIHEDRAL.0>
1.50031

>  <SCORE.INTRA.POLAR>
0

>  <SCORE.INTRA.POLAR.0>
0

>  <SCORE.INTRA.REPUL>
0

>  <SCORE.INTRA.REPUL.0>
0

>  <SCORE.INTRA.SOLV>
0.0389135

>  <SCORE.INTRA.SOLV.lig_0>
-37.9941

>  <SCORE.INTRA.VDW>
-0.47392

>  <SCORE.INTRA.VDW.0>
-0.964461

>  <SCORE.INTRA.norm>
-0.0311988

>  <SCORE.RESTR>
0

>  <SCORE.RESTR.CAVITY>
0

>  <SCORE.RESTR.norm>
0

>  <SCORE.SYSTEM>
0

>  <SCORE.SYSTEM.CONST>
0

>  <SCORE.SYSTEM.DIHEDRAL>
0

>  <SCORE.SYSTEM.SOLV>
0

>  <SCORE.SYSTEM.norm>
0

>  <SCORE.heavy>
19

>  <SCORE.norm>
-0.852795

>  <RMSD>
1.376

$$$$
ligand
 OpenBabel11021811483D
libRbt.so/2013.1/901 2013/11/27
 19 21  0  0  0  0  0  0  0  0999 V2000
   21.2559   28.8456   33.2489 C   0  0  0  0  0  0  0  0  0  0  0  0
   20.6117   28.0837   32.2129 O   0  0  0  0  0  0  0  0  0  0  0  0
   20.2565   29.7506   33.9770 C   0  0  1  0  0  0  0  0  0  0  0  0
   19.2252   28.9723   34.5836 O   0  0  0  0  0  0  0  0  0  0  0  0
   20.9188   30.5474   35.0849 C   0  0  1  0  0  0  0  0  0  0  0  0
   20.4546   31.8959   35.0093 O   0  0  0  0  0  0  0  0  0  0  0  0
   20.4540   29.9416   36.3899 C   0  0  0  0  0  0  0  0  0  0  0  0
   19.2623   29.0793   36.0156 C   0  0  2  0  0  0  0  0  0  0  0  0
   17.7349   26.1631   40.0057 N   0  0  0  0  0  0  0  0  0  0  0  0
   17.5089   27.4690   39.7246 C   0  0  2  0  0  0  0  0  0  0  0  0
   16.7640   28.2229   40.5604 N   0  0  0  0  0  0  0  0  0  0  0  0
   18.0120   28.0512   38.6156 N   0  0  0  0  0  0  0  0  0  0  0  0
   18.7641   27.3595   37.7359 C   0  0  1  0  0  0  0  0  0  0  0  0
   19.0390   26.0299   37.9587 C   0  0  1  0  0  0  0  0  0  0  0  0
   18.4791   25.4000   39.1799 C   0  0  0  0  0  0  0  0  0  0  0  0
   18.6960   24.1957   39.4391 O   0  0  0  0  0  0  0  0  0  0  0  0
   19.7967   25.5928   36.9384 N   0  0  0  0  0  0  0  0  0  0  0  0
   19.9822   26.6422   36.1047 C   0  0  0  0  0  0  0  0  0  0  0  0
   19.3457   27.7149   36.6018 N   0  0  1  0  0  0  0  0  0  0  0  0
  1  2  1  0  0  0  0
  3  1  1  1  0  0  0
  3  4  1  0  0  0  0
  3  5  1  0  0  0  0
  5  6  1  1  0  0  0
  5  7  1  0  0  0  0
  7  8  1  0  0  0  0
  8  4  1  6  0  0  0
  8 19  1  0  0  0  0
  9 15  1  0  0  0  0
  9 10  1  0  0  0  0
 10 11  1  6  0  0  0
 10 12  1  0  0  0  0
 13 12  1  6  0  0  0
 13 14  1  0  0  0  0
 13 19  1  0  0  0  0
 14 15  1  6  0  0  0
 14 17  1  0  0  0  0
 15 16  2  0  0  0  0
 17 18  1  0  0  0  0
 19 18  1  6  0  0  0
M  END
>  <CHROM.1>
60.18301428,-144.85387948,19.31769300,27.93335422,36.73319927,-0.62971330
-1.11228400,3.03393242

>  <Name>
ligand

>  <RI>
0

>  <Rbt.Current_Directory>
/home/itssahil/PROJECTS/Mol_Feturizer/New_Systems/rnas/3SKL

>  <Rbt.Executable>
rbdock ($Id: //depot/dev/client3/rdock/2013.1/src/exe/rbdock.cxx#4 $)

>  <Rbt.Library>
libRbt.so (2013.1, Build901 2013/11/27)

>  <Rbt.Parameter_File>
/export/apps/rDock/src/rDock_2013.1_src/data/scripts/dock_solv.prm

>  <Rbt.Receptor>
prm/pocket_docking_7.prm

>  <SCORE>
-16.5472

>  <SCORE.INTER>
-15.8777

>  <SCORE.INTER.CONST>
1

>  <SCORE.INTER.POLAR>
0

>  <SCORE.INTER.ROT>
2

>  <SCORE.INTER.SOLV>
16.4763

>  <SCORE.INTER.VDW>
-21.0106

>  <SCORE.INTER.norm>
-0.835668

>  <SCORE.INTRA>
-0.66954

>  <SCORE.INTRA.DIHEDRAL>
-0.273868

>  <SCORE.INTRA.DIHEDRAL.0>
1.50031

>  <SCORE.INTRA.POLAR>
0

>  <SCORE.INTRA.POLAR.0>
0

>  <SCORE.INTRA.REPUL>
0

>  <SCORE.INTRA.REPUL.0>
0

>  <SCORE.INTRA.SOLV>
-0.554548

>  <SCORE.INTRA.SOLV.lig_0>
-37.9941

>  <SCORE.INTRA.VDW>
-0.255332

>  <SCORE.INTRA.VDW.0>
-0.964461

>  <SCORE.INTRA.norm>
-0.035239

>  <SCORE.RESTR>
0

>  <SCORE.RESTR.CAVITY>
0

>  <SCORE.RESTR.norm>
0

>  <SCORE.SYSTEM>
0

>  <SCORE.SYSTEM.CONST>
0

>  <SCORE.SYSTEM.DIHEDRAL>
0

>  <SCORE.SYSTEM.SOLV>
0

>  <SCORE.SYSTEM.norm>
0

>  <SCORE.heavy>
19

>  <SCORE.norm>
-0.870907

>  <RMSD>
1.384

$$$$
ligand
 OpenBabel11021811483D
libRbt.so/2013.1/901 2013/11/27
 19 21  0  0  0  0  0  0  0  0999 V2000
   21.2834   28.8107   33.2682 C   0  0  0  0  0  0  0  0  0  0  0  0
   20.6434   28.0468   32.2311 O   0  0  0  0  0  0  0  0  0  0  0  0
   20.2821   29.7205   33.9875 C   0  0  1  0  0  0  0  0  0  0  0  0
   19.2416   28.9472   34.5848 O   0  0  0  0  0  0  0  0  0  0  0  0
   20.9384   30.5139   35.1014 C   0  0  1  0  0  0  0  0  0  0  0  0
   20.4815   31.8647   35.0219 O   0  0  0  0  0  0  0  0  0  0  0  0
   20.4591   29.9103   36.4021 C   0  0  0  0  0  0  0  0  0  0  0  0
   19.2665   29.0539   36.0171 C   0  0  2  0  0  0  0  0  0  0  0  0
   17.7198   26.1546   40.0121 N   0  0  0  0  0  0  0  0  0  0  0  0
   17.5059   27.4625   39.7308 C   0  0  2  0  0  0  0  0  0  0  0  0
   16.7701   28.2239   40.5679 N   0  0  0  0  0  0  0  0  0  0  0  0
   18.0121   28.0393   38.6204 N   0  0  0  0  0  0  0  0  0  0  0  0
   18.7555   27.3398   37.7394 C   0  0  1  0  0  0  0  0  0  0  0  0
   19.0180   26.0078   37.9623 C   0  0  1  0  0  0  0  0  0  0  0  0
   18.4548   25.3839   39.1850 C   0  0  0  0  0  0  0  0  0  0  0  0
   18.6606   24.1777   39.4443 O   0  0  0  0  0  0  0  0  0  0  0  0
   19.7692   25.5628   36.9404 N   0  0  0  0  0  0  0  0  0  0  0  0
   19.9630   26.6100   36.1058 C   0  0  0  0  0  0  0  0  0  0  0  0
   19.3380   27.6890   36.6037 N   0  0  1  0  0  0  0  0  0  0  0  0
  1  2  1  0  0  0  0
  3  1  1  1  0  0  0
  3  4  1  0  0  0  0
  3  5  1  0  0  0  0
  5  6  1  1  0  0  0
  5  7  1  0  0  0  0
  7  8  1  0  0  0  0
  8  4  1  6  0  0  0
  8 19  1  0  0  0  0
  9 15  1  0  0  0  0
  9 10  1  0  0  0  0
 10 11  1  6  0  0  0
 10 12  1  0  0  0  0
 13 12  1  6  0  0  0
 13 14  1  0  0  0  0
 13 19  1  0  0  0  0
 14 15  1  6  0  0  0
 14 17  1  0  0  0  0
 15 16  2  0  0  0  0
 17 18  1  0  0  0  0
 19 18  1  6  0  0  0
M  END
>  <CHROM.1>
59.87316501,-145.54777516,19.31847522,27.91007690,36.74068769,-0.61092831
-1.11087924,3.05077586

>  <Name>
ligand

>  <RI>
0

>  <Rbt.Current_Directory>
/home/itssahil/PROJECTS/Mol_Feturizer/New_Systems/rnas/3SKL

>  <Rbt.Executable>
rbdock ($Id: //depot/dev/client3/rdock/2013.1/src/exe/rbdock.cxx#4 $)

>  <Rbt.Library>
libRbt.so (2013.1, Build901 2013/11/27)

>  <Rbt.Parameter_File>
/export/apps/rDock/src/rDock_2013.1_src/data/scripts/dock_solv.prm

>  <Rbt.Receptor>
prm/blind_docking_100.prm

>  <SCORE>
-16.533

>  <SCORE.INTER>
-15.8662

>  <SCORE.INTER.CONST>
1

>  <SCORE.INTER.POLAR>
0

>  <SCORE.INTER.ROT>
2

>  <SCORE.INTER.SOLV>
16.5021

>  <SCORE.INTER.VDW>
-21.0115

>  <SCORE.INTER.norm>
-0.835062

>  <SCORE.INTRA>
-0.66683

>  <SCORE.INTRA.DIHEDRAL>
-0.273818

>  <SCORE.INTRA.DIHEDRAL.0>
1.50031

>  <SCORE.INTRA.POLAR>
0

>  <SCORE.INTRA.POLAR.0>
0

>  <SCORE.INTRA.REPUL>
0

>  <SCORE.INTRA.REPUL.0>
0

>  <SCORE.INTRA.SOLV>
-0.553094

>  <SCORE.INTRA.SOLV.lig_0>
-37.9941

>  <SCORE.INTRA.VDW>
-0.253374

>  <SCORE.INTRA.VDW.0>
-0.964461

>  <SCORE.INTRA.norm>
-0.0350963

>  <SCORE.RESTR>
0

>  <SCORE.RESTR.CAVITY>
0

>  <SCORE.RESTR.norm>
0

>  <SCORE.SYSTEM>
0

>  <SCORE.SYSTEM.CONST>
0

>  <SCORE.SYSTEM.DIHEDRAL>
0

>  <SCORE.SYSTEM.SOLV>
0

>  <SCORE.SYSTEM.norm>
0

>  <SCORE.heavy>
19

>  <SCORE.norm>
-0.870159

>  <RMSD>
1.389

$$$$
ligand
 OpenBabel11021811483D
libRbt.so/2013.1/901 2013/11/27
 19 21  0  0  0  0  0  0  0  0999 V2000
   21.2456   28.8499   33.2551 C   0  0  0  0  0  0  0  0  0  0  0  0
   20.6149   28.0640   32.2289 O   0  0  0  0  0  0  0  0  0  0  0  0
   20.2273   29.7319   33.9852 C   0  0  1  0  0  0  0  0  0  0  0  0
   19.2172   28.9300   34.5969 O   0  0  0  0  0  0  0  0  0  0  0  0
   20.8741   30.5464   35.0893 C   0  0  1  0  0  0  0  0  0  0  0  0
   20.3773   31.8832   35.0131 O   0  0  0  0  0  0  0  0  0  0  0  0
   20.4287   29.9320   36.3971 C   0  0  0  0  0  0  0  0  0  0  0  0
   19.2568   29.0405   36.0285 C   0  0  2  0  0  0  0  0  0  0  0  0
   17.8485   26.1077   40.0501 N   0  0  0  0  0  0  0  0  0  0  0  0
   17.5936   27.4084   39.7694 C   0  0  2  0  0  0  0  0  0  0  0  0
   16.8481   28.1505   40.6151 N   0  0  0  0  0  0  0  0  0  0  0  0
   18.0678   27.9967   38.6509 N   0  0  0  0  0  0  0  0  0  0  0  0
   18.8186   27.3167   37.7610 C   0  0  1  0  0  0  0  0  0  0  0  0
   19.1219   25.9931   37.9828 C   0  0  1  0  0  0  0  0  0  0  0  0
   18.5935   25.3563   39.2144 C   0  0  0  0  0  0  0  0  0  0  0  0
   18.8372   24.1570   39.4732 O   0  0  0  0  0  0  0  0  0  0  0  0
   19.8712   25.5673   36.9515 N   0  0  0  0  0  0  0  0  0  0  0  0
   20.0237   26.6176   36.1123 C   0  0  0  0  0  0  0  0  0  0  0  0
   19.3752   27.6796   36.6167 N   0  0  1  0  0  0  0  0  0  0  0  0
  1  2  1  0  0  0  0
  3  1  1  1  0  0  0
  3  4  1  0  0  0  0
  3  5  1  0  0  0  0
  5  6  1  1  0  0  0
  5  7  1  0  0  0  0
  7  8  1  0  0  0  0
  8  4  1  6  0  0  0
  8 19  1  0  0  0  0
  9 15  1  0  0  0  0
  9 10  1  0  0  0  0
 10 11  1  6  0  0  0
 10 12  1  0  0  0  0
 13 12  1  6  0  0  0
 13 14  1  0  0  0  0
 13 19  1  0  0  0  0
 14 15  1  6  0  0  0
 14 17  1  0  0  0  0
 15 16  2  0  0  0  0
 17 18  1  0  0  0  0
 19 18  1  6  0  0  0
M  END
>  <CHROM.1>
59.78595022,-145.63496974,19.35199274,27.90058589,36.75425252,-0.67921767
-1.12058045,2.98740180

>  <Name>
ligand

>  <RI>
0

>  <Rbt.Current_Directory>
/home/itssahil/PROJECTS/Mol_Feturizer/New_Systems/rnas/3SKL

>  <Rbt.Executable>
rbdock ($Id: //depot/dev/client3/rdock/2013.1/src/exe/rbdock.cxx#4 $)

>  <Rbt.Library>
libRbt.so (2013.1, Build901 2013/11/27)

>  <Rbt.Parameter_File>
/export/apps/rDock/src/rDock_2013.1_src/data/scripts/dock_solv.prm

>  <Rbt.Receptor>
prm/blind_docking_80.prm

>  <SCORE>
-16.4499

>  <SCORE.INTER>
-15.7836

>  <SCORE.INTER.CONST>
1

>  <SCORE.INTER.POLAR>
0

>  <SCORE.INTER.ROT>
2

>  <SCORE.INTER.SOLV>
16.2727

>  <SCORE.INTER.VDW>
-20.88

>  <SCORE.INTER.norm>
-0.830715

>  <SCORE.INTRA>
-0.666316

>  <SCORE.INTRA.DIHEDRAL>
-0.273713

>  <SCORE.INTRA.DIHEDRAL.0>
1.50031

>  <SCORE.INTRA.POLAR>
0

>  <SCORE.INTRA.POLAR.0>
0

>  <SCORE.INTRA.REPUL>
0

>  <SCORE.INTRA.REPUL.0>
0

>  <SCORE.INTRA.SOLV>
-0.55267

>  <SCORE.INTRA.SOLV.lig_0>
-37.9941

>  <SCORE.INTRA.VDW>
-0.253125

>  <SCORE.INTRA.VDW.0>
-0.964461

>  <SCORE.INTRA.norm>
-0.0350693

>  <SCORE.RESTR>
0

>  <SCORE.RESTR.CAVITY>
0

>  <SCORE.RESTR.norm>
0

>  <SCORE.SYSTEM>
0

>  <SCORE.SYSTEM.CONST>
0

>  <SCORE.SYSTEM.DIHEDRAL>
0

>  <SCORE.SYSTEM.SOLV>
0

>  <SCORE.SYSTEM.norm>
0

>  <SCORE.heavy>
19

>  <SCORE.norm>
-0.865784

>  <RMSD>
1.389

$$$$
ligand
 OpenBabel11021811483D
libRbt.so/2013.1/901 2013/11/27
 19 21  0  0  0  0  0  0  0  0999 V2000
   21.3536   28.7544   33.2359 C   0  0  0  0  0  0  0  0  0  0  0  0
   20.7684   27.9705   32.1815 O   0  0  0  0  0  0  0  0  0  0  0  0
   20.3094   29.6535   33.9059 C   0  0  1  0  0  0  0  0  0  0  0  0
   19.2712   28.8669   34.4897 O   0  0  0  0  0  0  0  0  0  0  0  0
   20.9128   30.4866   35.0207 C   0  0  1  0  0  0  0  0  0  0  0  0
   20.4252   31.8235   34.8984 O   0  0  0  0  0  0  0  0  0  0  0  0
   20.4105   29.8987   36.3199 C   0  0  0  0  0  0  0  0  0  0  0  0
   19.2513   29.0044   35.9194 C   0  0  2  0  0  0  0  0  0  0  0  0
   17.7506   26.1840   39.9877 N   0  0  0  0  0  0  0  0  0  0  0  0
   17.5220   27.4827   39.6768 C   0  0  2  0  0  0  0  0  0  0  0  0
   16.7817   28.2560   40.4989 N   0  0  0  0  0  0  0  0  0  0  0  0
   18.0178   28.0384   38.5511 N   0  0  0  0  0  0  0  0  0  0  0  0
   18.7650   27.3261   37.6835 C   0  0  1  0  0  0  0  0  0  0  0  0
   19.0421   26.0024   37.9365 C   0  0  1  0  0  0  0  0  0  0  0  0
   18.4902   25.4017   39.1759 C   0  0  0  0  0  0  0  0  0  0  0  0
   18.7095   24.2041   39.4626 O   0  0  0  0  0  0  0  0  0  0  0  0
   19.7938   25.5413   36.9222 N   0  0  0  0  0  0  0  0  0  0  0  0
   19.9735   26.5705   36.0625 C   0  0  0  0  0  0  0  0  0  0  0  0
   19.3393   27.6545   36.5376 N   0  0  1  0  0  0  0  0  0  0  0  0
  1  2  1  0  0  0  0
  3  1  1  1  0  0  0
  3  4  1  0  0  0  0
  3  5  1  0  0  0  0
  5  6  1  6  0  0  0
  5  7  1  0  0  0  0
  7  8  1  0  0  0  0
  8  4  1  6  0  0  0
  8 19  1  0  0  0  0
  9 15  1  0  0  0  0
  9 10  1  0  0  0  0
 10 11  1  6  0  0  0
 10 12  1  0  0  0  0
 13 12  1  6  0  0  0
 13 14  1  0  0  0  0
 13 19  1  0  0  0  0
 14 15  1  6  0  0  0
 14 17  1  0  0  0  0
 15 16  2  0  0  0  0
 17 18  1  0  0  0  0
 19 18  1  6  0  0  0
M  END
>  <CHROM.1>
60.92334957,-147.63377560,19.33633127,27.88805592,36.68437671,-0.64234585
-1.10020345,3.00043010

>  <Name>
ligand

>  <RI>
0

>  <Rbt.Current_Directory>
/home/itssahil/PROJECTS/Mol_Feturizer/New_Systems/rnas/3SKL

>  <Rbt.Executable>
rbdock ($Id: //depot/dev/client3/rdock/2013.1/src/exe/rbdock.cxx#4 $)

>  <Rbt.Library>
libRbt.so (2013.1, Build901 2013/11/27)

>  <Rbt.Parameter_File>
/export/apps/rDock/src/rDock_2013.1_src/data/scripts/dock_solv.prm

>  <Rbt.Receptor>
prm/pocket_docking_7.prm

>  <SCORE>
-16.4998

>  <SCORE.INTER>
-15.8394

>  <SCORE.INTER.CONST>
1

>  <SCORE.INTER.POLAR>
0

>  <SCORE.INTER.ROT>
2

>  <SCORE.INTER.SOLV>
16.4665

>  <SCORE.INTER.VDW>
-20.9817

>  <SCORE.INTER.norm>
-0.83365

>  <SCORE.INTRA>
-0.660408

>  <SCORE.INTRA.DIHEDRAL>
-0.270047

>  <SCORE.INTRA.DIHEDRAL.0>
1.50031

>  <SCORE.INTRA.POLAR>
0

>  <SCORE.INTRA.POLAR.0>
0

>  <SCORE.INTRA.REPUL>
0

>  <SCORE.INTRA.REPUL.0>
0

>  <SCORE.INTRA.SOLV>
-0.558596

>  <SCORE.INTRA.SOLV.lig_0>
-37.9941

>  <SCORE.INTRA.VDW>
-0.246086

>  <SCORE.INTRA.VDW.0>
-0.964461

>  <SCORE.INTRA.norm>
-0.0347583

>  <SCORE.RESTR>
0

>  <SCORE.RESTR.CAVITY>
0

>  <SCORE.RESTR.norm>
0

>  <SCORE.SYSTEM>
0

>  <SCORE.SYSTEM.CONST>
0

>  <SCORE.SYSTEM.DIHEDRAL>
0

>  <SCORE.SYSTEM.SOLV>
0

>  <SCORE.SYSTEM.norm>
0

>  <SCORE.heavy>
19

>  <SCORE.norm>
-0.868408

>  <RMSD>
1.389

$$$$
ligand
 OpenBabel11021811483D
libRbt.so/2013.1/901 2013/11/27
 19 21  0  0  0  0  0  0  0  0999 V2000
   21.2548   28.8556   33.2635 C   0  0  0  0  0  0  0  0  0  0  0  0
   20.5980   28.0911   32.2374 O   0  0  0  0  0  0  0  0  0  0  0  0
   20.2644   29.7620   34.0021 C   0  0  1  0  0  0  0  0  0  0  0  0
   19.2261   28.9867   34.6008 O   0  0  0  0  0  0  0  0  0  0  0  0
   20.9347   30.5403   35.1182 C   0  0  1  0  0  0  0  0  0  0  0  0
   20.4831   31.8939   35.0576 O   0  0  0  0  0  0  0  0  0  0  0  0
   20.4649   29.9248   36.4168 C   0  0  0  0  0  0  0  0  0  0  0  0
   19.2650   29.0778   36.0339 C   0  0  2  0  0  0  0  0  0  0  0  0
   17.7194   26.1348   39.9971 N   0  0  0  0  0  0  0  0  0  0  0  0
   17.5062   27.4459   39.7308 C   0  0  2  0  0  0  0  0  0  0  0  0
   16.7717   28.1984   40.5770 N   0  0  0  0  0  0  0  0  0  0  0  0
   18.0119   28.0348   38.6266 N   0  0  0  0  0  0  0  0  0  0  0  0
   18.7542   27.3448   37.7371 C   0  0  1  0  0  0  0  0  0  0  0  0
   19.0158   26.0101   37.9448 C   0  0  1  0  0  0  0  0  0  0  0  0
   18.4531   25.3729   39.1608 C   0  0  0  0  0  0  0  0  0  0  0  0
   18.6582   24.1637   39.4064 O   0  0  0  0  0  0  0  0  0  0  0  0
   19.7658   25.5761   36.9174 N   0  0  0  0  0  0  0  0  0  0  0  0
   19.9598   26.6325   36.0945 C   0  0  0  0  0  0  0  0  0  0  0  0
   19.3360   27.7063   36.6050 N   0  0  1  0  0  0  0  0  0  0  0  0
  1  2  1  0  0  0  0
  3  1  1  1  0  0  0
  3  4  1  0  0  0  0
  3  5  1  0  0  0  0
  5  6  1  1  0  0  0
  5  7  1  0  0  0  0
  7  8  1  0  0  0  0
  8  4  1  6  0  0  0
  8 19  1  0  0  0  0
  9 15  1  0  0  0  0
  9 10  1  0  0  0  0
 10 11  1  6  0  0  0
 10 12  1  0  0  0  0
 13 12  1  6  0  0  0
 13 14  1  0  0  0  0
 13 19  1  0  0  0  0
 14 15  1  6  0  0  0
 14 17  1  0  0  0  0
 15 16  2  0  0  0  0
 17 18  1  0  0  0  0
 19 18  1  6  0  0  0
M  END
>  <CHROM.1>
59.01964703,-145.01039823,19.31171805,27.92298803,36.74116155,-0.60733725
-1.11512797,3.06514620

>  <Name>
ligand

>  <RI>
0

>  <Rbt.Current_Directory>
/home/itssahil/PROJECTS/Mol_Feturizer/New_Systems/rnas/3SKL

>  <Rbt.Executable>
rbdock ($Id: //depot/dev/client3/rdock/2013.1/src/exe/rbdock.cxx#4 $)

>  <Rbt.Library>
libRbt.so (2013.1, Build901 2013/11/27)

>  <Rbt.Parameter_File>
/export/apps/rDock/src/rDock_2013.1_src/data/scripts/dock_solv.prm

>  <Rbt.Receptor>
prm/pocket_docking_5.prm

>  <SCORE>
-16.5354

>  <SCORE.INTER>
-15.8705

>  <SCORE.INTER.CONST>
1

>  <SCORE.INTER.POLAR>
0

>  <SCORE.INTER.ROT>
2

>  <SCORE.INTER.SOLV>
16.4945

>  <SCORE.INTER.VDW>
-21.0118

>  <SCORE.INTER.norm>
-0.83529

>  <SCORE.INTRA>
-0.664851

>  <SCORE.INTRA.DIHEDRAL>
-0.270818

>  <SCORE.INTRA.DIHEDRAL.0>
1.50031

>  <SCORE.INTRA.POLAR>
0

>  <SCORE.INTRA.POLAR.0>
0

>  <SCORE.INTRA.REPUL>
0

>  <SCORE.INTRA.REPUL.0>
0

>  <SCORE.INTRA.SOLV>
-0.548752

>  <SCORE.INTRA.SOLV.lig_0>
-37.9941

>  <SCORE.INTRA.VDW>
-0.255066

>  <SCORE.INTRA.VDW.0>
-0.964461

>  <SCORE.INTRA.norm>
-0.0349922

>  <SCORE.RESTR>
0

>  <SCORE.RESTR.CAVITY>
0

>  <SCORE.RESTR.norm>
0

>  <SCORE.SYSTEM>
0

>  <SCORE.SYSTEM.CONST>
0

>  <SCORE.SYSTEM.DIHEDRAL>
0

>  <SCORE.SYSTEM.SOLV>
0

>  <SCORE.SYSTEM.norm>
0

>  <SCORE.heavy>
19

>  <SCORE.norm>
-0.870283

>  <RMSD>
1.392

$$$$
ligand
 OpenBabel11021811483D
libRbt.so/2013.1/901 2013/11/27
 19 21  0  0  0  0  0  0  0  0999 V2000
   21.2981   28.8194   33.2689 C   0  0  0  0  0  0  0  0  0  0  0  0
   20.6707   28.0531   32.2260 O   0  0  0  0  0  0  0  0  0  0  0  0
   20.2861   29.7232   33.9809 C   0  0  1  0  0  0  0  0  0  0  0  0
   19.2515   28.9430   34.5794 O   0  0  0  0  0  0  0  0  0  0  0  0
   20.9317   30.5286   35.0924 C   0  0  1  0  0  0  0  0  0  0  0  0
   20.4620   31.8746   35.0047 O   0  0  0  0  0  0  0  0  0  0  0  0
   20.4546   29.9271   36.3949 C   0  0  0  0  0  0  0  0  0  0  0  0
   19.2715   29.0573   36.0112 C   0  0  2  0  0  0  0  0  0  0  0  0
   17.7345   26.1613   40.0123 N   0  0  0  0  0  0  0  0  0  0  0  0
   17.5080   27.4654   39.7233 C   0  0  2  0  0  0  0  0  0  0  0  0
   16.7595   28.2230   40.5526 N   0  0  0  0  0  0  0  0  0  0  0  0
   18.0140   28.0421   38.6128 N   0  0  0  0  0  0  0  0  0  0  0  0
   18.7697   27.3464   37.7392 C   0  0  1  0  0  0  0  0  0  0  0  0
   19.0453   26.0183   37.9703 C   0  0  1  0  0  0  0  0  0  0  0  0
   18.4822   25.3945   39.1931 C   0  0  0  0  0  0  0  0  0  0  0  0
   18.6997   24.1919   39.4596 O   0  0  0  0  0  0  0  0  0  0  0  0
   19.8068   25.5764   36.9547 N   0  0  0  0  0  0  0  0  0  0  0  0
   19.9939   26.6215   36.1159 C   0  0  0  0  0  0  0  0  0  0  0  0
   19.3545   27.6962   36.6050 N   0  0  1  0  0  0  0  0  0  0  0  0
  1  2  1  0  0  0  0
  3  1  1  1  0  0  0
  3  4  1  0  0  0  0
  3  5  1  0  0  0  0
  5  6  1  1  0  0  0
  5  7  1  0  0  0  0
  7  8  1  0  0  0  0
  8  4  1  6  0  0  0
  8 19  1  0  0  0  0
  9 15  1  0  0  0  0
  9 10  1  0  0  0  0
 10 11  1  6  0  0  0
 10 12  1  0  0  0  0
 13 12  1  6  0  0  0
 13 14  1  0  0  0  0
 13 19  1  0  0  0  0
 14 15  1  6  0  0  0
 14 17  1  0  0  0  0
 15 16  2  0  0  0  0
 17 18  1  0  0  0  0
 19 18  1  6  0  0  0
M  END
>  <CHROM.1>
60.40597972,-145.37976274,19.33052636,27.91759788,36.73896515,-0.63323879
-1.10556088,3.02556710

>  <Name>
ligand

>  <RI>
0

>  <Rbt.Current_Directory>
/home/itssahil/PROJECTS/Mol_Feturizer/New_Systems/rnas/3SKL

>  <Rbt.Executable>
rbdock ($Id: //depot/dev/client3/rdock/2013.1/src/exe/rbdock.cxx#4 $)

>  <Rbt.Library>
libRbt.so (2013.1, Build901 2013/11/27)

>  <Rbt.Parameter_File>
/export/apps/rDock/src/rDock_2013.1_src/data/scripts/dock_solv.prm

>  <Rbt.Receptor>
prm/pocket_docking_8.prm

>  <SCORE>
-16.5482

>  <SCORE.INTER>
-15.88

>  <SCORE.INTER.CONST>
1

>  <SCORE.INTER.POLAR>
0

>  <SCORE.INTER.ROT>
2

>  <SCORE.INTER.SOLV>
16.5318

>  <SCORE.INTER.VDW>
-21.0306

>  <SCORE.INTER.norm>
-0.835788

>  <SCORE.INTRA>
-0.668204

>  <SCORE.INTRA.DIHEDRAL>
-0.273165

>  <SCORE.INTRA.DIHEDRAL.0>
1.50031

>  <SCORE.INTRA.POLAR>
0

>  <SCORE.INTRA.POLAR.0>
0

>  <SCORE.INTRA.REPUL>
0

>  <SCORE.INTRA.REPUL.0>
0

>  <SCORE.INTRA.SOLV>
-0.555724

>  <SCORE.INTRA.SOLV.lig_0>
-37.9941

>  <SCORE.INTRA.VDW>
-0.25376

>  <SCORE.INTRA.VDW.0>
-0.964461

>  <SCORE.INTRA.norm>
-0.0351687

>  <SCORE.RESTR>
0

>  <SCORE.RESTR.CAVITY>
0

>  <SCORE.RESTR.norm>
0

>  <SCORE.SYSTEM>
0

>  <SCORE.SYSTEM.CONST>
0

>  <SCORE.SYSTEM.DIHEDRAL>
0

>  <SCORE.SYSTEM.SOLV>
0

>  <SCORE.SYSTEM.norm>
0

>  <SCORE.heavy>
19

>  <SCORE.norm>
-0.870957

>  <RMSD>
1.394

$$$$
ligand
 OpenBabel11021811483D
libRbt.so/2013.1/901 2013/11/27
 19 21  0  0  0  0  0  0  0  0999 V2000
   21.2971   28.8432   33.2544 C   0  0  0  0  0  0  0  0  0  0  0  0
   20.6548   28.0641   32.2301 O   0  0  0  0  0  0  0  0  0  0  0  0
   20.2940   29.7503   33.9746 C   0  0  1  0  0  0  0  0  0  0  0  0
   19.2519   28.9748   34.5663 O   0  0  0  0  0  0  0  0  0  0  0  0
   20.9475   30.5394   35.0932 C   0  0  1  0  0  0  0  0  0  0  0  0
   20.4909   31.8906   35.0176 O   0  0  0  0  0  0  0  0  0  0  0  0
   20.4648   29.9309   36.3904 C   0  0  0  0  0  0  0  0  0  0  0  0
   19.2732   29.0760   35.9991 C   0  0  2  0  0  0  0  0  0  0  0  0
   17.7238   26.1640   39.9838 N   0  0  0  0  0  0  0  0  0  0  0  0
   17.5114   27.4733   39.7073 C   0  0  2  0  0  0  0  0  0  0  0  0
   16.7768   28.2325   40.5473 N   0  0  0  0  0  0  0  0  0  0  0  0
   18.0181   28.0534   38.5989 N   0  0  0  0  0  0  0  0  0  0  0  0
   18.7605   27.3563   37.7152 C   0  0  1  0  0  0  0  0  0  0  0  0
   19.0214   26.0231   37.9331 C   0  0  1  0  0  0  0  0  0  0  0  0
   18.4576   25.3955   39.1537 C   0  0  0  0  0  0  0  0  0  0  0  0
   18.6621   24.1881   39.4086 O   0  0  0  0  0  0  0  0  0  0  0  0
   19.7718   25.5810   36.9095 N   0  0  0  0  0  0  0  0  0  0  0  0
   19.9667   26.6310   36.0787 C   0  0  0  0  0  0  0  0  0  0  0  0
   19.3432   27.7089   36.5807 N   0  0  1  0  0  0  0  0  0  0  0  0
  1  2  1  0  0  0  0
  3  1  1  1  0  0  0
  3  4  1  0  0  0  0
  3  5  1  0  0  0  0
  5  6  1  1  0  0  0
  5  7  1  0  0  0  0
  7  8  1  0  0  0  0
  8  4  1  6  0  0  0
  8 19  1  0  0  0  0
  9 15  1  0  0  0  0
  9 10  1  0  0  0  0
 10 11  1  6  0  0  0
 10 12  1  0  0  0  0
 13 12  1  6  0  0  0
 13 14  1  0  0  0  0
 13 19  1  0  0  0  0
 14 15  1  6  0  0  0
 14 17  1  0  0  0  0
 15 16  2  0  0  0  0
 17 18  1  0  0  0  0
 19 18  1  6  0  0  0
M  END
>  <CHROM.1>
58.75315749,-145.72055373,19.32513987,27.92897423,36.72084113,-0.60879760
-1.10990869,3.05670211

>  <Name>
ligand

>  <RI>
0

>  <Rbt.Current_Directory>
/home/itssahil/PROJECTS/Mol_Feturizer/New_Systems/rnas/3SKL

>  <Rbt.Executable>
rbdock ($Id: //depot/dev/client3/rdock/2013.1/src/exe/rbdock.cxx#4 $)

>  <Rbt.Library>
libRbt.so (2013.1, Build901 2013/11/27)

>  <Rbt.Parameter_File>
/export/apps/rDock/src/rDock_2013.1_src/data/scripts/dock_solv.prm

>  <Rbt.Receptor>
prm/pocket_docking_5.prm

>  <SCORE>
-16.5646

>  <SCORE.INTER>
-15.9036

>  <SCORE.INTER.CONST>
1

>  <SCORE.INTER.POLAR>
0

>  <SCORE.INTER.ROT>
2

>  <SCORE.INTER.SOLV>
16.4763

>  <SCORE.INTER.VDW>
-21.0279

>  <SCORE.INTER.norm>
-0.837034

>  <SCORE.INTRA>
-0.661009

>  <SCORE.INTRA.DIHEDRAL>
-0.26855

>  <SCORE.INTRA.DIHEDRAL.0>
1.50031

>  <SCORE.INTRA.POLAR>
0

>  <SCORE.INTRA.POLAR.0>
0

>  <SCORE.INTRA.REPUL>
0

>  <SCORE.INTRA.REPUL.0>
0

>  <SCORE.INTRA.SOLV>
-0.547504

>  <SCORE.INTRA.SOLV.lig_0>
-37.9941

>  <SCORE.INTRA.VDW>
-0.252982

>  <SCORE.INTRA.VDW.0>
-0.964461

>  <SCORE.INTRA.norm>
-0.0347899

>  <SCORE.RESTR>
0

>  <SCORE.RESTR.CAVITY>
0

>  <SCORE.RESTR.norm>
0

>  <SCORE.SYSTEM>
0

>  <SCORE.SYSTEM.CONST>
0

>  <SCORE.SYSTEM.DIHEDRAL>
0

>  <SCORE.SYSTEM.SOLV>
0

>  <SCORE.SYSTEM.norm>
0

>  <SCORE.heavy>
19

>  <SCORE.norm>
-0.871824

>  <RMSD>
1.398

$$$$
ligand
 OpenBabel11021811483D
libRbt.so/2013.1/901 2013/11/27
 19 21  0  0  0  0  0  0  0  0999 V2000
   21.2975   28.8878   33.2503 C   0  0  0  0  0  0  0  0  0  0  0  0
   20.6661   28.1366   32.1988 O   0  0  0  0  0  0  0  0  0  0  0  0
   20.2883   29.7814   33.9789 C   0  0  1  0  0  0  0  0  0  0  0  0
   19.2525   28.9932   34.5648 O   0  0  0  0  0  0  0  0  0  0  0  0
   20.9368   30.5658   35.1036 C   0  0  1  0  0  0  0  0  0  0  0  0
   20.4702   31.9142   35.0398 O   0  0  0  0  0  0  0  0  0  0  0  0
   20.4597   29.9428   36.3959 C   0  0  0  0  0  0  0  0  0  0  0  0
   19.2741   29.0825   35.9983 C   0  0  2  0  0  0  0  0  0  0  0  0
   17.7356   26.1213   39.9507 N   0  0  0  0  0  0  0  0  0  0  0  0
   17.5119   27.4308   39.6848 C   0  0  2  0  0  0  0  0  0  0  0  0
   16.7665   28.1757   40.5282 N   0  0  0  0  0  0  0  0  0  0  0  0
   18.0177   28.0254   38.5837 N   0  0  0  0  0  0  0  0  0  0  0  0
   18.7705   27.3431   37.6971 C   0  0  1  0  0  0  0  0  0  0  0  0
   19.0431   26.0106   37.9046 C   0  0  1  0  0  0  0  0  0  0  0  0
   18.4802   25.3670   39.1172 C   0  0  0  0  0  0  0  0  0  0  0  0
   18.6950   24.1594   39.3625 O   0  0  0  0  0  0  0  0  0  0  0  0
   19.8021   25.5845   36.8805 N   0  0  0  0  0  0  0  0  0  0  0  0
   19.9905   26.6435   36.0597 C   0  0  0  0  0  0  0  0  0  0  0  0
   19.3546   27.7111   36.5683 N   0  0  1  0  0  0  0  0  0  0  0  0
  1  2  1  0  0  0  0
  3  1  1  1  0  0  0
  3  4  1  0  0  0  0
  3  5  1  0  0  0  0
  5  6  1  1  0  0  0
  5  7  1  0  0  0  0
  7  8  1  0  0  0  0
  8  4  1  6  0  0  0
  8 19  1  0  0  0  0
  9 15  1  0  0  0  0
  9 10  1  0  0  0  0
 10 11  1  6  0  0  0
 10 12  1  0  0  0  0
 13 12  1  6  0  0  0
 13 14  1  0  0  0  0
 13 19  1  0  0  0  0
 14 15  1  6  0  0  0
 14 17  1  0  0  0  0
 15 16  2  0  0  0  0
 17 18  1  0  0  0  0
 19 18  1  6  0  0  0
M  END
>  <CHROM.1>
60.14150908,-145.40667636,19.33149946,27.93005691,36.70656310,-0.62810550
-1.10703961,3.04761634

>  <Name>
ligand

>  <RI>
0

>  <Rbt.Current_Directory>
/home/itssahil/PROJECTS/Mol_Feturizer/New_Systems/rnas/3SKL

>  <Rbt.Executable>
rbdock ($Id: //depot/dev/client3/rdock/2013.1/src/exe/rbdock.cxx#4 $)

>  <Rbt.Library>
libRbt.so (2013.1, Build901 2013/11/27)

>  <Rbt.Parameter_File>
/export/apps/rDock/src/rDock_2013.1_src/data/scripts/dock_solv.prm

>  <Rbt.Receptor>
prm/pocket_docking_4.prm

>  <SCORE>
-16.5386

>  <SCORE.INTER>
-15.8708

>  <SCORE.INTER.CONST>
1

>  <SCORE.INTER.POLAR>
0

>  <SCORE.INTER.ROT>
2

>  <SCORE.INTER.SOLV>
16.5453

>  <SCORE.INTER.VDW>
-21.029

>  <SCORE.INTER.norm>
-0.835305

>  <SCORE.INTRA>
-0.667829

>  <SCORE.INTRA.DIHEDRAL>
-0.273762

>  <SCORE.INTRA.DIHEDRAL.0>
1.50031

>  <SCORE.INTRA.POLAR>
0

>  <SCORE.INTRA.POLAR.0>
0

>  <SCORE.INTRA.REPUL>
0

>  <SCORE.INTRA.REPUL.0>
0

>  <SCORE.INTRA.SOLV>
-0.554413

>  <SCORE.INTRA.SOLV.lig_0>
-37.9941

>  <SCORE.INTRA.VDW>
-0.253742

>  <SCORE.INTRA.VDW.0>
-0.964461

>  <SCORE.INTRA.norm>
-0.0351489

>  <SCORE.RESTR>
0

>  <SCORE.RESTR.CAVITY>
0

>  <SCORE.RESTR.norm>
0

>  <SCORE.SYSTEM>
0

>  <SCORE.SYSTEM.CONST>
0

>  <SCORE.SYSTEM.DIHEDRAL>
0

>  <SCORE.SYSTEM.SOLV>
0

>  <SCORE.SYSTEM.norm>
0

>  <SCORE.heavy>
19

>  <SCORE.norm>
-0.870454

>  <RMSD>
1.416

$$$$
ligand
 OpenBabel11021811483D
libRbt.so/2013.1/901 2013/11/27
 19 21  0  0  0  0  0  0  0  0999 V2000
   21.2822   28.9187   33.2335 C   0  0  0  0  0  0  0  0  0  0  0  0
   22.2926   29.7032   32.5760 O   0  0  0  0  0  0  0  0  0  0  0  0
   20.2760   29.8105   33.9685 C   0  0  1  0  0  0  0  0  0  0  0  0
   19.2434   29.0208   34.5579 O   0  0  0  0  0  0  0  0  0  0  0  0
   20.9296   30.5932   35.0915 C   0  0  1  0  0  0  0  0  0  0  0  0
   20.4620   31.9414   35.0323 O   0  0  0  0  0  0  0  0  0  0  0  0
   20.4589   29.9677   36.3850 C   0  0  0  0  0  0  0  0  0  0  0  0
   19.2718   29.1075   35.9914 C   0  0  2  0  0  0  0  0  0  0  0  0
   17.7714   26.1441   39.9569 N   0  0  0  0  0  0  0  0  0  0  0  0
   17.5477   27.4545   39.6953 C   0  0  2  0  0  0  0  0  0  0  0  0
   16.8136   28.1999   40.5482 N   0  0  0  0  0  0  0  0  0  0  0  0
   18.0424   28.0496   38.5894 N   0  0  0  0  0  0  0  0  0  0  0  0
   18.7835   27.3668   37.6934 C   0  0  1  0  0  0  0  0  0  0  0  0
   19.0555   26.0334   37.8960 C   0  0  1  0  0  0  0  0  0  0  0  0
   18.5048   25.3894   39.1139 C   0  0  0  0  0  0  0  0  0  0  0  0
   18.7197   24.1809   39.3551 O   0  0  0  0  0  0  0  0  0  0  0  0
   19.8018   25.6071   36.8627 N   0  0  0  0  0  0  0  0  0  0  0  0
   19.9834   26.6669   36.0413 C   0  0  0  0  0  0  0  0  0  0  0  0
   19.3557   27.7352   36.5586 N   0  0  1  0  0  0  0  0  0  0  0  0
  1  2  1  0  0  0  0
  3  1  1  1  0  0  0
  3  4  1  0  0  0  0
  3  5  1  0  0  0  0
  5  6  1  1  0  0  0
  5  7  1  0  0  0  0
  7  8  1  0  0  0  0
  8  4  1  6  0  0  0
  8 19  1  0  0  0  0
  9 15  1  0  0  0  0
  9 10  1  0  0  0  0
 10 11  1  6  0  0  0
 10 12  1  0  0  0  0
 13 12  1  6  0  0  0
 13 14  1  0  0  0  0
 13 19  1  0  0  0  0
 14 15  1  6  0  0  0
 14 17  1  0  0  0  0
 15 16  2  0  0  0  0
 17 18  1  0  0  0  0
 19 18  1  6  0  0  0
M  END
>  <CHROM.1>
177.06297673,-145.81401465,19.43906842,28.04940898,36.72453215,-0.74387471
-1.00120436,2.94057862

>  <Name>
ligand

>  <RI>
0

>  <Rbt.Current_Directory>
/home/itssahil/PROJECTS/Mol_Feturizer/New_Systems/rnas/3SKL

>  <Rbt.Executable>
rbdock ($Id: //depot/dev/client3/rdock/2013.1/src/exe/rbdock.cxx#4 $)

>  <Rbt.Library>
libRbt.so (2013.1, Build901 2013/11/27)

>  <Rbt.Parameter_File>
/export/apps/rDock/src/rDock_2013.1_src/data/scripts/dock_solv.prm

>  <Rbt.Receptor>
prm/pocket_docking_7.prm

>  <SCORE>
-16.533

>  <SCORE.INTER>
-16.0178

>  <SCORE.INTER.CONST>
1

>  <SCORE.INTER.POLAR>
0

>  <SCORE.INTER.ROT>
2

>  <SCORE.INTER.SOLV>
16.8096

>  <SCORE.INTER.VDW>
-21.215

>  <SCORE.INTER.norm>
-0.84304

>  <SCORE.INTRA>
-0.515225

>  <SCORE.INTRA.DIHEDRAL>
-0.243525

>  <SCORE.INTRA.DIHEDRAL.0>
1.50031

>  <SCORE.INTRA.POLAR>
0

>  <SCORE.INTRA.POLAR.0>
0

>  <SCORE.INTRA.REPUL>
0

>  <SCORE.INTRA.REPUL.0>
0

>  <SCORE.INTRA.SOLV>
-0.47406

>  <SCORE.INTRA.SOLV.lig_0>
-37.9941

>  <SCORE.INTRA.VDW>
-0.156432

>  <SCORE.INTRA.VDW.0>
-0.964461

>  <SCORE.INTRA.norm>
-0.0271171

>  <SCORE.RESTR>
0

>  <SCORE.RESTR.CAVITY>
0

>  <SCORE.RESTR.norm>
0

>  <SCORE.SYSTEM>
0

>  <SCORE.SYSTEM.CONST>
0

>  <SCORE.SYSTEM.DIHEDRAL>
0

>  <SCORE.SYSTEM.SOLV>
0

>  <SCORE.SYSTEM.norm>
0

>  <SCORE.heavy>
19

>  <SCORE.norm>
-0.870157

>  <RMSD>
1.662

$$$$
ligand
 OpenBabel11021811483D
libRbt.so/2013.1/901 2013/11/27
 19 21  0  0  0  0  0  0  0  0999 V2000
   21.3621   28.9141   33.2469 C   0  0  0  0  0  0  0  0  0  0  0  0
   22.3605   29.7312   32.6112 O   0  0  0  0  0  0  0  0  0  0  0  0
   20.3074   29.7728   33.9528 C   0  0  1  0  0  0  0  0  0  0  0  0
   19.2836   28.9502   34.5118 O   0  0  0  0  0  0  0  0  0  0  0  0
   20.9031   30.5744   35.0945 C   0  0  1  0  0  0  0  0  0  0  0  0
   20.3951   31.9073   35.0222 O   0  0  0  0  0  0  0  0  0  0  0  0
   20.4152   29.9327   36.3736 C   0  0  0  0  0  0  0  0  0  0  0  0
   19.2678   29.0360   35.9456 C   0  0  2  0  0  0  0  0  0  0  0  0
   17.8685   26.0631   39.9408 N   0  0  0  0  0  0  0  0  0  0  0  0
   17.6235   27.3698   39.6797 C   0  0  2  0  0  0  0  0  0  0  0  0
   16.8930   28.1075   40.5422 N   0  0  0  0  0  0  0  0  0  0  0  0
   18.0930   27.9685   38.5649 N   0  0  0  0  0  0  0  0  0  0  0  0
   18.8291   27.2933   37.6590 C   0  0  1  0  0  0  0  0  0  0  0  0
   19.1217   25.9641   37.8603 C   0  0  1  0  0  0  0  0  0  0  0  0
   18.5986   25.3159   39.0882 C   0  0  0  0  0  0  0  0  0  0  0  0
   18.8331   24.1110   39.3288 O   0  0  0  0  0  0  0  0  0  0  0  0
   19.8574   25.5450   36.8165 N   0  0  0  0  0  0  0  0  0  0  0  0
   20.0121   26.6050   35.9900 C   0  0  0  0  0  0  0  0  0  0  0  0
   19.3785   27.6663   36.5145 N   0  0  1  0  0  0  0  0  0  0  0  0
  1  2  1  0  0  0  0
  3  1  1  1  0  0  0
  3  4  1  0  0  0  0
  3  5  1  0  0  0  0
  5  6  1  6  0  0  0
  5  7  1  0  0  0  0
  7  8  1  0  0  0  0
  8  4  1  6  0  0  0
  8 19  1  0  0  0  0
  9 15  1  0  0  0  0
  9 10  1  0  0  0  0
 10 11  1  6  0  0  0
 10 12  1  0  0  0  0
 13 12  1  6  0  0  0
 13 14  1  0  0  0  0
 13 19  1  0  0  0  0
 14 15  1  6  0  0  0
 14 17  1  0  0  0  0
 15 16  2  0  0  0  0
 17 18  1  0  0  0  0
 19 18  1  6  0  0  0
M  END
>  <CHROM.1>
176.65534598,-148.58095279,19.48116957,27.99456823,36.70401140,-0.77396530
-0.99829351,2.91931239

>  <Name>
ligand

>  <RI>
0

>  <Rbt.Current_Directory>
/home/itssahil/PROJECTS/Mol_Feturizer/New_Systems/rnas/3SKL

>  <Rbt.Executable>
rbdock ($Id: //depot/dev/client3/rdock/2013.1/src/exe/rbdock.cxx#4 $)

>  <Rbt.Library>
libRbt.so (2013.1, Build901 2013/11/27)

>  <Rbt.Parameter_File>
/export/apps/rDock/src/rDock_2013.1_src/data/scripts/dock_solv.prm

>  <Rbt.Receptor>
prm/pocket_docking_4.prm

>  <SCORE>
-16.5117

>  <SCORE.INTER>
-16.0082

>  <SCORE.INTER.CONST>
1

>  <SCORE.INTER.POLAR>
0

>  <SCORE.INTER.ROT>
2

>  <SCORE.INTER.SOLV>
16.6039

>  <SCORE.INTER.VDW>
-21.1401

>  <SCORE.INTER.norm>
-0.842535

>  <SCORE.INTRA>
-0.503518

>  <SCORE.INTRA.DIHEDRAL>
-0.233976

>  <SCORE.INTRA.DIHEDRAL.0>
1.50031

>  <SCORE.INTRA.POLAR>
0

>  <SCORE.INTRA.POLAR.0>
0

>  <SCORE.INTRA.REPUL>
0

>  <SCORE.INTRA.REPUL.0>
0

>  <SCORE.INTRA.SOLV>
-0.476421

>  <SCORE.INTRA.SOLV.lig_0>
-37.9941

>  <SCORE.INTRA.VDW>
-0.148319

>  <SCORE.INTRA.VDW.0>
-0.964461

>  <SCORE.INTRA.norm>
-0.0265009

>  <SCORE.RESTR>
0

>  <SCORE.RESTR.CAVITY>
0

>  <SCORE.RESTR.norm>
0

>  <SCORE.SYSTEM>
0

>  <SCORE.SYSTEM.CONST>
0

>  <SCORE.SYSTEM.DIHEDRAL>
0

>  <SCORE.SYSTEM.SOLV>
0

>  <SCORE.SYSTEM.norm>
0

>  <SCORE.heavy>
19

>  <SCORE.norm>
-0.869036

>  <RMSD>
1.696

$$$$
ligand
 OpenBabel11021811483D
libRbt.so/2013.1/901 2013/11/27
 19 21  0  0  0  0  0  0  0  0999 V2000
   21.3343   28.9641   33.2570 C   0  0  0  0  0  0  0  0  0  0  0  0
   22.3387   29.7701   32.6165 O   0  0  0  0  0  0  0  0  0  0  0  0
   20.3023   29.8340   33.9825 C   0  0  1  0  0  0  0  0  0  0  0  0
   19.2747   29.0231   34.5516 O   0  0  0  0  0  0  0  0  0  0  0  0
   20.9257   30.6205   35.1199 C   0  0  1  0  0  0  0  0  0  0  0  0
   20.4361   31.9609   35.0621 O   0  0  0  0  0  0  0  0  0  0  0  0
   20.4468   29.9787   36.4024 C   0  0  0  0  0  0  0  0  0  0  0  0
   19.2805   29.1011   35.9859 C   0  0  2  0  0  0  0  0  0  0  0  0
   17.8073   26.0985   39.9321 N   0  0  0  0  0  0  0  0  0  0  0  0
   17.5686   27.4076   39.6772 C   0  0  2  0  0  0  0  0  0  0  0  0
   16.8240   28.1395   40.5325 N   0  0  0  0  0  0  0  0  0  0  0  0
   18.0584   28.0145   38.5755 N   0  0  0  0  0  0  0  0  0  0  0  0
   18.8094   27.3455   37.6774 C   0  0  1  0  0  0  0  0  0  0  0  0
   19.0967   26.0143   37.8733 C   0  0  1  0  0  0  0  0  0  0  0  0
   18.5513   25.3571   39.0866 C   0  0  0  0  0  0  0  0  0  0  0  0
   18.7799   24.1500   39.3216 O   0  0  0  0  0  0  0  0  0  0  0  0
   19.8502   25.6024   36.8393 N   0  0  0  0  0  0  0  0  0  0  0  0
   20.0208   26.6687   36.0240 C   0  0  0  0  0  0  0  0  0  0  0  0
   19.3795   27.7267   36.5458 N   0  0  1  0  0  0  0  0  0  0  0  0
  1  2  1  0  0  0  0
  3  1  1  1  0  0  0
  3  4  1  0  0  0  0
  3  5  1  0  0  0  0
  5  6  1  1  0  0  0
  5  7  1  0  0  0  0
  7  8  1  0  0  0  0
  8  4  1  6  0  0  0
  8 19  1  0  0  0  0
  9 15  1  0  0  0  0
  9 10  1  0  0  0  0
 10 11  1  6  0  0  0
 10 12  1  0  0  0  0
 13 12  1  6  0  0  0
 13 14  1  0  0  0  0
 13 19  1  0  0  0  0
 14 15  1  6  0  0  0
 14 17  1  0  0  0  0
 15 16  2  0  0  0  0
 17 18  1  0  0  0  0
 19 18  1  6  0  0  0
M  END
>  <CHROM.1>
176.90783852,-146.60405834,19.46471948,28.04450499,36.72092569,-0.76445926
-0.99240033,2.93052423

>  <Name>
ligand

>  <RI>
0

>  <Rbt.Current_Directory>
/home/itssahil/PROJECTS/Mol_Feturizer/New_Systems/rnas/3SKL

>  <Rbt.Executable>
rbdock ($Id: //depot/dev/client3/rdock/2013.1/src/exe/rbdock.cxx#4 $)

>  <Rbt.Library>
libRbt.so (2013.1, Build901 2013/11/27)

>  <Rbt.Parameter_File>
/export/apps/rDock/src/rDock_2013.1_src/data/scripts/dock_solv.prm

>  <Rbt.Receptor>
prm/blind_docking_100.prm

>  <SCORE>
-16.5685

>  <SCORE.INTER>
-16.0565

>  <SCORE.INTER.CONST>
1

>  <SCORE.INTER.POLAR>
0

>  <SCORE.INTER.ROT>
2

>  <SCORE.INTER.SOLV>
16.8045

>  <SCORE.INTER.VDW>
-21.2391

>  <SCORE.INTER.norm>
-0.845078

>  <SCORE.INTRA>
-0.512044

>  <SCORE.INTRA.DIHEDRAL>
-0.240021

>  <SCORE.INTRA.DIHEDRAL.0>
1.50031

>  <SCORE.INTRA.POLAR>
0

>  <SCORE.INTRA.POLAR.0>
0

>  <SCORE.INTRA.REPUL>
0

>  <SCORE.INTRA.REPUL.0>
0

>  <SCORE.INTRA.SOLV>
-0.474917

>  <SCORE.INTRA.SOLV.lig_0>
-37.9941

>  <SCORE.INTRA.VDW>
-0.154575

>  <SCORE.INTRA.VDW.0>
-0.964461

>  <SCORE.INTRA.norm>
-0.0269497

>  <SCORE.RESTR>
0

>  <SCORE.RESTR.CAVITY>
0

>  <SCORE.RESTR.norm>
0

>  <SCORE.SYSTEM>
0

>  <SCORE.SYSTEM.CONST>
0

>  <SCORE.SYSTEM.DIHEDRAL>
0

>  <SCORE.SYSTEM.SOLV>
0

>  <SCORE.SYSTEM.norm>
0

>  <SCORE.heavy>
19

>  <SCORE.norm>
-0.872027

>  <RMSD>
1.697

$$$$
ligand
 OpenBabel11021811483D
libRbt.so/2013.1/901 2013/11/27
 19 21  0  0  0  0  0  0  0  0999 V2000
   22.0060   28.9252   33.6613 C   0  0  0  0  0  0  0  0  0  0  0  0
   23.1007   29.7786   33.2845 O   0  0  0  0  0  0  0  0  0  0  0  0
   20.7845   29.7443   34.0914 C   0  0  1  0  0  0  0  0  0  0  0  0
   19.7031   28.8828   34.4463 O   0  0  0  0  0  0  0  0  0  0  0  0
   21.0803   30.6054   35.3046 C   0  0  1  0  0  0  0  0  0  0  0  0
   20.5387   31.9070   35.0759 O   0  0  0  0  0  0  0  0  0  0  0  0
   20.3567   29.9716   36.4711 C   0  0  0  0  0  0  0  0  0  0  0  0
   19.3725   29.0044   35.8389 C   0  0  2  0  0  0  0  0  0  0  0  0
   17.7237   26.2412   39.8891 N   0  0  0  0  0  0  0  0  0  0  0  0
   17.5268   27.5417   39.5642 C   0  0  2  0  0  0  0  0  0  0  0  0
   16.7819   28.3344   40.3633 N   0  0  0  0  0  0  0  0  0  0  0  0
   18.0594   28.0801   38.4469 N   0  0  0  0  0  0  0  0  0  0  0  0
   18.8134   27.3480   37.6021 C   0  0  1  0  0  0  0  0  0  0  0  0
   19.0597   26.0212   37.8704 C   0  0  1  0  0  0  0  0  0  0  0  0
   18.4675   25.4396   39.1003 C   0  0  0  0  0  0  0  0  0  0  0  0
   18.6577   24.2402   39.4001 O   0  0  0  0  0  0  0  0  0  0  0  0
   19.8264   25.5390   36.8774 N   0  0  0  0  0  0  0  0  0  0  0  0
   20.0455   26.5587   36.0153 C   0  0  0  0  0  0  0  0  0  0  0  0
   19.4207   27.6575   36.4680 N   0  0  1  0  0  0  0  0  0  0  0  0
  1  2  1  0  0  0  0
  3  1  1  1  0  0  0
  3  4  1  0  0  0  0
  3  5  1  0  0  0  0
  5  6  1  6  0  0  0
  5  7  1  0  0  0  0
  7  8  1  0  0  0  0
  8  4  1  6  0  0  0
  8 19  1  0  0  0  0
  9 15  1  0  0  0  0
  9 10  1  0  0  0  0
 10 11  1  6  0  0  0
 10 12  1  0  0  0  0
 13 12  1  6  0  0  0
 13 14  1  0  0  0  0
 13 19  1  0  0  0  0
 14 15  1  6  0  0  0
 14 17  1  0  0  0  0
 15 16  2  0  0  0  0
 17 18  1  0  0  0  0
 19 18  1  6  0  0  0
M  END
>  <CHROM.1>
179.30675882,-159.59764180,19.59209430,28.04599058,36.76478621,-0.72566110
-0.89765333,2.94635838

>  <Name>
ligand

>  <RI>
0

>  <Rbt.Current_Directory>
/home/itssahil/PROJECTS/Mol_Feturizer/New_Systems/rnas/3SKL

>  <Rbt.Executable>
rbdock ($Id: //depot/dev/client3/rdock/2013.1/src/exe/rbdock.cxx#4 $)

>  <Rbt.Library>
libRbt.so (2013.1, Build901 2013/11/27)

>  <Rbt.Parameter_File>
/export/apps/rDock/src/rDock_2013.1_src/data/scripts/dock_solv.prm

>  <Rbt.Receptor>
prm/blind_docking_80.prm

>  <SCORE>
-16.8915

>  <SCORE.INTER>
-16.4524

>  <SCORE.INTER.CONST>
1

>  <SCORE.INTER.POLAR>
0

>  <SCORE.INTER.ROT>
2

>  <SCORE.INTER.SOLV>
17.3878

>  <SCORE.INTER.VDW>
-21.6976

>  <SCORE.INTER.norm>
-0.865916

>  <SCORE.INTRA>
-0.439123

>  <SCORE.INTRA.DIHEDRAL>
-0.275087

>  <SCORE.INTRA.DIHEDRAL.0>
1.50031

>  <SCORE.INTRA.POLAR>
0

>  <SCORE.INTRA.POLAR.0>
0

>  <SCORE.INTRA.REPUL>
0

>  <SCORE.INTRA.REPUL.0>
0

>  <SCORE.INTRA.SOLV>
-0.464928

>  <SCORE.INTRA.SOLV.lig_0>
-37.9941

>  <SCORE.INTRA.VDW>
-0.0691152

>  <SCORE.INTRA.VDW.0>
-0.964461

>  <SCORE.INTRA.norm>
-0.0231117

>  <SCORE.RESTR>
0

>  <SCORE.RESTR.CAVITY>
0

>  <SCORE.RESTR.norm>
0

>  <SCORE.SYSTEM>
0

>  <SCORE.SYSTEM.CONST>
0

>  <SCORE.SYSTEM.DIHEDRAL>
0

>  <SCORE.SYSTEM.SOLV>
0

>  <SCORE.SYSTEM.norm>
0

>  <SCORE.heavy>
19

>  <SCORE.norm>
-0.889028

>  <RMSD>
1.923

$$$$
ligand
 OpenBabel11021811483D
libRbt.so/2013.1/901 2013/11/27
 19 21  0  0  0  0  0  0  0  0999 V2000
   22.0706   28.9810   33.6730 C   0  0  0  0  0  0  0  0  0  0  0  0
   23.1552   29.8588   33.3238 O   0  0  0  0  0  0  0  0  0  0  0  0
   20.8266   29.7725   34.0901 C   0  0  1  0  0  0  0  0  0  0  0  0
   19.7546   28.8874   34.4135 O   0  0  0  0  0  0  0  0  0  0  0  0
   21.0839   30.6230   35.3195 C   0  0  1  0  0  0  0  0  0  0  0  0
   20.5232   31.9176   35.0971 O   0  0  0  0  0  0  0  0  0  0  0  0
   20.3501   29.9613   36.4640 C   0  0  0  0  0  0  0  0  0  0  0  0
   19.3957   28.9849   35.8010 C   0  0  2  0  0  0  0  0  0  0  0  0
   17.8314   26.1770   39.8540 N   0  0  0  0  0  0  0  0  0  0  0  0
   17.6284   27.4811   39.5479 C   0  0  2  0  0  0  0  0  0  0  0  0
   16.9010   28.2650   40.3715 N   0  0  0  0  0  0  0  0  0  0  0  0
   18.1375   28.0319   38.4257 N   0  0  0  0  0  0  0  0  0  0  0  0
   18.8731   27.3090   37.5570 C   0  0  1  0  0  0  0  0  0  0  0  0
   19.1243   25.9792   37.8051 C   0  0  1  0  0  0  0  0  0  0  0  0
   18.5579   25.3841   39.0407 C   0  0  0  0  0  0  0  0  0  0  0  0
   18.7537   24.1814   39.3230 O   0  0  0  0  0  0  0  0  0  0  0  0
   19.8695   25.5080   36.7908 N   0  0  0  0  0  0  0  0  0  0  0  0
   20.0709   26.5371   35.9357 C   0  0  0  0  0  0  0  0  0  0  0  0
   19.4564   27.6311   36.4138 N   0  0  1  0  0  0  0  0  0  0  0  0
  1  2  1  0  0  0  0
  3  1  1  1  0  0  0
  3  4  1  0  0  0  0
  3  5  1  0  0  0  0
  5  6  1  6  0  0  0
  5  7  1  0  0  0  0
  7  8  1  0  0  0  0
  8  4  1  6  0  0  0
  8 19  1  0  0  0  0
  9 15  1  0  0  0  0
  9 10  1  0  0  0  0
 10 11  1  6  0  0  0
 10 12  1  0  0  0  0
 13 12  1  6  0  0  0
 13 14  1  0  0  0  0
 13 19  1  0  0  0  0
 14 15  1  6  0  0  0
 14 17  1  0  0  0  0
 15 16  2  0  0  0  0
 17 18  1  0  0  0  0
 19 18  1  6  0  0  0
M  END
>  <CHROM.1>
179.11843575,-162.12663667,19.64635493,28.02909266,36.73843831,-0.73585253
-0.90500256,2.95694722

>  <Name>
ligand

>  <RI>
0

>  <Rbt.Current_Directory>
/home/itssahil/PROJECTS/Mol_Feturizer/New_Systems/rnas/3SKL

>  <Rbt.Executable>
rbdock ($Id: //depot/dev/client3/rdock/2013.1/src/exe/rbdock.cxx#4 $)

>  <Rbt.Library>
libRbt.so (2013.1, Build901 2013/11/27)

>  <Rbt.Parameter_File>
/export/apps/rDock/src/rDock_2013.1_src/data/scripts/dock_solv.prm

>  <Rbt.Receptor>
prm/pocket_docking_7.prm

>  <SCORE>
-16.9894

>  <SCORE.INTER>
-16.5502

>  <SCORE.INTER.CONST>
1

>  <SCORE.INTER.POLAR>
0

>  <SCORE.INTER.ROT>
2

>  <SCORE.INTER.SOLV>
17.0848

>  <SCORE.INTER.VDW>
-21.6617

>  <SCORE.INTER.norm>
-0.871061

>  <SCORE.INTRA>
-0.439295

>  <SCORE.INTRA.DIHEDRAL>
-0.275906

>  <SCORE.INTRA.DIHEDRAL.0>
1.50031

>  <SCORE.INTRA.POLAR>
0

>  <SCORE.INTRA.POLAR.0>
0

>  <SCORE.INTRA.REPUL>
0

>  <SCORE.INTRA.REPUL.0>
0

>  <SCORE.INTRA.SOLV>
-0.466112

>  <SCORE.INTRA.SOLV.lig_0>
-37.9941

>  <SCORE.INTRA.VDW>
-0.0682861

>  <SCORE.INTRA.VDW.0>
-0.964461

>  <SCORE.INTRA.norm>
-0.0231208

>  <SCORE.RESTR>
0

>  <SCORE.RESTR.CAVITY>
0

>  <SCORE.RESTR.norm>
0

>  <SCORE.SYSTEM>
0

>  <SCORE.SYSTEM.CONST>
0

>  <SCORE.SYSTEM.DIHEDRAL>
0

>  <SCORE.SYSTEM.SOLV>
0

>  <SCORE.SYSTEM.norm>
0

>  <SCORE.heavy>
19

>  <SCORE.norm>
-0.894181

>  <RMSD>
1.967

$$$$
ligand
 OpenBabel11021811483D
libRbt.so/2013.1/901 2013/11/27
 19 21  0  0  0  0  0  0  0  0999 V2000
   22.0701   28.9845   33.6666 C   0  0  0  0  0  0  0  0  0  0  0  0
   23.1522   29.8641   33.3144 O   0  0  0  0  0  0  0  0  0  0  0  0
   20.8253   29.7739   34.0852 C   0  0  1  0  0  0  0  0  0  0  0  0
   19.7554   28.8870   34.4108 O   0  0  0  0  0  0  0  0  0  0  0  0
   21.0829   30.6257   35.3136 C   0  0  1  0  0  0  0  0  0  0  0  0
   20.5194   31.9191   35.0911 O   0  0  0  0  0  0  0  0  0  0  0  0
   20.3522   29.9634   36.4596 C   0  0  0  0  0  0  0  0  0  0  0  0
   19.3985   28.9848   35.7988 C   0  0  2  0  0  0  0  0  0  0  0  0
   17.8368   26.1737   39.8506 N   0  0  0  0  0  0  0  0  0  0  0  0
   17.6299   27.4770   39.5435 C   0  0  2  0  0  0  0  0  0  0  0  0
   16.8984   28.2588   40.3653 N   0  0  0  0  0  0  0  0  0  0  0  0
   18.1391   28.0288   38.4218 N   0  0  0  0  0  0  0  0  0  0  0  0
   18.8786   27.3080   37.5548 C   0  0  1  0  0  0  0  0  0  0  0  0
   19.1339   25.9792   37.8041 C   0  0  1  0  0  0  0  0  0  0  0  0
   18.5674   25.3828   39.0389 C   0  0  0  0  0  0  0  0  0  0  0  0
   18.7668   24.1809   39.3222 O   0  0  0  0  0  0  0  0  0  0  0  0
   19.8825   25.5100   36.7912 N   0  0  0  0  0  0  0  0  0  0  0  0
   20.0818   26.5394   35.9360 C   0  0  0  0  0  0  0  0  0  0  0  0
   19.4628   27.6315   36.4124 N   0  0  1  0  0  0  0  0  0  0  0  0
  1  2  1  0  0  0  0
  3  1  1  1  0  0  0
  3  4  1  0  0  0  0
  3  5  1  0  0  0  0
  5  6  1  6  0  0  0
  5  7  1  0  0  0  0
  7  8  1  0  0  0  0
  8  4  1  6  0  0  0
  8 19  1  0  0  0  0
  9 15  1  0  0  0  0
  9 10  1  0  0  0  0
 10 11  1  6  0  0  0
 10 12  1  0  0  0  0
 13 12  1  6  0  0  0
 13 14  1  0  0  0  0
 13 19  1  0  0  0  0
 14 15  1  6  0  0  0
 14 17  1  0  0  0  0
 15 16  2  0  0  0  0
 17 18  1  0  0  0  0
 19 18  1  6  0  0  0
M  END
>  <CHROM.1>
179.08916690,-161.91689359,19.64988017,28.02922558,36.73485914,-0.74034169
-0.90381926,2.95225632

>  <Name>
ligand

>  <RI>
0

>  <Rbt.Current_Directory>
/home/itssahil/PROJECTS/Mol_Feturizer/New_Systems/rnas/3SKL

>  <Rbt.Executable>
rbdock ($Id: //depot/dev/client3/rdock/2013.1/src/exe/rbdock.cxx#4 $)

>  <Rbt.Library>
libRbt.so (2013.1, Build901 2013/11/27)

>  <Rbt.Parameter_File>
/export/apps/rDock/src/rDock_2013.1_src/data/scripts/dock_solv.prm

>  <Rbt.Receptor>
prm/pocket_docking_7.prm

>  <SCORE>
-16.9897

>  <SCORE.INTER>
-16.5487

>  <SCORE.INTER.CONST>
1

>  <SCORE.INTER.POLAR>
0

>  <SCORE.INTER.ROT>
2

>  <SCORE.INTER.SOLV>
17.0742

>  <SCORE.INTER.VDW>
-21.6572

>  <SCORE.INTER.norm>
-0.870986

>  <SCORE.INTRA>
-0.440995

>  <SCORE.INTRA.DIHEDRAL>
-0.27556

>  <SCORE.INTRA.DIHEDRAL.0>
1.50031

>  <SCORE.INTRA.POLAR>
0

>  <SCORE.INTRA.POLAR.0>
0

>  <SCORE.INTRA.REPUL>
0

>  <SCORE.INTRA.REPUL.0>
0

>  <SCORE.INTRA.SOLV>
-0.46623

>  <SCORE.INTRA.SOLV.lig_0>
-37.9941

>  <SCORE.INTRA.VDW>
-0.0700998

>  <SCORE.INTRA.VDW.0>
-0.964461

>  <SCORE.INTRA.norm>
-0.0232102

>  <SCORE.RESTR>
0

>  <SCORE.RESTR.CAVITY>
0

>  <SCORE.RESTR.norm>
0

>  <SCORE.SYSTEM>
0

>  <SCORE.SYSTEM.CONST>
0

>  <SCORE.SYSTEM.DIHEDRAL>
0

>  <SCORE.SYSTEM.SOLV>
0

>  <SCORE.SYSTEM.norm>
0

>  <SCORE.heavy>
19

>  <SCORE.norm>
-0.894196

>  <RMSD>
1.968

$$$$
ligand
 OpenBabel11021811483D
libRbt.so/2013.1/901 2013/11/27
 19 21  0  0  0  0  0  0  0  0999 V2000
   22.0771   28.9765   33.6795 C   0  0  0  0  0  0  0  0  0  0  0  0
   23.1617   29.8538   33.3293 O   0  0  0  0  0  0  0  0  0  0  0  0
   20.8325   29.7685   34.0937 C   0  0  1  0  0  0  0  0  0  0  0  0
   19.7596   28.8838   34.4156 O   0  0  0  0  0  0  0  0  0  0  0  0
   21.0876   30.6198   35.3230 C   0  0  1  0  0  0  0  0  0  0  0  0
   20.5276   31.9143   35.0987 O   0  0  0  0  0  0  0  0  0  0  0  0
   20.3514   29.9589   36.4665 C   0  0  0  0  0  0  0  0  0  0  0  0
   19.3981   28.9823   35.8023 C   0  0  2  0  0  0  0  0  0  0  0  0
   17.8301   26.1789   39.8570 N   0  0  0  0  0  0  0  0  0  0  0  0
   17.6284   27.4830   39.5499 C   0  0  2  0  0  0  0  0  0  0  0  0
   16.9016   28.2682   40.3727 N   0  0  0  0  0  0  0  0  0  0  0  0
   18.1383   28.0324   38.4274 N   0  0  0  0  0  0  0  0  0  0  0  0
   18.8734   27.3082   37.5594 C   0  0  1  0  0  0  0  0  0  0  0  0
   19.1232   25.9784   37.8086 C   0  0  1  0  0  0  0  0  0  0  0  0
   18.5560   25.3847   39.0444 C   0  0  0  0  0  0  0  0  0  0  0  0
   18.7506   24.1820   39.3276 O   0  0  0  0  0  0  0  0  0  0  0  0
   19.8683   25.5057   36.7947 N   0  0  0  0  0  0  0  0  0  0  0  0
   20.0708   26.5340   35.9390 C   0  0  0  0  0  0  0  0  0  0  0  0
   19.4573   27.6289   36.4161 N   0  0  1  0  0  0  0  0  0  0  0  0
  1  2  1  0  0  0  0
  3  1  1  1  0  0  0
  3  4  1  0  0  0  0
  3  5  1  0  0  0  0
  5  6  1  6  0  0  0
  5  7  1  0  0  0  0
  7  8  1  0  0  0  0
  8  4  1  6  0  0  0
  8 19  1  0  0  0  0
  9 15  1  0  0  0  0
  9 10  1  0  0  0  0
 10 11  1  6  0  0  0
 10 12  1  0  0  0  0
 13 12  1  6  0  0  0
 13 14  1  0  0  0  0
 13 19  1  0  0  0  0
 14 15  1  6  0  0  0
 14 17  1  0  0  0  0
 15 16  2  0  0  0  0
 17 18  1  0  0  0  0
 19 18  1  6  0  0  0
M  END
>  <CHROM.1>
179.00313137,-162.23330971,19.64801155,28.02751192,36.74151445,-0.73436854
-0.90447786,2.95768407

>  <Name>
ligand

>  <RI>
0

>  <Rbt.Current_Directory>
/home/itssahil/PROJECTS/Mol_Feturizer/New_Systems/rnas/3SKL

>  <Rbt.Executable>
rbdock ($Id: //depot/dev/client3/rdock/2013.1/src/exe/rbdock.cxx#4 $)

>  <Rbt.Library>
libRbt.so (2013.1, Build901 2013/11/27)

>  <Rbt.Parameter_File>
/export/apps/rDock/src/rDock_2013.1_src/data/scripts/dock_solv.prm

>  <Rbt.Receptor>
prm/pocket_docking_5.prm

>  <SCORE>
-16.989

>  <SCORE.INTER>
-16.5499

>  <SCORE.INTER.CONST>
1

>  <SCORE.INTER.POLAR>
0

>  <SCORE.INTER.ROT>
2

>  <SCORE.INTER.SOLV>
17.0993

>  <SCORE.INTER.VDW>
-21.6663

>  <SCORE.INTER.norm>
-0.871046

>  <SCORE.INTRA>
-0.439163

>  <SCORE.INTRA.DIHEDRAL>
-0.275244

>  <SCORE.INTRA.DIHEDRAL.0>
1.50031

>  <SCORE.INTRA.POLAR>
0

>  <SCORE.INTRA.POLAR.0>
0

>  <SCORE.INTRA.REPUL>
0

>  <SCORE.INTRA.REPUL.0>
0

>  <SCORE.INTRA.SOLV>
-0.466682

>  <SCORE.INTRA.SOLV.lig_0>
-37.9941

>  <SCORE.INTRA.VDW>
-0.0682003

>  <SCORE.INTRA.VDW.0>
-0.964461

>  <SCORE.INTRA.norm>
-0.0231139

>  <SCORE.RESTR>
0

>  <SCORE.RESTR.CAVITY>
0

>  <SCORE.RESTR.norm>
0

>  <SCORE.SYSTEM>
0

>  <SCORE.SYSTEM.CONST>
0

>  <SCORE.SYSTEM.DIHEDRAL>
0

>  <SCORE.SYSTEM.SOLV>
0

>  <SCORE.SYSTEM.norm>
0

>  <SCORE.heavy>
19

>  <SCORE.norm>
-0.894159

>  <RMSD>
1.969

$$$$
ligand
 OpenBabel11021811483D
libRbt.so/2013.1/901 2013/11/27
 19 21  0  0  0  0  0  0  0  0999 V2000
   22.0749   28.9822   33.6676 C   0  0  0  0  0  0  0  0  0  0  0  0
   23.1558   29.8624   33.3133 O   0  0  0  0  0  0  0  0  0  0  0  0
   20.8289   29.7709   34.0842 C   0  0  1  0  0  0  0  0  0  0  0  0
   19.7593   28.8834   34.4091 O   0  0  0  0  0  0  0  0  0  0  0  0
   21.0844   30.6237   35.3124 C   0  0  1  0  0  0  0  0  0  0  0  0
   20.5202   31.9165   35.0885 O   0  0  0  0  0  0  0  0  0  0  0  0
   20.3528   29.9615   36.4579 C   0  0  0  0  0  0  0  0  0  0  0  0
   19.4007   28.9817   35.7966 C   0  0  2  0  0  0  0  0  0  0  0  0
   17.8401   26.1732   39.8505 N   0  0  0  0  0  0  0  0  0  0  0  0
   17.6330   27.4762   39.5426 C   0  0  2  0  0  0  0  0  0  0  0  0
   16.9016   28.2585   40.3641 N   0  0  0  0  0  0  0  0  0  0  0  0
   18.1419   28.0274   38.4204 N   0  0  0  0  0  0  0  0  0  0  0  0
   18.8813   27.3061   37.5537 C   0  0  1  0  0  0  0  0  0  0  0  0
   19.1368   25.9775   37.8038 C   0  0  1  0  0  0  0  0  0  0  0  0
   18.5706   25.3818   39.0392 C   0  0  0  0  0  0  0  0  0  0  0  0
   18.7702   24.1801   39.3232 O   0  0  0  0  0  0  0  0  0  0  0  0
   19.8852   25.5077   36.7912 N   0  0  0  0  0  0  0  0  0  0  0  0
   20.0843   26.5365   35.9352 C   0  0  0  0  0  0  0  0  0  0  0  0
   19.4652   27.6288   36.4110 N   0  0  1  0  0  0  0  0  0  0  0  0
  1  2  1  0  0  0  0
  3  1  1  1  0  0  0
  3  4  1  0  0  0  0
  3  5  1  0  0  0  0
  5  6  1  6  0  0  0
  5  7  1  0  0  0  0
  7  8  1  0  0  0  0
  8  4  1  6  0  0  0
  8 19  1  0  0  0  0
  9 15  1  0  0  0  0
  9 10  1  0  0  0  0
 10 11  1  6  0  0  0
 10 12  1  0  0  0  0
 13 12  1  6  0  0  0
 13 14  1  0  0  0  0
 13 19  1  0  0  0  0
 14 15  1  6  0  0  0
 14 17  1  0  0  0  0
 15 16  2  0  0  0  0
 17 18  1  0  0  0  0
 19 18  1  6  0  0  0
M  END
>  <CHROM.1>
178.95731599,-162.00803153,19.65267056,28.02728087,36.73398068,-0.74065922
-0.90364021,2.95159022

>  <Name>
ligand

>  <RI>
0

>  <Rbt.Current_Directory>
/home/itssahil/PROJECTS/Mol_Feturizer/New_Systems/rnas/3SKL

>  <Rbt.Executable>
rbdock ($Id: //depot/dev/client3/rdock/2013.1/src/exe/rbdock.cxx#4 $)

>  <Rbt.Library>
libRbt.so (2013.1, Build901 2013/11/27)

>  <Rbt.Parameter_File>
/export/apps/rDock/src/rDock_2013.1_src/data/scripts/dock_solv.prm

>  <Rbt.Receptor>
prm/pocket_docking_5.prm

>  <SCORE>
-16.9901

>  <SCORE.INTER>
-16.5491

>  <SCORE.INTER.CONST>
1

>  <SCORE.INTER.POLAR>
0

>  <SCORE.INTER.ROT>
2

>  <SCORE.INTER.SOLV>
17.0713

>  <SCORE.INTER.VDW>
-21.6565

>  <SCORE.INTER.norm>
-0.871003

>  <SCORE.INTRA>
-0.441055

>  <SCORE.INTRA.DIHEDRAL>
-0.274741

>  <SCORE.INTRA.DIHEDRAL.0>
1.50031

>  <SCORE.INTRA.POLAR>
0

>  <SCORE.INTRA.POLAR.0>
0

>  <SCORE.INTRA.REPUL>
0

>  <SCORE.INTRA.REPUL.0>
0

>  <SCORE.INTRA.SOLV>
-0.466878

>  <SCORE.INTRA.SOLV.lig_0>
-37.9941

>  <SCORE.INTRA.VDW>
-0.0702455

>  <SCORE.INTRA.VDW.0>
-0.964461

>  <SCORE.INTRA.norm>
-0.0232134

>  <SCORE.RESTR>
0

>  <SCORE.RESTR.CAVITY>
0

>  <SCORE.RESTR.norm>
0

>  <SCORE.SYSTEM>
0

>  <SCORE.SYSTEM.CONST>
0

>  <SCORE.SYSTEM.DIHEDRAL>
0

>  <SCORE.SYSTEM.SOLV>
0

>  <SCORE.SYSTEM.norm>
0

>  <SCORE.heavy>
19

>  <SCORE.norm>
-0.894216

>  <RMSD>
1.969

$$$$
ligand
 OpenBabel11021811483D
libRbt.so/2013.1/901 2013/11/27
 19 21  0  0  0  0  0  0  0  0999 V2000
   20.8737   30.4799   34.3816 C   0  0  0  0  0  0  0  0  0  0  0  0
   19.6140   30.8733   34.9535 O   0  0  0  0  0  0  0  0  0  0  0  0
   20.9690   28.9572   34.2399 C   0  0  1  0  0  0  0  0  0  0  0  0
   20.8275   28.3255   35.5120 O   0  0  0  0  0  0  0  0  0  0  0  0
   19.8750   28.4032   33.3470 C   0  0  1  0  0  0  0  0  0  0  0  0
   20.4595   27.4528   32.4553 O   0  0  0  0  0  0  0  0  0  0  0  0
   18.8982   27.6886   34.2532 C   0  0  0  0  0  0  0  0  0  0  0  0
   19.6381   27.5219   35.5679 C   0  0  2  0  0  0  0  0  0  0  0  0
   17.8694   26.0045   40.1861 N   0  0  0  0  0  0  0  0  0  0  0  0
   18.6280   25.3551   39.2704 C   0  0  2  0  0  0  0  0  0  0  0  0
   19.0527   24.0969   39.5122 N   0  0  0  0  0  0  0  0  0  0  0  0
   18.9806   25.9357   38.1041 N   0  0  0  0  0  0  0  0  0  0  0  0
   18.5931   27.1899   37.7957 C   0  0  1  0  0  0  0  0  0  0  0  0
   17.8170   27.9084   38.6757 C   0  0  1  0  0  0  0  0  0  0  0  0
   17.4372   27.2607   39.9555 C   0  0  0  0  0  0  0  0  0  0  0  0
   16.7308   27.8614   40.7950 O   0  0  0  0  0  0  0  0  0  0  0  0
   17.5810   29.1112   38.1244 N   0  0  0  0  0  0  0  0  0  0  0  0
   18.2043   29.1257   36.9235 C   0  0  0  0  0  0  0  0  0  0  0  0
   18.8199   27.9474   36.7348 N   0  0  1  0  0  0  0  0  0  0  0  0
  1  2  1  0  0  0  0
  3  1  1  1  0  0  0
  3  4  1  0  0  0  0
  3  5  1  0  0  0  0
  5  6  1  6  0  0  0
  5  7  1  0  0  0  0
  7  8  1  0  0  0  0
  8  4  1  6  0  0  0
  8 19  1  0  0  0  0
  9 15  1  0  0  0  0
  9 10  1  0  0  0  0
 10 11  1  1  0  0  0
 10 12  1  0  0  0  0
 13 12  1  1  0  0  0
 13 14  1  0  0  0  0
 13 19  1  0  0  0  0
 14 15  1  1  0  0  0
 14 17  1  0  0  0  0
 15 16  2  0  0  0  0
 17 18  1  0  0  0  0
 19 18  1  1  0  0  0
M  END
>  <CHROM.1>
-59.12573997,-113.38999404,19.02541805,27.79880043,36.81971678,0.74252517
1.06637092,-0.40675193

>  <Name>
ligand

>  <RI>
0

>  <Rbt.Current_Directory>
/home/itssahil/PROJECTS/Mol_Feturizer/New_Systems/rnas/3SKL

>  <Rbt.Executable>
rbdock ($Id: //depot/dev/client3/rdock/2013.1/src/exe/rbdock.cxx#4 $)

>  <Rbt.Library>
libRbt.so (2013.1, Build901 2013/11/27)

>  <Rbt.Parameter_File>
/export/apps/rDock/src/rDock_2013.1_src/data/scripts/dock_solv.prm

>  <Rbt.Receptor>
prm/pocket_docking_5.prm

>  <SCORE>
-13.2343

>  <SCORE.INTER>
-12.721

>  <SCORE.INTER.CONST>
1

>  <SCORE.INTER.POLAR>
0

>  <SCORE.INTER.ROT>
2

>  <SCORE.INTER.SOLV>
12.5705

>  <SCORE.INTER.VDW>
-17.6042

>  <SCORE.INTER.norm>
-0.669528

>  <SCORE.INTRA>
-0.513308

>  <SCORE.INTRA.DIHEDRAL>
-0.30315

>  <SCORE.INTRA.DIHEDRAL.0>
1.50031

>  <SCORE.INTRA.POLAR>
0

>  <SCORE.INTRA.POLAR.0>
0

>  <SCORE.INTRA.REPUL>
0

>  <SCORE.INTRA.REPUL.0>
0

>  <SCORE.INTRA.SOLV>
0.0377286

>  <SCORE.INTRA.SOLV.lig_0>
-37.9941

>  <SCORE.INTRA.VDW>
-0.380597

>  <SCORE.INTRA.VDW.0>
-0.964461

>  <SCORE.INTRA.norm>
-0.0270162

>  <SCORE.RESTR>
0

>  <SCORE.RESTR.CAVITY>
0

>  <SCORE.RESTR.norm>
0

>  <SCORE.SYSTEM>
0

>  <SCORE.SYSTEM.CONST>
0

>  <SCORE.SYSTEM.DIHEDRAL>
0

>  <SCORE.SYSTEM.SOLV>
0

>  <SCORE.SYSTEM.norm>
0

>  <SCORE.heavy>
19

>  <SCORE.norm>
-0.696544

>  <RMSD>
2.978

$$$$
ligand
 OpenBabel11021811483D
libRbt.so/2013.1/901 2013/11/27
 19 21  0  0  0  0  0  0  0  0999 V2000
   20.8854   30.4531   34.3649 C   0  0  0  0  0  0  0  0  0  0  0  0
   19.6347   30.8547   34.9507 O   0  0  0  0  0  0  0  0  0  0  0  0
   20.9693   28.9297   34.2226 C   0  0  1  0  0  0  0  0  0  0  0  0
   20.8296   28.2990   35.4954 O   0  0  0  0  0  0  0  0  0  0  0  0
   19.8671   28.3834   33.3351 C   0  0  1  0  0  0  0  0  0  0  0  0
   20.4405   27.4290   32.4406 O   0  0  0  0  0  0  0  0  0  0  0  0
   18.8898   27.6757   34.2460 C   0  0  0  0  0  0  0  0  0  0  0  0
   19.6349   27.5037   35.5571 C   0  0  2  0  0  0  0  0  0  0  0  0
   17.8628   25.9916   40.1757 N   0  0  0  0  0  0  0  0  0  0  0  0
   18.6108   25.3364   39.2555 C   0  0  2  0  0  0  0  0  0  0  0  0
   19.0214   24.0725   39.4917 N   0  0  0  0  0  0  0  0  0  0  0  0
   18.9666   25.9168   38.0900 N   0  0  0  0  0  0  0  0  0  0  0  0
   18.5929   27.1765   37.7870 C   0  0  1  0  0  0  0  0  0  0  0  0
   17.8281   27.9011   38.6719 C   0  0  1  0  0  0  0  0  0  0  0  0
   17.4447   27.2536   39.9507 C   0  0  0  0  0  0  0  0  0  0  0  0
   16.7481   27.8597   40.7945 O   0  0  0  0  0  0  0  0  0  0  0  0
   17.6047   29.1085   38.1254 N   0  0  0  0  0  0  0  0  0  0  0  0
   18.2243   29.1197   36.9226 C   0  0  0  0  0  0  0  0  0  0  0  0
   18.8254   27.9349   36.7280 N   0  0  1  0  0  0  0  0  0  0  0  0
  1  2  1  0  0  0  0
  3  1  1  1  0  0  0
  3  4  1  0  0  0  0
  3  5  1  0  0  0  0
  5  6  1  6  0  0  0
  5  7  1  0  0  0  0
  7  8  1  0  0  0  0
  8  4  1  6  0  0  0
  8 19  1  0  0  0  0
  9 15  1  0  0  0  0
  9 10  1  0  0  0  0
 10 11  1  1  0  0  0
 10 12  1  0  0  0  0
 13 12  1  1  0  0  0
 13 14  1  0  0  0  0
 13 19  1  0  0  0  0
 14 15  1  1  0  0  0
 14 17  1  0  0  0  0
 15 16  2  0  0  0  0
 17 18  1  0  0  0  0
 19 18  1  1  0  0  0
M  END
>  <CHROM.1>
-58.76285777,-113.73988070,19.02608517,27.78284395,36.81005406,0.72432686
1.07477658,-0.38792320

>  <Name>
ligand

>  <RI>
0

>  <Rbt.Current_Directory>
/home/itssahil/PROJECTS/Mol_Feturizer/New_Systems/rnas/3SKL

>  <Rbt.Executable>
rbdock ($Id: //depot/dev/client3/rdock/2013.1/src/exe/rbdock.cxx#4 $)

>  <Rbt.Library>
libRbt.so (2013.1, Build901 2013/11/27)

>  <Rbt.Parameter_File>
/export/apps/rDock/src/rDock_2013.1_src/data/scripts/dock_solv.prm

>  <Rbt.Receptor>
prm/pocket_docking_6.prm

>  <SCORE>
-13.202

>  <SCORE.INTER>
-12.6875

>  <SCORE.INTER.CONST>
1

>  <SCORE.INTER.POLAR>
0

>  <SCORE.INTER.ROT>
2

>  <SCORE.INTER.SOLV>
12.5666

>  <SCORE.INTER.VDW>
-17.5805

>  <SCORE.INTER.norm>
-0.667764

>  <SCORE.INTRA>
-0.514489

>  <SCORE.INTRA.DIHEDRAL>
-0.299837

>  <SCORE.INTRA.DIHEDRAL.0>
1.50031

>  <SCORE.INTRA.POLAR>
0

>  <SCORE.INTRA.POLAR.0>
0

>  <SCORE.INTRA.REPUL>
0

>  <SCORE.INTRA.REPUL.0>
0

>  <SCORE.INTRA.SOLV>
0.0388252

>  <SCORE.INTRA.SOLV.lig_0>
-37.9941

>  <SCORE.INTRA.VDW>
-0.383983

>  <SCORE.INTRA.VDW.0>
-0.964461

>  <SCORE.INTRA.norm>
-0.0270784

>  <SCORE.RESTR>
0

>  <SCORE.RESTR.CAVITY>
0

>  <SCORE.RESTR.norm>
0

>  <SCORE.SYSTEM>
0

>  <SCORE.SYSTEM.CONST>
0

>  <SCORE.SYSTEM.DIHEDRAL>
0

>  <SCORE.SYSTEM.SOLV>
0

>  <SCORE.SYSTEM.norm>
0

>  <SCORE.heavy>
19

>  <SCORE.norm>
-0.694842

>  <RMSD>
2.979

$$$$
ligand
 OpenBabel11021811483D
libRbt.so/2013.1/901 2013/11/27
 19 21  0  0  0  0  0  0  0  0999 V2000
   20.8736   30.4680   34.3882 C   0  0  0  0  0  0  0  0  0  0  0  0
   19.6293   30.8588   34.9946 O   0  0  0  0  0  0  0  0  0  0  0  0
   20.9697   28.9453   34.2470 C   0  0  1  0  0  0  0  0  0  0  0  0
   20.8229   28.3138   35.5187 O   0  0  0  0  0  0  0  0  0  0  0  0
   19.8795   28.3910   33.3497 C   0  0  1  0  0  0  0  0  0  0  0  0
   20.4677   27.4406   32.4606 O   0  0  0  0  0  0  0  0  0  0  0  0
   18.8990   27.6765   34.2519 C   0  0  0  0  0  0  0  0  0  0  0  0
   19.6334   27.5100   35.5697 C   0  0  2  0  0  0  0  0  0  0  0  0
   17.8546   25.9972   40.1854 N   0  0  0  0  0  0  0  0  0  0  0  0
   18.6179   25.3480   39.2736 C   0  0  2  0  0  0  0  0  0  0  0  0
   19.0455   24.0916   39.5193 N   0  0  0  0  0  0  0  0  0  0  0  0
   18.9725   25.9273   38.1071 N   0  0  0  0  0  0  0  0  0  0  0  0
   18.5823   27.1796   37.7948 C   0  0  1  0  0  0  0  0  0  0  0  0
   17.8014   27.8977   38.6709 C   0  0  1  0  0  0  0  0  0  0  0  0
   17.4194   27.2517   39.9509 C   0  0  0  0  0  0  0  0  0  0  0  0
   16.7087   27.8521   40.7869 O   0  0  0  0  0  0  0  0  0  0  0  0
   17.5637   29.0987   38.1164 N   0  0  0  0  0  0  0  0  0  0  0  0
   18.1907   29.1125   36.9174 C   0  0  0  0  0  0  0  0  0  0  0  0
   18.8103   27.9356   36.7331 N   0  0  1  0  0  0  0  0  0  0  0  0
  1  2  1  0  0  0  0
  3  1  1  1  0  0  0
  3  4  1  0  0  0  0
  3  5  1  0  0  0  0
  5  6  1  6  0  0  0
  5  7  1  0  0  0  0
  7  8  1  0  0  0  0
  8  4  1  6  0  0  0
  8 19  1  0  0  0  0
  9 15  1  0  0  0  0
  9 10  1  0  0  0  0
 10 11  1  1  0  0  0
 10 12  1  0  0  0  0
 13 12  1  1  0  0  0
 13 14  1  0  0  0  0
 13 19  1  0  0  0  0
 14 15  1  1  0  0  0
 14 17  1  0  0  0  0
 15 16  2  0  0  0  0
 17 18  1  0  0  0  0
 19 18  1  1  0  0  0
M  END
>  <CHROM.1>
-57.25388575,-113.18686483,19.01909734,27.78805330,36.82269891,0.73848072
1.06338314,-0.40413144

>  <Name>
ligand

>  <RI>
0

>  <Rbt.Current_Directory>
/home/itssahil/PROJECTS/Mol_Feturizer/New_Systems/rnas/3SKL

>  <Rbt.Executable>
rbdock ($Id: //depot/dev/client3/rdock/2013.1/src/exe/rbdock.cxx#4 $)

>  <Rbt.Library>
libRbt.so (2013.1, Build901 2013/11/27)

>  <Rbt.Parameter_File>
/export/apps/rDock/src/rDock_2013.1_src/data/scripts/dock_solv.prm

>  <Rbt.Receptor>
prm/pocket_docking_8.prm

>  <SCORE>
-13.2465

>  <SCORE.INTER>
-12.7429

>  <SCORE.INTER.CONST>
1

>  <SCORE.INTER.POLAR>
0

>  <SCORE.INTER.ROT>
2

>  <SCORE.INTER.SOLV>
12.5522

>  <SCORE.INTER.VDW>
-17.6127

>  <SCORE.INTER.norm>
-0.670677

>  <SCORE.INTRA>
-0.503609

>  <SCORE.INTRA.DIHEDRAL>
-0.278377

>  <SCORE.INTRA.DIHEDRAL.0>
1.50031

>  <SCORE.INTRA.POLAR>
0

>  <SCORE.INTRA.POLAR.0>
0

>  <SCORE.INTRA.REPUL>
0

>  <SCORE.INTRA.REPUL.0>
0

>  <SCORE.INTRA.SOLV>
0.0418535

>  <SCORE.INTRA.SOLV.lig_0>
-37.9941

>  <SCORE.INTRA.VDW>
-0.385347

>  <SCORE.INTRA.VDW.0>
-0.964461

>  <SCORE.INTRA.norm>
-0.0265057

>  <SCORE.RESTR>
0

>  <SCORE.RESTR.CAVITY>
0

>  <SCORE.RESTR.norm>
0

>  <SCORE.SYSTEM>
0

>  <SCORE.SYSTEM.CONST>
0

>  <SCORE.SYSTEM.DIHEDRAL>
0

>  <SCORE.SYSTEM.SOLV>
0

>  <SCORE.SYSTEM.norm>
0

>  <SCORE.heavy>
19

>  <SCORE.norm>
-0.697183

>  <RMSD>
2.979

$$$$
ligand
 OpenBabel11021811483D
libRbt.so/2013.1/901 2013/11/27
 19 21  0  0  0  0  0  0  0  0999 V2000
   20.8882   30.4667   34.3929 C   0  0  0  0  0  0  0  0  0  0  0  0
   19.6320   30.8582   34.9738 O   0  0  0  0  0  0  0  0  0  0  0  0
   20.9874   28.9437   34.2564 C   0  0  1  0  0  0  0  0  0  0  0  0
   20.8407   28.3158   35.5299 O   0  0  0  0  0  0  0  0  0  0  0  0
   19.8992   28.3846   33.3597 C   0  0  1  0  0  0  0  0  0  0  0  0
   20.4902   27.4326   32.4741 O   0  0  0  0  0  0  0  0  0  0  0  0
   18.9192   27.6709   34.2632 C   0  0  0  0  0  0  0  0  0  0  0  0
   19.6528   27.5099   35.5822 C   0  0  2  0  0  0  0  0  0  0  0  0
   17.8687   26.0057   40.1988 N   0  0  0  0  0  0  0  0  0  0  0  0
   18.6339   25.3552   39.2894 C   0  0  2  0  0  0  0  0  0  0  0  0
   19.0621   24.0997   39.5385 N   0  0  0  0  0  0  0  0  0  0  0  0
   18.9896   25.9322   38.1222 N   0  0  0  0  0  0  0  0  0  0  0  0
   18.5989   27.1835   37.8066 C   0  0  1  0  0  0  0  0  0  0  0  0
   17.8161   27.9029   38.6800 C   0  0  1  0  0  0  0  0  0  0  0  0
   17.4329   27.2594   39.9609 C   0  0  0  0  0  0  0  0  0  0  0  0
   16.7205   27.8610   40.7946 O   0  0  0  0  0  0  0  0  0  0  0  0
   17.5782   29.1024   38.1225 N   0  0  0  0  0  0  0  0  0  0  0  0
   18.2068   29.1141   36.9244 C   0  0  0  0  0  0  0  0  0  0  0  0
   18.8277   27.9374   36.7435 N   0  0  1  0  0  0  0  0  0  0  0  0
  1  2  1  0  0  0  0
  3  1  1  1  0  0  0
  3  4  1  0  0  0  0
  3  5  1  0  0  0  0
  5  6  1  6  0  0  0
  5  7  1  0  0  0  0
  7  8  1  0  0  0  0
  8  4  1  6  0  0  0
  8 19  1  0  0  0  0
  9 15  1  0  0  0  0
  9 10  1  0  0  0  0
 10 11  1  1  0  0  0
 10 12  1  0  0  0  0
 13 12  1  1  0  0  0
 13 14  1  0  0  0  0
 13 19  1  0  0  0  0
 14 15  1  1  0  0  0
 14 17  1  0  0  0  0
 15 16  2  0  0  0  0
 17 18  1  0  0  0  0
 19 18  1  1  0  0  0
M  END
>  <CHROM.1>
-58.34038141,-113.27315935,19.03496511,27.79004296,36.83178466,0.74266007
1.06111065,-0.41062152

>  <Name>
ligand

>  <RI>
0

>  <Rbt.Current_Directory>
/home/itssahil/PROJECTS/Mol_Feturizer/New_Systems/rnas/3SKL

>  <Rbt.Executable>
rbdock ($Id: //depot/dev/client3/rdock/2013.1/src/exe/rbdock.cxx#4 $)

>  <Rbt.Library>
libRbt.so (2013.1, Build901 2013/11/27)

>  <Rbt.Parameter_File>
/export/apps/rDock/src/rDock_2013.1_src/data/scripts/dock_solv.prm

>  <Rbt.Receptor>
prm/pocket_docking_7.prm

>  <SCORE>
-13.2325

>  <SCORE.INTER>
-12.7215

>  <SCORE.INTER.CONST>
1

>  <SCORE.INTER.POLAR>
0

>  <SCORE.INTER.ROT>
2

>  <SCORE.INTER.SOLV>
12.5477

>  <SCORE.INTER.VDW>
-17.5969

>  <SCORE.INTER.norm>
-0.669554

>  <SCORE.INTRA>
-0.510947

>  <SCORE.INTRA.DIHEDRAL>
-0.295867

>  <SCORE.INTRA.DIHEDRAL.0>
1.50031

>  <SCORE.INTRA.POLAR>
0

>  <SCORE.INTRA.POLAR.0>
0

>  <SCORE.INTRA.REPUL>
0

>  <SCORE.INTRA.REPUL.0>
0

>  <SCORE.INTRA.SOLV>
0.0395123

>  <SCORE.INTRA.SOLV.lig_0>
-37.9941

>  <SCORE.INTRA.VDW>
-0.38277

>  <SCORE.INTRA.VDW.0>
-0.964461

>  <SCORE.INTRA.norm>
-0.026892

>  <SCORE.RESTR>
0

>  <SCORE.RESTR.CAVITY>
0

>  <SCORE.RESTR.norm>
0

>  <SCORE.SYSTEM>
0

>  <SCORE.SYSTEM.CONST>
0

>  <SCORE.SYSTEM.DIHEDRAL>
0

>  <SCORE.SYSTEM.SOLV>
0

>  <SCORE.SYSTEM.norm>
0

>  <SCORE.heavy>
19

>  <SCORE.norm>
-0.696446

>  <RMSD>
2.981

$$$$
ligand
 OpenBabel11021811483D
libRbt.so/2013.1/901 2013/11/27
 19 21  0  0  0  0  0  0  0  0999 V2000
   20.9780   30.4338   34.4846 C   0  0  0  0  0  0  0  0  0  0  0  0
   19.7271   30.8667   35.0473 O   0  0  0  0  0  0  0  0  0  0  0  0
   21.0117   28.9121   34.3079 C   0  0  1  0  0  0  0  0  0  0  0  0
   20.8284   28.2576   35.5631 O   0  0  0  0  0  0  0  0  0  0  0  0
   19.9066   28.4253   33.3899 C   0  0  1  0  0  0  0  0  0  0  0  0
   20.4618   27.4722   32.4826 O   0  0  0  0  0  0  0  0  0  0  0  0
   18.8898   27.7314   34.2679 C   0  0  0  0  0  0  0  0  0  0  0  0
   19.6061   27.5034   35.5865 C   0  0  2  0  0  0  0  0  0  0  0  0
   17.8393   26.0059   40.2119 N   0  0  0  0  0  0  0  0  0  0  0  0
   18.5932   25.3506   39.2965 C   0  0  2  0  0  0  0  0  0  0  0  0
   19.0126   24.0912   39.5406 N   0  0  0  0  0  0  0  0  0  0  0  0
   18.9462   25.9267   38.1279 N   0  0  0  0  0  0  0  0  0  0  0  0
   18.5638   27.1818   37.8171 C   0  0  1  0  0  0  0  0  0  0  0  0
   17.7927   27.9061   38.6968 C   0  0  1  0  0  0  0  0  0  0  0  0
   17.4124   27.2635   39.9789 C   0  0  0  0  0  0  0  0  0  0  0  0
   16.7104   27.8695   40.8183 O   0  0  0  0  0  0  0  0  0  0  0  0
   17.5611   29.1086   38.1429 N   0  0  0  0  0  0  0  0  0  0  0  0
   18.1821   29.1172   36.9408 C   0  0  0  0  0  0  0  0  0  0  0  0
   18.7920   27.9357   36.7538 N   0  0  1  0  0  0  0  0  0  0  0  0
  1  2  1  0  0  0  0
  3  1  1  1  0  0  0
  3  4  1  0  0  0  0
  3  5  1  0  0  0  0
  5  6  1  6  0  0  0
  5  7  1  0  0  0  0
  7  8  1  0  0  0  0
  8  4  1  6  0  0  0
  8 19  1  0  0  0  0
  9 15  1  0  0  0  0
  9 10  1  0  0  0  0
 10 11  1  1  0  0  0
 10 12  1  0  0  0  0
 13 12  1  1  0  0  0
 13 14  1  0  0  0  0
 13 19  1  0  0  0  0
 14 15  1  1  0  0  0
 14 17  1  0  0  0  0
 15 16  2  0  0  0  0
 17 18  1  0  0  0  0
 19 18  1  1  0  0  0
M  END
>  <CHROM.1>
-59.32027260,-110.67425999,19.02414045,27.79124316,36.85567694,0.71319742
1.06414460,-0.37884072

>  <Name>
ligand

>  <RI>
0

>  <Rbt.Current_Directory>
/home/itssahil/PROJECTS/Mol_Feturizer/New_Systems/rnas/3SKL

>  <Rbt.Executable>
rbdock ($Id: //depot/dev/client3/rdock/2013.1/src/exe/rbdock.cxx#4 $)

>  <Rbt.Library>
libRbt.so (2013.1, Build901 2013/11/27)

>  <Rbt.Parameter_File>
/export/apps/rDock/src/rDock_2013.1_src/data/scripts/dock_solv.prm

>  <Rbt.Receptor>
prm/pocket_docking_5.prm

>  <SCORE>
-13.2455

>  <SCORE.INTER>
-12.7638

>  <SCORE.INTER.CONST>
1

>  <SCORE.INTER.POLAR>
0

>  <SCORE.INTER.ROT>
2

>  <SCORE.INTER.SOLV>
12.4336

>  <SCORE.INTER.VDW>
-17.5871

>  <SCORE.INTER.norm>
-0.671778

>  <SCORE.INTRA>
-0.481765

>  <SCORE.INTRA.DIHEDRAL>
-0.30757

>  <SCORE.INTRA.DIHEDRAL.0>
1.50031

>  <SCORE.INTRA.POLAR>
0

>  <SCORE.INTRA.POLAR.0>
0

>  <SCORE.INTRA.REPUL>
0

>  <SCORE.INTRA.REPUL.0>
0

>  <SCORE.INTRA.SOLV>
0.0353631

>  <SCORE.INTRA.SOLV.lig_0>
-37.9941

>  <SCORE.INTRA.VDW>
-0.345661

>  <SCORE.INTRA.VDW.0>
-0.964461

>  <SCORE.INTRA.norm>
-0.025356

>  <SCORE.RESTR>
0

>  <SCORE.RESTR.CAVITY>
0

>  <SCORE.RESTR.norm>
0

>  <SCORE.SYSTEM>
0

>  <SCORE.SYSTEM.CONST>
0

>  <SCORE.SYSTEM.DIHEDRAL>
0

>  <SCORE.SYSTEM.SOLV>
0

>  <SCORE.SYSTEM.norm>
0

>  <SCORE.heavy>
19

>  <SCORE.norm>
-0.697134

>  <RMSD>
2.991

$$$$
ligand
 OpenBabel11021811483D
libRbt.so/2013.1/901 2013/11/27
 19 21  0  0  0  0  0  0  0  0999 V2000
   21.0404   30.3923   34.4880 C   0  0  0  0  0  0  0  0  0  0  0  0
   21.3155   31.0633   33.2459 O   0  0  0  0  0  0  0  0  0  0  0  0
   21.0577   28.8700   34.3136 C   0  0  1  0  0  0  0  0  0  0  0  0
   20.8598   28.2195   35.5687 O   0  0  0  0  0  0  0  0  0  0  0  0
   19.9524   28.3945   33.3900 C   0  0  1  0  0  0  0  0  0  0  0  0
   20.5020   27.4338   32.4873 O   0  0  0  0  0  0  0  0  0  0  0  0
   18.9229   27.7136   34.2631 C   0  0  0  0  0  0  0  0  0  0  0  0
   19.6289   27.4793   35.5862 C   0  0  2  0  0  0  0  0  0  0  0  0
   17.8387   26.0178   40.2141 N   0  0  0  0  0  0  0  0  0  0  0  0
   18.5923   25.3534   39.3050 C   0  0  2  0  0  0  0  0  0  0  0  0
   19.0043   24.0932   39.5579 N   0  0  0  0  0  0  0  0  0  0  0  0
   18.9522   25.9209   38.1344 N   0  0  0  0  0  0  0  0  0  0  0  0
   18.5774   27.1761   37.8150 C   0  0  1  0  0  0  0  0  0  0  0  0
   17.8071   27.9095   38.6879 C   0  0  1  0  0  0  0  0  0  0  0  0
   17.4192   27.2763   39.9724 C   0  0  0  0  0  0  0  0  0  0  0  0
   16.7175   27.8908   40.8059 O   0  0  0  0  0  0  0  0  0  0  0  0
   17.5837   29.1099   38.1262 N   0  0  0  0  0  0  0  0  0  0  0  0
   18.2088   29.1083   36.9262 C   0  0  0  0  0  0  0  0  0  0  0  0
   18.8132   27.9226   36.7482 N   0  0  1  0  0  0  0  0  0  0  0  0
  1  2  1  0  0  0  0
  3  1  1  1  0  0  0
  3  4  1  0  0  0  0
  3  5  1  0  0  0  0
  5  6  1  6  0  0  0
  5  7  1  0  0  0  0
  7  8  1  0  0  0  0
  8  4  1  6  0  0  0
  8 19  1  0  0  0  0
  9 15  1  0  0  0  0
  9 10  1  0  0  0  0
 10 11  1  1  0  0  0
 10 12  1  0  0  0  0
 13 12  1  1  0  0  0
 13 14  1  0  0  0  0
 13 19  1  0  0  0  0
 14 15  1  1  0  0  0
 14 17  1  0  0  0  0
 15 16  2  0  0  0  0
 17 18  1  0  0  0  0
 19 18  1  1  0  0  0
M  END
>  <CHROM.1>
176.65808039,-110.22198713,19.14208913,27.79189198,36.74452421,0.64396555
1.05822917,-0.29808407

>  <Name>
ligand

>  <RI>
0

>  <Rbt.Current_Directory>
/home/itssahil/PROJECTS/Mol_Feturizer/New_Systems/rnas/3SKL

>  <Rbt.Executable>
rbdock ($Id: //depot/dev/client3/rdock/2013.1/src/exe/rbdock.cxx#4 $)

>  <Rbt.Library>
libRbt.so (2013.1, Build901 2013/11/27)

>  <Rbt.Parameter_File>
/export/apps/rDock/src/rDock_2013.1_src/data/scripts/dock_solv.prm

>  <Rbt.Receptor>
prm/blind_docking_80.prm

>  <SCORE>
-13.1494

>  <SCORE.INTER>
-12.7528

>  <SCORE.INTER.CONST>
1

>  <SCORE.INTER.POLAR>
0

>  <SCORE.INTER.ROT>
2

>  <SCORE.INTER.SOLV>
12.3711

>  <SCORE.INTER.VDW>
-17.5589

>  <SCORE.INTER.norm>
-0.671198

>  <SCORE.INTRA>
-0.396636

>  <SCORE.INTRA.DIHEDRAL>
-0.270698

>  <SCORE.INTRA.DIHEDRAL.0>
1.50031

>  <SCORE.INTRA.POLAR>
0

>  <SCORE.INTRA.POLAR.0>
0

>  <SCORE.INTRA.REPUL>
0

>  <SCORE.INTRA.REPUL.0>
0

>  <SCORE.INTRA.SOLV>
-0.475423

>  <SCORE.INTRA.SOLV.lig_0>
-37.9941

>  <SCORE.INTRA.VDW>
-0.0235753

>  <SCORE.INTRA.VDW.0>
-0.964461

>  <SCORE.INTRA.norm>
-0.0208756

>  <SCORE.RESTR>
0

>  <SCORE.RESTR.CAVITY>
0

>  <SCORE.RESTR.norm>
0

>  <SCORE.SYSTEM>
0

>  <SCORE.SYSTEM.CONST>
0

>  <SCORE.SYSTEM.DIHEDRAL>
0

>  <SCORE.SYSTEM.SOLV>
0

>  <SCORE.SYSTEM.norm>
0

>  <SCORE.heavy>
19

>  <SCORE.norm>
-0.692073

>  <RMSD>
3.029

$$$$
ligand
 OpenBabel11021811483D
libRbt.so/2013.1/901 2013/11/27
 19 21  0  0  0  0  0  0  0  0999 V2000
   20.8878   30.4531   34.3372 C   0  0  0  0  0  0  0  0  0  0  0  0
   21.9316   30.9574   35.1885 O   0  0  0  0  0  0  0  0  0  0  0  0
   20.9715   28.9295   34.1972 C   0  0  1  0  0  0  0  0  0  0  0  0
   20.8350   28.3009   35.4715 O   0  0  0  0  0  0  0  0  0  0  0  0
   19.8670   28.3817   33.3135 C   0  0  1  0  0  0  0  0  0  0  0  0
   20.4380   27.4258   32.4191 O   0  0  0  0  0  0  0  0  0  0  0  0
   18.8920   27.6755   34.2282 C   0  0  0  0  0  0  0  0  0  0  0  0
   19.6406   27.5058   35.5376 C   0  0  2  0  0  0  0  0  0  0  0  0
   17.8255   25.9777   40.1342 N   0  0  0  0  0  0  0  0  0  0  0  0
   18.5657   25.3191   39.2101 C   0  0  2  0  0  0  0  0  0  0  0  0
   18.9538   24.0461   39.4350 N   0  0  0  0  0  0  0  0  0  0  0  0
   18.9358   25.9051   38.0518 N   0  0  0  0  0  0  0  0  0  0  0  0
   18.5848   27.1739   37.7603 C   0  0  1  0  0  0  0  0  0  0  0  0
   17.8291   27.9025   38.6498 C   0  0  1  0  0  0  0  0  0  0  0  0
   17.4299   27.2489   39.9206 C   0  0  0  0  0  0  0  0  0  0  0  0
   16.7405   27.8583   40.7679 O   0  0  0  0  0  0  0  0  0  0  0  0
   17.6283   29.1190   38.1147 N   0  0  0  0  0  0  0  0  0  0  0  0
   18.2526   29.1317   36.9143 C   0  0  0  0  0  0  0  0  0  0  0  0
   18.8341   27.9389   36.7099 N   0  0  1  0  0  0  0  0  0  0  0  0
  1  2  1  0  0  0  0
  3  1  1  1  0  0  0
  3  4  1  0  0  0  0
  3  5  1  0  0  0  0
  5  6  1  6  0  0  0
  5  7  1  0  0  0  0
  7  8  1  0  0  0  0
  8  4  1  6  0  0  0
  8 19  1  0  0  0  0
  9 15  1  0  0  0  0
  9 10  1  0  0  0  0
 10 11  1  1  0  0  0
 10 12  1  0  0  0  0
 13 12  1  1  0  0  0
 13 14  1  0  0  0  0
 13 19  1  0  0  0  0
 14 15  1  1  0  0  0
 14 17  1  0  0  0  0
 15 16  2  0  0  0  0
 17 18  1  0  0  0  0
 19 18  1  1  0  0  0
M  END
>  <CHROM.1>
60.30580716,-114.98188820,19.15981847,27.78643662,36.79951023,0.32775324
1.11733313,0.06060623

>  <Name>
ligand

>  <RI>
0

>  <Rbt.Current_Directory>
/home/itssahil/PROJECTS/Mol_Feturizer/New_Systems/rnas/3SKL

>  <Rbt.Executable>
rbdock ($Id: //depot/dev/client3/rdock/2013.1/src/exe/rbdock.cxx#4 $)

>  <Rbt.Library>
libRbt.so (2013.1, Build901 2013/11/27)

>  <Rbt.Parameter_File>
/export/apps/rDock/src/rDock_2013.1_src/data/scripts/dock_solv.prm

>  <Rbt.Receptor>
prm/pocket_docking_6.prm

>  <SCORE>
-13.2154

>  <SCORE.INTER>
-12.6236

>  <SCORE.INTER.CONST>
1

>  <SCORE.INTER.POLAR>
0

>  <SCORE.INTER.ROT>
2

>  <SCORE.INTER.SOLV>
12.9921

>  <SCORE.INTER.VDW>
-17.6798

>  <SCORE.INTER.norm>
-0.6644

>  <SCORE.INTRA>
-0.591762

>  <SCORE.INTRA.DIHEDRAL>
-0.303754

>  <SCORE.INTRA.DIHEDRAL.0>
1.50031

>  <SCORE.INTRA.POLAR>
0

>  <SCORE.INTRA.POLAR.0>
0

>  <SCORE.INTRA.REPUL>
0

>  <SCORE.INTRA.REPUL.0>
0

>  <SCORE.INTRA.SOLV>
-0.55422

>  <SCORE.INTRA.SOLV.lig_0>
-37.9941

>  <SCORE.INTRA.VDW>
-0.162776

>  <SCORE.INTRA.VDW.0>
-0.964461

>  <SCORE.INTRA.norm>
-0.0311454

>  <SCORE.RESTR>
0

>  <SCORE.RESTR.CAVITY>
0

>  <SCORE.RESTR.norm>
0

>  <SCORE.SYSTEM>
0

>  <SCORE.SYSTEM.CONST>
0

>  <SCORE.SYSTEM.DIHEDRAL>
0

>  <SCORE.SYSTEM.SOLV>
0

>  <SCORE.SYSTEM.norm>
0

>  <SCORE.heavy>
19

>  <SCORE.norm>
-0.695545

>  <RMSD>
3.077

$$$$
ligand
 OpenBabel11021811483D
libRbt.so/2013.1/901 2013/11/27
 19 21  0  0  0  0  0  0  0  0999 V2000
   20.8794   30.4491   34.3638 C   0  0  0  0  0  0  0  0  0  0  0  0
   21.9094   30.9605   35.2277 O   0  0  0  0  0  0  0  0  0  0  0  0
   20.9746   28.9260   34.2258 C   0  0  1  0  0  0  0  0  0  0  0  0
   20.8266   28.2972   35.4986 O   0  0  0  0  0  0  0  0  0  0  0  0
   19.8846   28.3707   33.3289 C   0  0  1  0  0  0  0  0  0  0  0  0
   20.4727   27.4181   32.4421 O   0  0  0  0  0  0  0  0  0  0  0  0
   18.9030   27.6586   34.2320 C   0  0  0  0  0  0  0  0  0  0  0  0
   19.6366   27.4943   35.5506 C   0  0  2  0  0  0  0  0  0  0  0  0
   17.8746   26.0015   40.1793 N   0  0  0  0  0  0  0  0  0  0  0  0
   18.6401   25.3508   39.2703 C   0  0  2  0  0  0  0  0  0  0  0  0
   19.0753   24.0985   39.5235 N   0  0  0  0  0  0  0  0  0  0  0  0
   18.9893   25.9244   38.0994 N   0  0  0  0  0  0  0  0  0  0  0  0
   18.5913   27.1724   37.7797 C   0  0  1  0  0  0  0  0  0  0  0  0
   17.8078   27.8917   38.6525 C   0  0  1  0  0  0  0  0  0  0  0  0
   17.4318   27.2519   39.9373 C   0  0  0  0  0  0  0  0  0  0  0  0
   16.7191   27.8536   40.7706 O   0  0  0  0  0  0  0  0  0  0  0  0
   17.5622   29.0876   38.0905 N   0  0  0  0  0  0  0  0  0  0  0  0
   18.1870   29.0972   36.8903 C   0  0  0  0  0  0  0  0  0  0  0  0
   18.8131   27.9228   36.7126 N   0  0  1  0  0  0  0  0  0  0  0  0
  1  2  1  0  0  0  0
  3  1  1  1  0  0  0
  3  4  1  0  0  0  0
  3  5  1  0  0  0  0
  5  6  1  6  0  0  0
  5  7  1  0  0  0  0
  7  8  1  0  0  0  0
  8  4  1  6  0  0  0
  8 19  1  0  0  0  0
  9 15  1  0  0  0  0
  9 10  1  0  0  0  0
 10 11  1  1  0  0  0
 10 12  1  0  0  0  0
 13 12  1  1  0  0  0
 13 14  1  0  0  0  0
 13 19  1  0  0  0  0
 14 15  1  1  0  0  0
 14 17  1  0  0  0  0
 15 16  2  0  0  0  0
 17 18  1  0  0  0  0
 19 18  1  1  0  0  0
M  END
>  <CHROM.1>
60.30555186,-112.71647921,19.16689479,27.78523847,36.82163395,0.39316233
1.10970732,-0.01736227

>  <Name>
ligand

>  <RI>
0

>  <Rbt.Current_Directory>
/home/itssahil/PROJECTS/Mol_Feturizer/New_Systems/rnas/3SKL

>  <Rbt.Executable>
rbdock ($Id: //depot/dev/client3/rdock/2013.1/src/exe/rbdock.cxx#4 $)

>  <Rbt.Library>
libRbt.so (2013.1, Build901 2013/11/27)

>  <Rbt.Parameter_File>
/export/apps/rDock/src/rDock_2013.1_src/data/scripts/dock_solv.prm

>  <Rbt.Receptor>
prm/pocket_docking_8.prm

>  <SCORE>
-13.1918

>  <SCORE.INTER>
-12.6176

>  <SCORE.INTER.CONST>
1

>  <SCORE.INTER.POLAR>
0

>  <SCORE.INTER.ROT>
2

>  <SCORE.INTER.SOLV>
12.9559

>  <SCORE.INTER.VDW>
-17.6637

>  <SCORE.INTER.norm>
-0.664084

>  <SCORE.INTRA>
-0.574243

>  <SCORE.INTRA.DIHEDRAL>
-0.306577

>  <SCORE.INTRA.DIHEDRAL.0>
1.50031

>  <SCORE.INTRA.POLAR>
0

>  <SCORE.INTRA.POLAR.0>
0

>  <SCORE.INTRA.REPUL>
0

>  <SCORE.INTRA.REPUL.0>
0

>  <SCORE.INTRA.SOLV>
-0.554363

>  <SCORE.INTRA.SOLV.lig_0>
-37.9941

>  <SCORE.INTRA.VDW>
-0.143773

>  <SCORE.INTRA.VDW.0>
-0.964461

>  <SCORE.INTRA.norm>
-0.0302233

>  <SCORE.RESTR>
0

>  <SCORE.RESTR.CAVITY>
0

>  <SCORE.RESTR.norm>
0

>  <SCORE.SYSTEM>
0

>  <SCORE.SYSTEM.CONST>
0

>  <SCORE.SYSTEM.DIHEDRAL>
0

>  <SCORE.SYSTEM.SOLV>
0

>  <SCORE.SYSTEM.norm>
0

>  <SCORE.heavy>
19

>  <SCORE.norm>
-0.694308

>  <RMSD>
3.077

$$$$
ligand
 OpenBabel11021811483D
libRbt.so/2013.1/901 2013/11/27
 19 21  0  0  0  0  0  0  0  0999 V2000
   20.8714   30.4762   34.3605 C   0  0  0  0  0  0  0  0  0  0  0  0
   21.9060   30.9988   35.2120 O   0  0  0  0  0  0  0  0  0  0  0  0
   20.9754   28.9532   34.2290 C   0  0  1  0  0  0  0  0  0  0  0  0
   20.8381   28.3293   35.5055 O   0  0  0  0  0  0  0  0  0  0  0  0
   19.8843   28.3868   33.3404 C   0  0  1  0  0  0  0  0  0  0  0  0
   20.4739   27.4338   32.4550 O   0  0  0  0  0  0  0  0  0  0  0  0
   18.9120   27.6728   34.2519 C   0  0  0  0  0  0  0  0  0  0  0  0
   19.6534   27.5193   35.5674 C   0  0  2  0  0  0  0  0  0  0  0  0
   17.8683   26.0105   40.1820 N   0  0  0  0  0  0  0  0  0  0  0  0
   18.6277   25.3583   39.2690 C   0  0  2  0  0  0  0  0  0  0  0  0
   19.0484   24.0992   39.5129 N   0  0  0  0  0  0  0  0  0  0  0  0
   18.9849   25.9370   38.1031 N   0  0  0  0  0  0  0  0  0  0  0  0
   18.6015   27.1919   37.7926 C   0  0  1  0  0  0  0  0  0  0  0  0
   17.8250   27.9132   38.6699 C   0  0  1  0  0  0  0  0  0  0  0  0
   17.4400   27.2677   39.9492 C   0  0  0  0  0  0  0  0  0  0  0  0
   16.7330   27.8709   40.7864 O   0  0  0  0  0  0  0  0  0  0  0  0
   17.5937   29.1161   38.1170 N   0  0  0  0  0  0  0  0  0  0  0  0
   18.2202   29.1280   36.9177 C   0  0  0  0  0  0  0  0  0  0  0  0
   18.8332   27.9480   36.7317 N   0  0  1  0  0  0  0  0  0  0  0  0
  1  2  1  0  0  0  0
  3  1  1  1  0  0  0
  3  4  1  0  0  0  0
  3  5  1  0  0  0  0
  5  6  1  6  0  0  0
  5  7  1  0  0  0  0
  7  8  1  0  0  0  0
  8  4  1  6  0  0  0
  8 19  1  0  0  0  0
  9 15  1  0  0  0  0
  9 10  1  0  0  0  0
 10 11  1  1  0  0  0
 10 12  1  0  0  0  0
 13 12  1  1  0  0  0
 13 14  1  0  0  0  0
 13 19  1  0  0  0  0
 14 15  1  1  0  0  0
 14 17  1  0  0  0  0
 15 16  2  0  0  0  0
 17 18  1  0  0  0  0
 19 18  1  1  0  0  0
M  END
>  <CHROM.1>
60.55144325,-114.00704803,19.17257020,27.80563465,36.83066243,0.37878602
1.11262992,0.00173023

>  <Name>
ligand

>  <RI>
0

>  <Rbt.Current_Directory>
/home/itssahil/PROJECTS/Mol_Feturizer/New_Systems/rnas/3SKL

>  <Rbt.Executable>
rbdock ($Id: //depot/dev/client3/rdock/2013.1/src/exe/rbdock.cxx#4 $)

>  <Rbt.Library>
libRbt.so (2013.1, Build901 2013/11/27)

>  <Rbt.Parameter_File>
/export/apps/rDock/src/rDock_2013.1_src/data/scripts/dock_solv.prm

>  <Rbt.Receptor>
prm/blind_docking_60.prm

>  <SCORE>
-13.2196

>  <SCORE.INTER>
-12.6349

>  <SCORE.INTER.CONST>
1

>  <SCORE.INTER.POLAR>
0

>  <SCORE.INTER.ROT>
2

>  <SCORE.INTER.SOLV>
12.8689

>  <SCORE.INTER.VDW>
-17.6463

>  <SCORE.INTER.norm>
-0.664996

>  <SCORE.INTRA>
-0.584673

>  <SCORE.INTRA.DIHEDRAL>
-0.304145

>  <SCORE.INTRA.DIHEDRAL.0>
1.50031

>  <SCORE.INTRA.POLAR>
0

>  <SCORE.INTRA.POLAR.0>
0

>  <SCORE.INTRA.REPUL>
0

>  <SCORE.INTRA.REPUL.0>
0

>  <SCORE.INTRA.SOLV>
-0.555498

>  <SCORE.INTRA.SOLV.lig_0>
-37.9941

>  <SCORE.INTRA.VDW>
-0.154851

>  <SCORE.INTRA.VDW.0>
-0.964461

>  <SCORE.INTRA.norm>
-0.0307722

>  <SCORE.RESTR>
0

>  <SCORE.RESTR.CAVITY>
0

>  <SCORE.RESTR.norm>
0

>  <SCORE.SYSTEM>
0

>  <SCORE.SYSTEM.CONST>
0

>  <SCORE.SYSTEM.DIHEDRAL>
0

>  <SCORE.SYSTEM.SOLV>
0

>  <SCORE.SYSTEM.norm>
0

>  <SCORE.heavy>
19

>  <SCORE.norm>
-0.695768

>  <RMSD>
3.078

$$$$
ligand
 OpenBabel11021811483D
libRbt.so/2013.1/901 2013/11/27
 19 21  0  0  0  0  0  0  0  0999 V2000
   20.9039   30.4299   34.3305 C   0  0  0  0  0  0  0  0  0  0  0  0
   21.9533   30.9294   35.1779 O   0  0  0  0  0  0  0  0  0  0  0  0
   20.9795   28.9059   34.1909 C   0  0  1  0  0  0  0  0  0  0  0  0
   20.8475   28.2786   35.4663 O   0  0  0  0  0  0  0  0  0  0  0  0
   19.8674   28.3629   33.3139 C   0  0  1  0  0  0  0  0  0  0  0  0
   20.4287   27.4038   32.4167 O   0  0  0  0  0  0  0  0  0  0  0  0
   18.8944   27.6617   34.2346 C   0  0  0  0  0  0  0  0  0  0  0  0
   19.6498   27.4891   35.5398 C   0  0  2  0  0  0  0  0  0  0  0  0
   17.8102   25.9543   40.1244 N   0  0  0  0  0  0  0  0  0  0  0  0
   18.5377   25.2904   39.1940 C   0  0  2  0  0  0  0  0  0  0  0  0
   18.9026   24.0086   39.4074 N   0  0  0  0  0  0  0  0  0  0  0  0
   18.9176   25.8796   38.0405 N   0  0  0  0  0  0  0  0  0  0  0  0
   18.5896   27.1572   37.7604 C   0  0  1  0  0  0  0  0  0  0  0  0
   17.8480   27.8917   38.6568 C   0  0  1  0  0  0  0  0  0  0  0  0
   17.4377   27.2344   39.9222 C   0  0  0  0  0  0  0  0  0  0  0  0
   16.7602   27.8488   40.7754 O   0  0  0  0  0  0  0  0  0  0  0  0
   17.6691   29.1162   38.1325 N   0  0  0  0  0  0  0  0  0  0  0  0
   18.2927   29.1281   36.9318 C   0  0  0  0  0  0  0  0  0  0  0  0
   18.8522   27.9266   36.7164 N   0  0  1  0  0  0  0  0  0  0  0  0
  1  2  1  0  0  0  0
  3  1  1  1  0  0  0
  3  4  1  0  0  0  0
  3  5  1  0  0  0  0
  5  6  1  6  0  0  0
  5  7  1  0  0  0  0
  7  8  1  0  0  0  0
  8  4  1  6  0  0  0
  8 19  1  0  0  0  0
  9 15  1  0  0  0  0
  9 10  1  0  0  0  0
 10 11  1  1  0  0  0
 10 12  1  0  0  0  0
 13 12  1  1  0  0  0
 13 14  1  0  0  0  0
 13 19  1  0  0  0  0
 14 15  1  1  0  0  0
 14 17  1  0  0  0  0
 15 16  2  0  0  0  0
 17 18  1  0  0  0  0
 19 18  1  1  0  0  0
M  END
>  <CHROM.1>
60.18226169,-115.96599842,19.16503053,27.76764489,36.79781649,0.29462374
1.12014237,0.09774339

>  <Name>
ligand

>  <RI>
0

>  <Rbt.Current_Directory>
/home/itssahil/PROJECTS/Mol_Feturizer/New_Systems/rnas/3SKL

>  <Rbt.Executable>
rbdock ($Id: //depot/dev/client3/rdock/2013.1/src/exe/rbdock.cxx#4 $)

>  <Rbt.Library>
libRbt.so (2013.1, Build901 2013/11/27)

>  <Rbt.Parameter_File>
/export/apps/rDock/src/rDock_2013.1_src/data/scripts/dock_solv.prm

>  <Rbt.Receptor>
prm/blind_docking_100.prm

>  <SCORE>
-13.1751

>  <SCORE.INTER>
-12.5766

>  <SCORE.INTER.CONST>
1

>  <SCORE.INTER.POLAR>
0

>  <SCORE.INTER.ROT>
2

>  <SCORE.INTER.SOLV>
13.1021

>  <SCORE.INTER.VDW>
-17.6851

>  <SCORE.INTER.norm>
-0.661924

>  <SCORE.INTRA>
-0.598587

>  <SCORE.INTRA.DIHEDRAL>
-0.302754

>  <SCORE.INTRA.DIHEDRAL.0>
1.50031

>  <SCORE.INTRA.POLAR>
0

>  <SCORE.INTRA.POLAR.0>
0

>  <SCORE.INTRA.REPUL>
0

>  <SCORE.INTRA.REPUL.0>
0

>  <SCORE.INTRA.SOLV>
-0.553552

>  <SCORE.INTRA.SOLV.lig_0>
-37.9941

>  <SCORE.INTRA.VDW>
-0.170434

>  <SCORE.INTRA.VDW.0>
-0.964461

>  <SCORE.INTRA.norm>
-0.0315046

>  <SCORE.RESTR>
0

>  <SCORE.RESTR.CAVITY>
0

>  <SCORE.RESTR.norm>
0

>  <SCORE.SYSTEM>
0

>  <SCORE.SYSTEM.CONST>
0

>  <SCORE.SYSTEM.DIHEDRAL>
0

>  <SCORE.SYSTEM.SOLV>
0

>  <SCORE.SYSTEM.norm>
0

>  <SCORE.heavy>
19

>  <SCORE.norm>
-0.693428

>  <RMSD>
3.079

$$$$
ligand
 OpenBabel11021811483D
libRbt.so/2013.1/901 2013/11/27
 19 21  0  0  0  0  0  0  0  0999 V2000
   20.8867   30.4533   34.3624 C   0  0  0  0  0  0  0  0  0  0  0  0
   21.9191   30.9684   35.2212 O   0  0  0  0  0  0  0  0  0  0  0  0
   20.9821   28.9298   34.2298 C   0  0  1  0  0  0  0  0  0  0  0  0
   20.8396   28.3057   35.5056 O   0  0  0  0  0  0  0  0  0  0  0  0
   19.8887   28.3705   33.3395 C   0  0  1  0  0  0  0  0  0  0  0  0
   20.4737   27.4148   32.4539 O   0  0  0  0  0  0  0  0  0  0  0  0
   18.9112   27.6614   34.2493 C   0  0  0  0  0  0  0  0  0  0  0  0
   19.6502   27.5025   35.5655 C   0  0  2  0  0  0  0  0  0  0  0  0
   17.8403   25.9955   40.1710 N   0  0  0  0  0  0  0  0  0  0  0  0
   18.5958   25.3393   39.2577 C   0  0  2  0  0  0  0  0  0  0  0  0
   19.0043   24.0756   39.4987 N   0  0  0  0  0  0  0  0  0  0  0  0
   18.9611   25.9184   38.0945 N   0  0  0  0  0  0  0  0  0  0  0  0
   18.5900   27.1778   37.7871 C   0  0  1  0  0  0  0  0  0  0  0  0
   17.8180   27.9034   38.6649 C   0  0  1  0  0  0  0  0  0  0  0  0
   17.4241   27.2573   39.9413 C   0  0  0  0  0  0  0  0  0  0  0  0
   16.7206   27.8644   40.7786 O   0  0  0  0  0  0  0  0  0  0  0  0
   17.5991   29.1101   38.1153 N   0  0  0  0  0  0  0  0  0  0  0  0
   18.2285   29.1200   36.9176 C   0  0  0  0  0  0  0  0  0  0  0  0
   18.8312   27.9350   36.7292 N   0  0  1  0  0  0  0  0  0  0  0  0
  1  2  1  0  0  0  0
  3  1  1  1  0  0  0
  3  4  1  0  0  0  0
  3  5  1  0  0  0  0
  5  6  1  6  0  0  0
  5  7  1  0  0  0  0
  7  8  1  0  0  0  0
  8  4  1  6  0  0  0
  8 19  1  0  0  0  0
  9 15  1  0  0  0  0
  9 10  1  0  0  0  0
 10 11  1  1  0  0  0
 10 12  1  0  0  0  0
 13 12  1  1  0  0  0
 13 14  1  0  0  0  0
 13 19  1  0  0  0  0
 14 15  1  1  0  0  0
 14 17  1  0  0  0  0
 15 16  2  0  0  0  0
 17 18  1  0  0  0  0
 19 18  1  1  0  0  0
M  END
>  <CHROM.1>
60.24774900,-114.25322884,19.16623402,27.78921612,36.82715443,0.36025479
1.11108929,0.02113495

>  <Name>
ligand

>  <RI>
0

>  <Rbt.Current_Directory>
/home/itssahil/PROJECTS/Mol_Feturizer/New_Systems/rnas/3SKL

>  <Rbt.Executable>
rbdock ($Id: //depot/dev/client3/rdock/2013.1/src/exe/rbdock.cxx#4 $)

>  <Rbt.Library>
libRbt.so (2013.1, Build901 2013/11/27)

>  <Rbt.Parameter_File>
/export/apps/rDock/src/rDock_2013.1_src/data/scripts/dock_solv.prm

>  <Rbt.Receptor>
prm/pocket_docking_8.prm

>  <SCORE>
-13.2373

>  <SCORE.INTER>
-12.6511

>  <SCORE.INTER.CONST>
1

>  <SCORE.INTER.POLAR>
0

>  <SCORE.INTER.ROT>
2

>  <SCORE.INTER.SOLV>
12.8689

>  <SCORE.INTER.VDW>
-17.657

>  <SCORE.INTER.norm>
-0.665847

>  <SCORE.INTRA>
-0.58625

>  <SCORE.INTRA.DIHEDRAL>
-0.304806

>  <SCORE.INTRA.DIHEDRAL.0>
1.50031

>  <SCORE.INTRA.POLAR>
0

>  <SCORE.INTRA.POLAR.0>
0

>  <SCORE.INTRA.REPUL>
0

>  <SCORE.INTRA.REPUL.0>
0

>  <SCORE.INTRA.SOLV>
-0.553975

>  <SCORE.INTRA.SOLV.lig_0>
-37.9941

>  <SCORE.INTRA.VDW>
-0.156859

>  <SCORE.INTRA.VDW.0>
-0.964461

>  <SCORE.INTRA.norm>
-0.0308553

>  <SCORE.RESTR>
0

>  <SCORE.RESTR.CAVITY>
0

>  <SCORE.RESTR.norm>
0

>  <SCORE.SYSTEM>
0

>  <SCORE.SYSTEM.CONST>
0

>  <SCORE.SYSTEM.DIHEDRAL>
0

>  <SCORE.SYSTEM.SOLV>
0

>  <SCORE.SYSTEM.norm>
0

>  <SCORE.heavy>
19

>  <SCORE.norm>
-0.696702

>  <RMSD>
3.079

$$$$
ligand
 OpenBabel11021811483D
libRbt.so/2013.1/901 2013/11/27
 19 21  0  0  0  0  0  0  0  0999 V2000
   20.8848   30.4571   34.3733 C   0  0  0  0  0  0  0  0  0  0  0  0
   21.9192   30.9730   35.2292 O   0  0  0  0  0  0  0  0  0  0  0  0
   20.9821   28.9338   34.2389 C   0  0  1  0  0  0  0  0  0  0  0  0
   20.8371   28.3079   35.5135 O   0  0  0  0  0  0  0  0  0  0  0  0
   19.8917   28.3746   33.3450 C   0  0  1  0  0  0  0  0  0  0  0  0
   20.4800   27.4207   32.4597 O   0  0  0  0  0  0  0  0  0  0  0  0
   18.9126   27.6632   34.2513 C   0  0  0  0  0  0  0  0  0  0  0  0
   19.6484   27.5033   35.5692 C   0  0  2  0  0  0  0  0  0  0  0  0
   17.8293   25.9886   40.1686 N   0  0  0  0  0  0  0  0  0  0  0  0
   18.5879   25.3344   39.2564 C   0  0  2  0  0  0  0  0  0  0  0  0
   18.9976   24.0711   39.4969 N   0  0  0  0  0  0  0  0  0  0  0  0
   18.9553   25.9154   38.0947 N   0  0  0  0  0  0  0  0  0  0  0  0
   18.5832   27.1746   37.7879 C   0  0  1  0  0  0  0  0  0  0  0  0
   17.8081   27.8981   38.6646 C   0  0  1  0  0  0  0  0  0  0  0  0
   17.4119   27.2501   39.9393 C   0  0  0  0  0  0  0  0  0  0  0  0
   16.7056   27.8553   40.7756 O   0  0  0  0  0  0  0  0  0  0  0  0
   17.5889   29.1053   38.1158 N   0  0  0  0  0  0  0  0  0  0  0  0
   18.2213   29.1174   36.9197 C   0  0  0  0  0  0  0  0  0  0  0  0
   18.8260   27.9334   36.7314 N   0  0  1  0  0  0  0  0  0  0  0  0
  1  2  1  0  0  0  0
  3  1  1  1  0  0  0
  3  4  1  0  0  0  0
  3  5  1  0  0  0  0
  5  6  1  6  0  0  0
  5  7  1  0  0  0  0
  7  8  1  0  0  0  0
  8  4  1  6  0  0  0
  8 19  1  0  0  0  0
  9 15  1  0  0  0  0
  9 10  1  0  0  0  0
 10 11  1  1  0  0  0
 10 12  1  0  0  0  0
 13 12  1  1  0  0  0
 13 14  1  0  0  0  0
 13 19  1  0  0  0  0
 14 15  1  1  0  0  0
 14 17  1  0  0  0  0
 15 16  2  0  0  0  0
 17 18  1  0  0  0  0
 19 18  1  1  0  0  0
M  END
>  <CHROM.1>
60.58409093,-114.23334974,19.16147101,27.78800402,36.82980401,0.36326838
1.10845588,0.01968389

>  <Name>
ligand

>  <RI>
0

>  <Rbt.Current_Directory>
/home/itssahil/PROJECTS/Mol_Feturizer/New_Systems/rnas/3SKL

>  <Rbt.Executable>
rbdock ($Id: //depot/dev/client3/rdock/2013.1/src/exe/rbdock.cxx#4 $)

>  <Rbt.Library>
libRbt.so (2013.1, Build901 2013/11/27)

>  <Rbt.Parameter_File>
/export/apps/rDock/src/rDock_2013.1_src/data/scripts/dock_solv.prm

>  <Rbt.Receptor>
prm/pocket_docking_8.prm

>  <SCORE>
-13.2645

>  <SCORE.INTER>
-12.6781

>  <SCORE.INTER.CONST>
1

>  <SCORE.INTER.POLAR>
0

>  <SCORE.INTER.ROT>
2

>  <SCORE.INTER.SOLV>
12.8793

>  <SCORE.INTER.VDW>
-17.6785

>  <SCORE.INTER.norm>
-0.66727

>  <SCORE.INTRA>
-0.586411

>  <SCORE.INTRA.DIHEDRAL>
-0.303718

>  <SCORE.INTRA.DIHEDRAL.0>
1.50031

>  <SCORE.INTRA.POLAR>
0

>  <SCORE.INTRA.POLAR.0>
0

>  <SCORE.INTRA.REPUL>
0

>  <SCORE.INTRA.REPUL.0>
0

>  <SCORE.INTRA.SOLV>
-0.555646

>  <SCORE.INTRA.SOLV.lig_0>
-37.9941

>  <SCORE.INTRA.VDW>
-0.156729

>  <SCORE.INTRA.VDW.0>
-0.964461

>  <SCORE.INTRA.norm>
-0.0308637

>  <SCORE.RESTR>
0

>  <SCORE.RESTR.CAVITY>
0

>  <SCORE.RESTR.norm>
0

>  <SCORE.SYSTEM>
0

>  <SCORE.SYSTEM.CONST>
0

>  <SCORE.SYSTEM.DIHEDRAL>
0

>  <SCORE.SYSTEM.SOLV>
0

>  <SCORE.SYSTEM.norm>
0

>  <SCORE.heavy>
19

>  <SCORE.norm>
-0.698134

>  <RMSD>
3.080

$$$$
ligand
 OpenBabel11021811483D
libRbt.so/2013.1/901 2013/11/27
 19 21  0  0  0  0  0  0  0  0999 V2000
   18.9311   28.4998   37.8071 C   0  0  0  0  0  0  0  0  0  0  0  0
   18.9747   27.8541   36.5226 O   0  0  0  0  0  0  0  0  0  0  0  0
   17.5975   28.2397   38.5155 C   0  0  1  0  0  0  0  0  0  0  0  0
   17.3939   26.8393   38.7022 O   0  0  0  0  0  0  0  0  0  0  0  0
   17.5536   28.8800   39.8900 C   0  0  1  0  0  0  0  0  0  0  0  0
   16.2890   29.5251   40.0462 O   0  0  0  0  0  0  0  0  0  0  0  0
   17.6569   27.7545   40.8943 C   0  0  0  0  0  0  0  0  0  0  0  0
   17.3753   26.4944   40.0965 C   0  0  2  0  0  0  0  0  0  0  0  0
   20.7235   24.6713   43.5927 N   0  0  0  0  0  0  0  0  0  0  0  0
   19.8949   25.7424   43.6335 C   0  0  2  0  0  0  0  0  0  0  0  0
   19.8553   26.5269   44.7310 N   0  0  0  0  0  0  0  0  0  0  0  0
   19.0922   26.0557   42.5945 N   0  0  0  0  0  0  0  0  0  0  0  0
   19.0785   25.3168   41.4667 C   0  0  1  0  0  0  0  0  0  0  0  0
   19.8973   24.2170   41.3523 C   0  0  1  0  0  0  0  0  0  0  0  0
   20.7739   23.8811   42.5013 C   0  0  0  0  0  0  0  0  0  0  0  0
   21.5425   22.8953   42.4567 O   0  0  0  0  0  0  0  0  0  0  0  0
   19.6827   23.6719   40.1426 N   0  0  0  0  0  0  0  0  0  0  0  0
   18.7460   24.4298   39.5271 C   0  0  0  0  0  0  0  0  0  0  0  0
   18.3839   25.4302   40.3462 N   0  0  1  0  0  0  0  0  0  0  0  0
  1  2  1  0  0  0  0
  3  1  1  1  0  0  0
  3  4  1  0  0  0  0
  3  5  1  0  0  0  0
  5  6  1  1  0  0  0
  5  7  1  0  0  0  0
  7  8  1  0  0  0  0
  8  4  1  6  0  0  0
  8 19  1  0  0  0  0
  9 15  1  0  0  0  0
  9 10  1  0  0  0  0
 10 11  1  1  0  0  0
 10 12  1  0  0  0  0
 13 12  1  1  0  0  0
 13 14  1  0  0  0  0
 13 19  1  0  0  0  0
 14 15  1  1  0  0  0
 14 17  1  0  0  0  0
 15 16  2  0  0  0  0
 17 18  1  0  0  0  0
 19 18  1  1  0  0  0
M  END
>  <CHROM.1>
59.19016185,146.49462413,18.89364886,26.20872101,40.71809144,-2.55864350
-1.02983748,1.39423333

>  <Name>
ligand

>  <RI>
0

>  <Rbt.Current_Directory>
/home/itssahil/PROJECTS/Mol_Feturizer/New_Systems/rnas/3SKL

>  <Rbt.Executable>
rbdock ($Id: //depot/dev/client3/rdock/2013.1/src/exe/rbdock.cxx#4 $)

>  <Rbt.Library>
libRbt.so (2013.1, Build901 2013/11/27)

>  <Rbt.Parameter_File>
/export/apps/rDock/src/rDock_2013.1_src/data/scripts/dock_solv.prm

>  <Rbt.Receptor>
prm/blind_docking_60.prm

>  <SCORE>
-15.3707

>  <SCORE.INTER>
-16.0262

>  <SCORE.INTER.CONST>
1

>  <SCORE.INTER.POLAR>
0

>  <SCORE.INTER.ROT>
2

>  <SCORE.INTER.SOLV>
22.245

>  <SCORE.INTER.VDW>
-23.0325

>  <SCORE.INTER.norm>
-0.843482

>  <SCORE.INTRA>
0.655485

>  <SCORE.INTRA.DIHEDRAL>
-0.320499

>  <SCORE.INTRA.DIHEDRAL.0>
1.50031

>  <SCORE.INTRA.POLAR>
0

>  <SCORE.INTRA.POLAR.0>
0

>  <SCORE.INTRA.REPUL>
0

>  <SCORE.INTRA.REPUL.0>
0

>  <SCORE.INTRA.SOLV>
-0.436479

>  <SCORE.INTRA.SOLV.lig_0>
-37.9941

>  <SCORE.INTRA.VDW>
1.03397

>  <SCORE.INTRA.VDW.0>
-0.964461

>  <SCORE.INTRA.norm>
0.0344992

>  <SCORE.RESTR>
0

>  <SCORE.RESTR.CAVITY>
0

>  <SCORE.RESTR.norm>
0

>  <SCORE.SYSTEM>
0

>  <SCORE.SYSTEM.CONST>
0

>  <SCORE.SYSTEM.DIHEDRAL>
0

>  <SCORE.SYSTEM.SOLV>
0

>  <SCORE.SYSTEM.norm>
0

>  <SCORE.heavy>
19

>  <SCORE.norm>
-0.808983

>  <RMSD>
5.034

$$$$
ligand
 OpenBabel11021811483D
libRbt.so/2013.1/901 2013/11/27
 19 21  0  0  0  0  0  0  0  0999 V2000
   19.1499   31.0650   34.6029 C   0  0  0  0  0  0  0  0  0  0  0  0
   18.4748   30.4484   35.7131 O   0  0  0  0  0  0  0  0  0  0  0  0
   20.6076   30.6017   34.5112 C   0  0  1  0  0  0  0  0  0  0  0  0
   20.6753   29.1808   34.3932 O   0  0  0  0  0  0  0  0  0  0  0  0
   21.3091   31.1800   33.2970 C   0  0  1  0  0  0  0  0  0  0  0  0
   22.5991   31.6422   33.6996 O   0  0  0  0  0  0  0  0  0  0  0  0
   21.4804   30.0434   32.3148 C   0  0  0  0  0  0  0  0  0  0  0  0
   21.2266   28.7864   33.1267 C   0  0  2  0  0  0  0  0  0  0  0  0
   16.3248   27.1342   33.1109 N   0  0  0  0  0  0  0  0  0  0  0  0
   16.9550   28.0317   33.9064 C   0  0  2  0  0  0  0  0  0  0  0  0
   16.2749   28.6633   34.8863 N   0  0  0  0  0  0  0  0  0  0  0  0
   18.2637   28.3214   33.7474 N   0  0  0  0  0  0  0  0  0  0  0  0
   19.0052   27.7297   32.7892 C   0  0  1  0  0  0  0  0  0  0  0  0
   18.4332   26.8040   31.9472 C   0  0  1  0  0  0  0  0  0  0  0  0
   16.9935   26.4950   32.1298 C   0  0  0  0  0  0  0  0  0  0  0  0
   16.4173   25.6605   31.3976 O   0  0  0  0  0  0  0  0  0  0  0  0
   19.3854   26.3801   31.0987 N   0  0  0  0  0  0  0  0  0  0  0  0
   20.5234   27.0379   31.4197 C   0  0  0  0  0  0  0  0  0  0  0  0
   20.2782   27.8601   32.4525 N   0  0  1  0  0  0  0  0  0  0  0  0
  1  2  1  0  0  0  0
  3  1  1  6  0  0  0
  3  4  1  0  0  0  0
  3  5  1  0  0  0  0
  5  6  1  1  0  0  0
  5  7  1  0  0  0  0
  7  8  1  0  0  0  0
  8  4  1  1  0  0  0
  8 19  1  0  0  0  0
  9 15  1  0  0  0  0
  9 10  1  0  0  0  0
 10 11  1  6  0  0  0
 10 12  1  0  0  0  0
 13 12  1  6  0  0  0
 13 14  1  0  0  0  0
 13 19  1  0  0  0  0
 14 15  1  6  0  0  0
 14 17  1  0  0  0  0
 15 16  2  0  0  0  0
 17 18  1  0  0  0  0
 19 18  1  6  0  0  0
M  END
>  <CHROM.1>
57.54016591,17.12008699,19.19821688,28.63640246,33.22871419,0.76089428,0.37955828
0.73954101

>  <Name>
ligand

>  <RI>
0

>  <Rbt.Current_Directory>
/home/itssahil/PROJECTS/Mol_Feturizer/New_Systems/rnas/3SKL

>  <Rbt.Executable>
rbdock ($Id: //depot/dev/client3/rdock/2013.1/src/exe/rbdock.cxx#4 $)

>  <Rbt.Library>
libRbt.so (2013.1, Build901 2013/11/27)

>  <Rbt.Parameter_File>
/export/apps/rDock/src/rDock_2013.1_src/data/scripts/dock_solv.prm

>  <Rbt.Receptor>
prm/pocket_docking_4.prm

>  <SCORE>
-8.13688

>  <SCORE.INTER>
-8.5612

>  <SCORE.INTER.CONST>
1

>  <SCORE.INTER.POLAR>
0

>  <SCORE.INTER.ROT>
2

>  <SCORE.INTER.SOLV>
15.2372

>  <SCORE.INTER.VDW>
-15.7198

>  <SCORE.INTER.norm>
-0.450589

>  <SCORE.INTRA>
0.424311

>  <SCORE.INTRA.DIHEDRAL>
-0.296253

>  <SCORE.INTRA.DIHEDRAL.0>
1.50031

>  <SCORE.INTRA.POLAR>
0

>  <SCORE.INTRA.POLAR.0>
0

>  <SCORE.INTRA.REPUL>
0

>  <SCORE.INTRA.REPUL.0>
0

>  <SCORE.INTRA.SOLV>
2.39661

>  <SCORE.INTRA.SOLV.lig_0>
-37.9941

>  <SCORE.INTRA.VDW>
-0.625868

>  <SCORE.INTRA.VDW.0>
-0.964461

>  <SCORE.INTRA.norm>
0.0223322

>  <SCORE.RESTR>
0

>  <SCORE.RESTR.CAVITY>
0

>  <SCORE.RESTR.norm>
0

>  <SCORE.SYSTEM>
0

>  <SCORE.SYSTEM.CONST>
0

>  <SCORE.SYSTEM.DIHEDRAL>
0

>  <SCORE.SYSTEM.SOLV>
0

>  <SCORE.SYSTEM.norm>
0

>  <SCORE.heavy>
19

>  <SCORE.norm>
-0.428257

>  <RMSD>
5.153

$$$$
ligand
 OpenBabel11021811483D
libRbt.so/2013.1/901 2013/11/27
 19 21  0  0  0  0  0  0  0  0999 V2000
   18.9620   28.0586   37.6679 C   0  0  0  0  0  0  0  0  0  0  0  0
   19.0815   29.3473   37.0405 O   0  0  0  0  0  0  0  0  0  0  0  0
   17.6496   27.9401   38.4499 C   0  0  1  0  0  0  0  0  0  0  0  0
   17.3829   26.5767   38.7776 O   0  0  0  0  0  0  0  0  0  0  0  0
   17.6996   28.7074   39.7574 C   0  0  1  0  0  0  0  0  0  0  0  0
   16.4779   29.4333   39.9007 O   0  0  0  0  0  0  0  0  0  0  0  0
   17.7894   27.6769   40.8600 C   0  0  0  0  0  0  0  0  0  0  0  0
   17.4084   26.3652   40.1982 C   0  0  2  0  0  0  0  0  0  0  0  0
   20.7268   24.6353   43.7694 N   0  0  0  0  0  0  0  0  0  0  0  0
   19.9489   25.7443   43.7456 C   0  0  2  0  0  0  0  0  0  0  0  0
   19.9634   26.6045   44.7856 N   0  0  0  0  0  0  0  0  0  0  0  0
   19.1443   26.0216   42.6979 N   0  0  0  0  0  0  0  0  0  0  0  0
   19.0782   25.2074   41.6252 C   0  0  1  0  0  0  0  0  0  0  0  0
   19.8438   24.0651   41.5777 C   0  0  1  0  0  0  0  0  0  0  0  0
   20.7228   23.7694   42.7358 C   0  0  0  0  0  0  0  0  0  0  0  0
   21.4446   22.7479   42.7505 O   0  0  0  0  0  0  0  0  0  0  0  0
   19.5844   23.4477   40.4124 N   0  0  0  0  0  0  0  0  0  0  0  0
   18.6734   24.2039   39.7575 C   0  0  0  0  0  0  0  0  0  0  0  0
   18.3711   25.2749   40.5088 N   0  0  1  0  0  0  0  0  0  0  0  0
  1  2  1  0  0  0  0
  3  1  1  1  0  0  0
  3  4  1  0  0  0  0
  3  5  1  0  0  0  0
  5  6  1  1  0  0  0
  5  7  1  0  0  0  0
  7  8  1  0  0  0  0
  8  4  1  6  0  0  0
  8 19  1  0  0  0  0
  9 15  1  0  0  0  0
  9 10  1  0  0  0  0
 10 11  1  1  0  0  0
 10 12  1  0  0  0  0
 13 12  1  1  0  0  0
 13 14  1  0  0  0  0
 13 19  1  0  0  0  0
 14 15  1  1  0  0  0
 14 17  1  0  0  0  0
 15 16  2  0  0  0  0
 17 18  1  0  0  0  0
 19 18  1  1  0  0  0
M  END
>  <CHROM.1>
165.33627855,148.62827252,18.92253073,26.16421089,40.83471500,-2.76738217
-1.13942913,1.16663174

>  <Name>
ligand

>  <RI>
0

>  <Rbt.Current_Directory>
/home/itssahil/PROJECTS/Mol_Feturizer/New_Systems/rnas/3SKL

>  <Rbt.Executable>
rbdock ($Id: //depot/dev/client3/rdock/2013.1/src/exe/rbdock.cxx#4 $)

>  <Rbt.Library>
libRbt.so (2013.1, Build901 2013/11/27)

>  <Rbt.Parameter_File>
/export/apps/rDock/src/rDock_2013.1_src/data/scripts/dock_solv.prm

>  <Rbt.Receptor>
prm/pocket_docking_8.prm

>  <SCORE>
-13.4192

>  <SCORE.INTER>
-14.3706

>  <SCORE.INTER.CONST>
1

>  <SCORE.INTER.POLAR>
0

>  <SCORE.INTER.ROT>
2

>  <SCORE.INTER.SOLV>
22.955

>  <SCORE.INTER.VDW>
-22.1654

>  <SCORE.INTER.norm>
-0.756349

>  <SCORE.INTRA>
0.951393

>  <SCORE.INTRA.DIHEDRAL>
0.413006

>  <SCORE.INTRA.DIHEDRAL.0>
1.50031

>  <SCORE.INTRA.POLAR>
0

>  <SCORE.INTRA.POLAR.0>
0

>  <SCORE.INTRA.REPUL>
0

>  <SCORE.INTRA.REPUL.0>
0

>  <SCORE.INTRA.SOLV>
-0.445951

>  <SCORE.INTRA.SOLV.lig_0>
-37.9941

>  <SCORE.INTRA.VDW>
0.967865

>  <SCORE.INTRA.VDW.0>
-0.964461

>  <SCORE.INTRA.norm>
0.0500733

>  <SCORE.RESTR>
0

>  <SCORE.RESTR.CAVITY>
0

>  <SCORE.RESTR.norm>
0

>  <SCORE.SYSTEM>
0

>  <SCORE.SYSTEM.CONST>
0

>  <SCORE.SYSTEM.DIHEDRAL>
0

>  <SCORE.SYSTEM.SOLV>
0

>  <SCORE.SYSTEM.norm>
0

>  <SCORE.heavy>
19

>  <SCORE.norm>
-0.706276

>  <RMSD>
5.154

$$$$
ligand
 OpenBabel11021811483D
libRbt.so/2013.1/901 2013/11/27
 19 21  0  0  0  0  0  0  0  0999 V2000
   19.8997   31.4192   35.2445 C   0  0  0  0  0  0  0  0  0  0  0  0
   19.1530   31.2937   34.0217 O   0  0  0  0  0  0  0  0  0  0  0  0
   21.3379   30.9196   35.0718 C   0  0  1  0  0  0  0  0  0  0  0  0
   21.3504   29.5278   34.7553 O   0  0  0  0  0  0  0  0  0  0  0  0
   22.0534   31.6362   33.9425 C   0  0  1  0  0  0  0  0  0  0  0  0
   23.3627   31.9891   34.3909 O   0  0  0  0  0  0  0  0  0  0  0  0
   22.1748   30.6432   32.8089 C   0  0  0  0  0  0  0  0  0  0  0  0
   21.8781   29.2949   33.4397 C   0  0  2  0  0  0  0  0  0  0  0  0
   17.0188   27.5213   33.4443 N   0  0  0  0  0  0  0  0  0  0  0  0
   17.7000   28.2423   34.3671 C   0  0  2  0  0  0  0  0  0  0  0  0
   17.0956   28.6190   35.5136 N   0  0  0  0  0  0  0  0  0  0  0  0
   18.9859   28.6042   34.1737 N   0  0  0  0  0  0  0  0  0  0  0  0
   19.6528   28.2637   33.0523 C   0  0  1  0  0  0  0  0  0  0  0  0
   19.0261   27.5275   32.0734 C   0  0  1  0  0  0  0  0  0  0  0  0
   17.6120   27.1372   32.2959 C   0  0  0  0  0  0  0  0  0  0  0  0
   16.9890   26.4654   31.4443 O   0  0  0  0  0  0  0  0  0  0  0  0
   19.9096   27.3336   31.0793 N   0  0  0  0  0  0  0  0  0  0  0  0
   21.0603   27.9427   31.4476 C   0  0  0  0  0  0  0  0  0  0  0  0
   20.8906   28.5083   32.6535 N   0  0  1  0  0  0  0  0  0  0  0  0
  1  2  1  0  0  0  0
  3  1  1  6  0  0  0
  3  4  1  0  0  0  0
  3  5  1  0  0  0  0
  5  6  1  1  0  0  0
  5  7  1  0  0  0  0
  7  8  1  0  0  0  0
  8  4  1  1  0  0  0
  8 19  1  0  0  0  0
  9 15  1  0  0  0  0
  9 10  1  0  0  0  0
 10 11  1  6  0  0  0
 10 12  1  0  0  0  0
 13 12  1  6  0  0  0
 13 14  1  0  0  0  0
 13 19  1  0  0  0  0
 14 15  1  6  0  0  0
 14 17  1  0  0  0  0
 15 16  2  0  0  0  0
 17 18  1  0  0  0  0
 19 18  1  6  0  0  0
M  END
>  <CHROM.1>
-62.96099786,9.82489257,19.87178290,29.15324122,33.46131733,0.69809193,0.40098128
0.83944210

>  <Name>
ligand

>  <RI>
0

>  <Rbt.Current_Directory>
/home/itssahil/PROJECTS/Mol_Feturizer/New_Systems/rnas/3SKL

>  <Rbt.Executable>
rbdock ($Id: //depot/dev/client3/rdock/2013.1/src/exe/rbdock.cxx#4 $)

>  <Rbt.Library>
libRbt.so (2013.1, Build901 2013/11/27)

>  <Rbt.Parameter_File>
/export/apps/rDock/src/rDock_2013.1_src/data/scripts/dock_solv.prm

>  <Rbt.Receptor>
prm/pocket_docking_5.prm

>  <SCORE>
-9.49017

>  <SCORE.INTER>
-9.62307

>  <SCORE.INTER.CONST>
1

>  <SCORE.INTER.POLAR>
0

>  <SCORE.INTER.ROT>
2

>  <SCORE.INTER.SOLV>
13.4204

>  <SCORE.INTER.VDW>
-15.8222

>  <SCORE.INTER.norm>
-0.506478

>  <SCORE.INTRA>
0.132906

>  <SCORE.INTRA.DIHEDRAL>
-0.27928

>  <SCORE.INTRA.DIHEDRAL.0>
1.50031

>  <SCORE.INTRA.POLAR>
0

>  <SCORE.INTRA.POLAR.0>
0

>  <SCORE.INTRA.REPUL>
0

>  <SCORE.INTRA.REPUL.0>
0

>  <SCORE.INTRA.SOLV>
1.83863

>  <SCORE.INTRA.SOLV.lig_0>
-37.9941

>  <SCORE.INTRA.VDW>
-0.646769

>  <SCORE.INTRA.VDW.0>
-0.964461

>  <SCORE.INTRA.norm>
0.00699506

>  <SCORE.RESTR>
0

>  <SCORE.RESTR.CAVITY>
0

>  <SCORE.RESTR.norm>
0

>  <SCORE.SYSTEM>
0

>  <SCORE.SYSTEM.CONST>
0

>  <SCORE.SYSTEM.DIHEDRAL>
0

>  <SCORE.SYSTEM.SOLV>
0

>  <SCORE.SYSTEM.norm>
0

>  <SCORE.heavy>
19

>  <SCORE.norm>
-0.499482

>  <RMSD>
5.219

$$$$
ligand
 OpenBabel11021811483D
libRbt.so/2013.1/901 2013/11/27
 19 21  0  0  0  0  0  0  0  0999 V2000
   21.1024   30.5027   32.8475 C   0  0  0  0  0  0  0  0  0  0  0  0
   22.5321   30.6564   32.8793 O   0  0  0  0  0  0  0  0  0  0  0  0
   20.4382   31.2330   34.0194 C   0  0  1  0  0  0  0  0  0  0  0  0
   19.0166   31.1718   33.9070 O   0  0  0  0  0  0  0  0  0  0  0  0
   20.8035   30.6101   35.3534 C   0  0  1  0  0  0  0  0  0  0  0  0
   21.1198   31.6596   36.2690 O   0  0  0  0  0  0  0  0  0  0  0  0
   19.5701   29.8865   35.8445 C   0  0  0  0  0  0  0  0  0  0  0  0
   18.4379   30.4219   34.9870 C   0  0  2  0  0  0  0  0  0  0  0  0
   18.4517   26.3977   31.7368 N   0  0  0  0  0  0  0  0  0  0  0  0
   19.4272   27.2818   32.0569 C   0  0  2  0  0  0  0  0  0  0  0  0
   20.6488   27.1765   31.4928 N   0  0  0  0  0  0  0  0  0  0  0  0
   19.2142   28.2816   32.9384 N   0  0  0  0  0  0  0  0  0  0  0  0
   18.0194   28.4473   33.5410 C   0  0  1  0  0  0  0  0  0  0  0  0
   16.9804   27.5900   33.2608 C   0  0  1  0  0  0  0  0  0  0  0  0
   17.2267   26.4935   32.2919 C   0  0  0  0  0  0  0  0  0  0  0  0
   16.3212   25.6836   31.9940 O   0  0  0  0  0  0  0  0  0  0  0  0
   15.9214   27.9789   33.9912 N   0  0  0  0  0  0  0  0  0  0  0  0
   16.3091   29.0598   34.7068 C   0  0  0  0  0  0  0  0  0  0  0  0
   17.5926   29.3352   34.4243 N   0  0  1  0  0  0  0  0  0  0  0  0
  1  2  1  0  0  0  0
  3  1  1  6  0  0  0
  3  4  1  0  0  0  0
  3  5  1  0  0  0  0
  5  6  1  1  0  0  0
  5  7  1  0  0  0  0
  7  8  1  0  0  0  0
  8  4  1  6  0  0  0
  8 19  1  0  0  0  0
  9 15  1  0  0  0  0
  9 10  1  0  0  0  0
 10 11  1  1  0  0  0
 10 12  1  0  0  0  0
 13 12  1  1  0  0  0
 13 14  1  0  0  0  0
 13 19  1  0  0  0  0
 14 15  1  1  0  0  0
 14 17  1  0  0  0  0
 15 16  2  0  0  0  0
 17 18  1  0  0  0  0
 19 18  1  1  0  0  0
M  END
>  <CHROM.1>
174.81527587,53.69771593,18.96654856,28.99059337,33.61558657,-0.85780458
-0.36783615,-2.37280494

>  <Name>
ligand

>  <RI>
0

>  <Rbt.Current_Directory>
/home/itssahil/PROJECTS/Mol_Feturizer/New_Systems/rnas/3SKL

>  <Rbt.Executable>
rbdock ($Id: //depot/dev/client3/rdock/2013.1/src/exe/rbdock.cxx#4 $)

>  <Rbt.Library>
libRbt.so (2013.1, Build901 2013/11/27)

>  <Rbt.Parameter_File>
/export/apps/rDock/src/rDock_2013.1_src/data/scripts/dock_solv.prm

>  <Rbt.Receptor>
prm/pocket_docking_4.prm

>  <SCORE>
-10.7386

>  <SCORE.INTER>
-10.4905

>  <SCORE.INTER.CONST>
1

>  <SCORE.INTER.POLAR>
0

>  <SCORE.INTER.ROT>
2

>  <SCORE.INTER.SOLV>
12.321

>  <SCORE.INTER.VDW>
-16.034

>  <SCORE.INTER.norm>
-0.552131

>  <SCORE.INTRA>
-0.250814

>  <SCORE.INTRA.DIHEDRAL>
-0.211726

>  <SCORE.INTRA.DIHEDRAL.0>
1.50031

>  <SCORE.INTRA.POLAR>
0

>  <SCORE.INTRA.POLAR.0>
0

>  <SCORE.INTRA.REPUL>
0

>  <SCORE.INTRA.REPUL.0>
0

>  <SCORE.INTRA.SOLV>
1.00985

>  <SCORE.INTRA.SOLV.lig_0>
-37.9941

>  <SCORE.INTRA.VDW>
-0.649874

>  <SCORE.INTRA.VDW.0>
-0.964461

>  <SCORE.INTRA.norm>
-0.0132007

>  <SCORE.RESTR>
0.00269006

>  <SCORE.RESTR.CAVITY>
0.00269006

>  <SCORE.RESTR.norm>
0.000141582

>  <SCORE.SYSTEM>
0

>  <SCORE.SYSTEM.CONST>
0

>  <SCORE.SYSTEM.DIHEDRAL>
0

>  <SCORE.SYSTEM.SOLV>
0

>  <SCORE.SYSTEM.norm>
0

>  <SCORE.heavy>
19

>  <SCORE.norm>
-0.56519

>  <RMSD>
5.520

$$$$
ligand
 OpenBabel11021811483D
libRbt.so/2013.1/901 2013/11/27
 19 21  0  0  0  0  0  0  0  0999 V2000
   21.1477   30.5056   32.8397 C   0  0  0  0  0  0  0  0  0  0  0  0
   22.5749   30.6759   32.8912 O   0  0  0  0  0  0  0  0  0  0  0  0
   20.4589   31.2272   34.0028 C   0  0  1  0  0  0  0  0  0  0  0  0
   19.0398   31.1383   33.8779 O   0  0  0  0  0  0  0  0  0  0  0  0
   20.8240   30.6164   35.3424 C   0  0  1  0  0  0  0  0  0  0  0  0
   21.1117   31.6752   36.2568 O   0  0  0  0  0  0  0  0  0  0  0  0
   19.6003   29.8710   35.8252 C   0  0  0  0  0  0  0  0  0  0  0  0
   18.4659   30.3814   34.9555 C   0  0  2  0  0  0  0  0  0  0  0  0
   18.5561   26.4079   31.6447 N   0  0  0  0  0  0  0  0  0  0  0  0
   19.5079   27.3180   31.9631 C   0  0  2  0  0  0  0  0  0  0  0  0
   20.7231   27.2602   31.3787 N   0  0  0  0  0  0  0  0  0  0  0  0
   19.2772   28.2974   32.8629 N   0  0  0  0  0  0  0  0  0  0  0  0
   18.0875   28.4159   33.4862 C   0  0  1  0  0  0  0  0  0  0  0  0
   17.0720   27.5299   33.2091 C   0  0  1  0  0  0  0  0  0  0  0  0
   17.3376   26.4562   32.2200 C   0  0  0  0  0  0  0  0  0  0  0  0
   16.4537   25.6222   31.9237 O   0  0  0  0  0  0  0  0  0  0  0  0
   16.0128   27.8739   33.9616 N   0  0  0  0  0  0  0  0  0  0  0  0
   16.3773   28.9560   34.6874 C   0  0  0  0  0  0  0  0  0  0  0  0
   17.6467   29.2766   34.3895 N   0  0  1  0  0  0  0  0  0  0  0  0
  1  2  1  0  0  0  0
  3  1  1  6  0  0  0
  3  4  1  0  0  0  0
  3  5  1  0  0  0  0
  5  6  1  1  0  0  0
  5  7  1  0  0  0  0
  7  8  1  0  0  0  0
  8  4  1  6  0  0  0
  8 19  1  0  0  0  0
  9 15  1  0  0  0  0
  9 10  1  0  0  0  0
 10 11  1  1  0  0  0
 10 12  1  0  0  0  0
 13 12  1  1  0  0  0
 13 14  1  0  0  0  0
 13 19  1  0  0  0  0
 14 15  1  1  0  0  0
 14 17  1  0  0  0  0
 15 16  2  0  0  0  0
 17 18  1  0  0  0  0
 19 18  1  1  0  0  0
M  END
>  <CHROM.1>
175.38153444,51.77838474,19.02577635,28.97232822,33.57311816,-0.87256315
-0.38649750,-2.35948896

>  <Name>
ligand

>  <RI>
0

>  <Rbt.Current_Directory>
/home/itssahil/PROJECTS/Mol_Feturizer/New_Systems/rnas/3SKL

>  <Rbt.Executable>
rbdock ($Id: //depot/dev/client3/rdock/2013.1/src/exe/rbdock.cxx#4 $)

>  <Rbt.Library>
libRbt.so (2013.1, Build901 2013/11/27)

>  <Rbt.Parameter_File>
/export/apps/rDock/src/rDock_2013.1_src/data/scripts/dock_solv.prm

>  <Rbt.Receptor>
prm/pocket_docking_7.prm

>  <SCORE>
-10.8582

>  <SCORE.INTER>
-10.6694

>  <SCORE.INTER.CONST>
1

>  <SCORE.INTER.POLAR>
0

>  <SCORE.INTER.ROT>
2

>  <SCORE.INTER.SOLV>
12.621

>  <SCORE.INTER.VDW>
-16.2533

>  <SCORE.INTER.norm>
-0.561549

>  <SCORE.INTRA>
-0.188799

>  <SCORE.INTRA.DIHEDRAL>
-0.233718

>  <SCORE.INTRA.DIHEDRAL.0>
1.50031

>  <SCORE.INTRA.POLAR>
0

>  <SCORE.INTRA.POLAR.0>
0

>  <SCORE.INTRA.REPUL>
0

>  <SCORE.INTRA.REPUL.0>
0

>  <SCORE.INTRA.SOLV>
1.0838

>  <SCORE.INTRA.SOLV.lig_0>
-37.9941

>  <SCORE.INTRA.VDW>
-0.613838

>  <SCORE.INTRA.VDW.0>
-0.964461

>  <SCORE.INTRA.norm>
-0.00993676

>  <SCORE.RESTR>
0

>  <SCORE.RESTR.CAVITY>
0

>  <SCORE.RESTR.norm>
0

>  <SCORE.SYSTEM>
0

>  <SCORE.SYSTEM.CONST>
0

>  <SCORE.SYSTEM.DIHEDRAL>
0

>  <SCORE.SYSTEM.SOLV>
0

>  <SCORE.SYSTEM.norm>
0

>  <SCORE.heavy>
19

>  <SCORE.norm>
-0.571486

>  <RMSD>
5.554

$$$$
ligand
 OpenBabel11021811483D
libRbt.so/2013.1/901 2013/11/27
 19 21  0  0  0  0  0  0  0  0999 V2000
   20.3702   28.7902   34.4743 C   0  0  0  0  0  0  0  0  0  0  0  0
   20.5740   27.7840   35.4816 O   0  0  0  0  0  0  0  0  0  0  0  0
   21.4433   28.7107   33.3834 C   0  0  1  0  0  0  0  0  0  0  0  0
   21.4437   27.4200   32.7739 O   0  0  0  0  0  0  0  0  0  0  0  0
   21.2017   29.7214   32.2784 C   0  0  1  0  0  0  0  0  0  0  0  0
   22.4451   30.3490   31.9622 O   0  0  0  0  0  0  0  0  0  0  0  0
   20.7271   28.9399   31.0743 C   0  0  0  0  0  0  0  0  0  0  0  0
   21.0689   27.4950   31.3892 C   0  0  2  0  0  0  0  0  0  0  0  0
   16.1755   26.4995   32.7389 N   0  0  0  0  0  0  0  0  0  0  0  0
   17.0368   27.4532   33.1681 C   0  0  2  0  0  0  0  0  0  0  0  0
   16.6463   28.3496   34.0985 N   0  0  0  0  0  0  0  0  0  0  0  0
   18.2947   27.5389   32.6862 N   0  0  0  0  0  0  0  0  0  0  0  0
   18.7529   26.6780   31.7550 C   0  0  1  0  0  0  0  0  0  0  0  0
   17.9355   25.6803   31.2760 C   0  0  1  0  0  0  0  0  0  0  0  0
   16.5542   25.5970   31.8114 C   0  0  0  0  0  0  0  0  0  0  0  0
   15.7645   24.7106   31.4174 O   0  0  0  0  0  0  0  0  0  0  0  0
   18.6362   24.9782   30.3691 N   0  0  0  0  0  0  0  0  0  0  0  0
   19.8651   25.5397   30.2968 C   0  0  0  0  0  0  0  0  0  0  0  0
   19.9237   26.5776   31.1467 N   0  0  1  0  0  0  0  0  0  0  0  0
  1  2  1  0  0  0  0
  3  1  1  1  0  0  0
  3  4  1  0  0  0  0
  3  5  1  0  0  0  0
  5  6  1  6  0  0  0
  5  7  1  0  0  0  0
  7  8  1  0  0  0  0
  8  4  1  1  0  0  0
  8 19  1  0  0  0  0
  9 15  1  0  0  0  0
  9 10  1  0  0  0  0
 10 11  1  6  0  0  0
 10 12  1  0  0  0  0
 13 12  1  6  0  0  0
 13 14  1  0  0  0  0
 13 19  1  0  0  0  0
 14 15  1  6  0  0  0
 14 17  1  0  0  0  0
 15 16  2  0  0  0  0
 17 18  1  0  0  0  0
 19 18  1  6  0  0  0
M  END
>  <CHROM.1>
58.09578020,60.08664034,19.25115887,27.34160131,32.33612354,0.49673910,0.42961839
0.96257834

>  <Name>
ligand

>  <RI>
0

>  <Rbt.Current_Directory>
/home/itssahil/PROJECTS/Mol_Feturizer/New_Systems/rnas/3SKL

>  <Rbt.Executable>
rbdock ($Id: //depot/dev/client3/rdock/2013.1/src/exe/rbdock.cxx#4 $)

>  <Rbt.Library>
libRbt.so (2013.1, Build901 2013/11/27)

>  <Rbt.Parameter_File>
/export/apps/rDock/src/rDock_2013.1_src/data/scripts/dock_solv.prm

>  <Rbt.Receptor>
prm/pocket_docking_6.prm

>  <SCORE>
-11.6145

>  <SCORE.INTER>
-10.9961

>  <SCORE.INTER.CONST>
1

>  <SCORE.INTER.POLAR>
0

>  <SCORE.INTER.ROT>
2

>  <SCORE.INTER.SOLV>
15.9484

>  <SCORE.INTER.VDW>
-17.5802

>  <SCORE.INTER.norm>
-0.578741

>  <SCORE.INTRA>
-0.618377

>  <SCORE.INTRA.DIHEDRAL>
-0.286092

>  <SCORE.INTRA.DIHEDRAL.0>
1.50031

>  <SCORE.INTRA.POLAR>
0

>  <SCORE.INTRA.POLAR.0>
0

>  <SCORE.INTRA.REPUL>
0

>  <SCORE.INTRA.REPUL.0>
0

>  <SCORE.INTRA.SOLV>
0.792929

>  <SCORE.INTRA.SOLV.lig_0>
-37.9941

>  <SCORE.INTRA.VDW>
-0.871795

>  <SCORE.INTRA.VDW.0>
-0.964461

>  <SCORE.INTRA.norm>
-0.0325462

>  <SCORE.RESTR>
0

>  <SCORE.RESTR.CAVITY>
0

>  <SCORE.RESTR.norm>
0

>  <SCORE.SYSTEM>
0

>  <SCORE.SYSTEM.CONST>
0

>  <SCORE.SYSTEM.DIHEDRAL>
0

>  <SCORE.SYSTEM.SOLV>
0

>  <SCORE.SYSTEM.norm>
0

>  <SCORE.heavy>
19

>  <SCORE.norm>
-0.611287

>  <RMSD>
5.746

$$$$
ligand
 OpenBabel11021811483D
libRbt.so/2013.1/901 2013/11/27
 19 21  0  0  0  0  0  0  0  0999 V2000
   17.7737   24.6811   39.1924 C   0  0  0  0  0  0  0  0  0  0  0  0
   18.7940   23.7260   39.5322 O   0  0  0  0  0  0  0  0  0  0  0  0
   18.0865   26.0617   39.7789 C   0  0  1  0  0  0  0  0  0  0  0  0
   19.2854   26.5879   39.2104 O   0  0  0  0  0  0  0  0  0  0  0  0
   16.9836   27.0619   39.4891 C   0  0  1  0  0  0  0  0  0  0  0  0
   16.7145   27.7949   40.6849 O   0  0  0  0  0  0  0  0  0  0  0  0
   17.5248   28.0110   38.4439 C   0  0  0  0  0  0  0  0  0  0  0  0
   19.0237   27.7725   38.4412 C   0  0  2  0  0  0  0  0  0  0  0  0
   21.2031   30.2512   34.4581 N   0  0  0  0  0  0  0  0  0  0  0  0
   20.7668   30.7100   35.6560 C   0  0  2  0  0  0  0  0  0  0  0  0
   20.8822   32.0192   35.9628 N   0  0  0  0  0  0  0  0  0  0  0  0
   20.2118   29.8857   36.5695 N   0  0  0  0  0  0  0  0  0  0  0  0
   20.0652   28.5666   36.3317 C   0  0  1  0  0  0  0  0  0  0  0  0
   20.4812   28.0309   35.1346 C   0  0  1  0  0  0  0  0  0  0  0  0
   21.0916   28.9459   34.1388 C   0  0  0  0  0  0  0  0  0  0  0  0
   21.4867   28.5194   33.0313 O   0  0  0  0  0  0  0  0  0  0  0  0
   20.2206   26.7127   35.1644 N   0  0  0  0  0  0  0  0  0  0  0  0
   19.6523   26.4482   36.3635 C   0  0  0  0  0  0  0  0  0  0  0  0
   19.5641   27.5880   37.0678 N   0  0  1  0  0  0  0  0  0  0  0  0
  1  2  1  0  0  0  0
  3  1  1  6  0  0  0
  3  4  1  0  0  0  0
  3  5  1  0  0  0  0
  5  6  1  1  0  0  0
  5  7  1  0  0  0  0
  7  8  1  0  0  0  0
  8  4  1  1  0  0  0
  8 19  1  0  0  0  0
  9 15  1  0  0  0  0
  9 10  1  0  0  0  0
 10 11  1  1  0  0  0
 10 12  1  0  0  0  0
 13 12  1  1  0  0  0
 13 14  1  0  0  0  0
 13 19  1  0  0  0  0
 14 15  1  1  0  0  0
 14 17  1  0  0  0  0
 15 16  2  0  0  0  0
 17 18  1  0  0  0  0
 19 18  1  1  0  0  0
M  END
>  <CHROM.1>
63.86146209,-146.91690583,19.43153102,27.80908792,37.15384329,-2.58929619
1.01165467,0.01925973

>  <Name>
ligand

>  <RI>
0

>  <Rbt.Current_Directory>
/home/itssahil/PROJECTS/Mol_Feturizer/New_Systems/rnas/3SKL

>  <Rbt.Executable>
rbdock ($Id: //depot/dev/client3/rdock/2013.1/src/exe/rbdock.cxx#4 $)

>  <Rbt.Library>
libRbt.so (2013.1, Build901 2013/11/27)

>  <Rbt.Parameter_File>
/export/apps/rDock/src/rDock_2013.1_src/data/scripts/dock_solv.prm

>  <Rbt.Receptor>
prm/pocket_docking_8.prm

>  <SCORE>
-13.3373

>  <SCORE.INTER>
-12.7111

>  <SCORE.INTER.CONST>
1

>  <SCORE.INTER.POLAR>
0

>  <SCORE.INTER.ROT>
2

>  <SCORE.INTER.SOLV>
16.3707

>  <SCORE.INTER.VDW>
-18.8643

>  <SCORE.INTER.norm>
-0.669005

>  <SCORE.INTRA>
-0.626196

>  <SCORE.INTRA.DIHEDRAL>
-0.218625

>  <SCORE.INTRA.DIHEDRAL.0>
1.50031

>  <SCORE.INTRA.POLAR>
0

>  <SCORE.INTRA.POLAR.0>
0

>  <SCORE.INTRA.REPUL>
0

>  <SCORE.INTRA.REPUL.0>
0

>  <SCORE.INTRA.SOLV>
-0.57282

>  <SCORE.INTRA.SOLV.lig_0>
-37.9941

>  <SCORE.INTRA.VDW>
-0.230473

>  <SCORE.INTRA.VDW.0>
-0.964461

>  <SCORE.INTRA.norm>
-0.0329577

>  <SCORE.RESTR>
0

>  <SCORE.RESTR.CAVITY>
0

>  <SCORE.RESTR.norm>
0

>  <SCORE.SYSTEM>
0

>  <SCORE.SYSTEM.CONST>
0

>  <SCORE.SYSTEM.DIHEDRAL>
0

>  <SCORE.SYSTEM.SOLV>
0

>  <SCORE.SYSTEM.norm>
0

>  <SCORE.heavy>
19

>  <SCORE.norm>
-0.701963

>  <RMSD>
5.753

$$$$
ligand
 OpenBabel11021811483D
libRbt.so/2013.1/901 2013/11/27
 19 21  0  0  0  0  0  0  0  0999 V2000
   17.8131   24.6858   39.1646 C   0  0  0  0  0  0  0  0  0  0  0  0
   18.8147   23.7169   39.5205 O   0  0  0  0  0  0  0  0  0  0  0  0
   18.1413   26.0647   39.7468 C   0  0  1  0  0  0  0  0  0  0  0  0
   19.3295   26.5889   39.1546 O   0  0  0  0  0  0  0  0  0  0  0  0
   17.0351   27.0680   39.4812 C   0  0  1  0  0  0  0  0  0  0  0  0
   16.7924   27.7997   40.6835 O   0  0  0  0  0  0  0  0  0  0  0  0
   17.5570   28.0175   38.4266 C   0  0  0  0  0  0  0  0  0  0  0  0
   19.0550   27.7754   38.3927 C   0  0  2  0  0  0  0  0  0  0  0  0
   21.1957   30.2472   34.3846 N   0  0  0  0  0  0  0  0  0  0  0  0
   20.7889   30.7046   35.5933 C   0  0  2  0  0  0  0  0  0  0  0  0
   20.9296   32.0100   35.9060 N   0  0  0  0  0  0  0  0  0  0  0  0
   20.2390   29.8828   36.5121 N   0  0  0  0  0  0  0  0  0  0  0  0
   20.0682   28.5676   36.2688 C   0  0  1  0  0  0  0  0  0  0  0  0
   20.4536   28.0335   35.0608 C   0  0  1  0  0  0  0  0  0  0  0  0
   21.0587   28.9458   34.0593 C   0  0  0  0  0  0  0  0  0  0  0  0
   21.4265   28.5206   32.9420 O   0  0  0  0  0  0  0  0  0  0  0  0
   20.1740   26.7191   35.0874 N   0  0  0  0  0  0  0  0  0  0  0  0
   19.6245   26.4554   36.2954 C   0  0  0  0  0  0  0  0  0  0  0  0
   19.5665   27.5917   37.0083 N   0  0  1  0  0  0  0  0  0  0  0  0
  1  2  1  0  0  0  0
  3  1  1  6  0  0  0
  3  4  1  0  0  0  0
  3  5  1  0  0  0  0
  5  6  1  1  0  0  0
  5  7  1  0  0  0  0
  7  8  1  0  0  0  0
  8  4  1  1  0  0  0
  8 19  1  0  0  0  0
  9 15  1  0  0  0  0
  9 10  1  0  0  0  0
 10 11  1  1  0  0  0
 10 12  1  0  0  0  0
 13 12  1  1  0  0  0
 13 14  1  0  0  0  0
 13 19  1  0  0  0  0
 14 15  1  1  0  0  0
 14 17  1  0  0  0  0
 15 16  2  0  0  0  0
 17 18  1  0  0  0  0
 19 18  1  1  0  0  0
M  END
>  <CHROM.1>
65.83794305,-146.14863806,19.44561017,27.81007164,37.10398537,-2.60976051
1.03170258,0.04167407

>  <Name>
ligand

>  <RI>
0

>  <Rbt.Current_Directory>
/home/itssahil/PROJECTS/Mol_Feturizer/New_Systems/rnas/3SKL

>  <Rbt.Executable>
rbdock ($Id: //depot/dev/client3/rdock/2013.1/src/exe/rbdock.cxx#4 $)

>  <Rbt.Library>
libRbt.so (2013.1, Build901 2013/11/27)

>  <Rbt.Parameter_File>
/export/apps/rDock/src/rDock_2013.1_src/data/scripts/dock_solv.prm

>  <Rbt.Receptor>
prm/pocket_docking_6.prm

>  <SCORE>
-13.2603

>  <SCORE.INTER>
-12.6621

>  <SCORE.INTER.CONST>
1

>  <SCORE.INTER.POLAR>
0

>  <SCORE.INTER.ROT>
2

>  <SCORE.INTER.SOLV>
15.9846

>  <SCORE.INTER.VDW>
-18.7029

>  <SCORE.INTER.norm>
-0.666426

>  <SCORE.INTRA>
-0.598195

>  <SCORE.INTRA.DIHEDRAL>
-0.149658

>  <SCORE.INTRA.DIHEDRAL.0>
1.50031

>  <SCORE.INTRA.POLAR>
0

>  <SCORE.INTRA.POLAR.0>
0

>  <SCORE.INTRA.REPUL>
0

>  <SCORE.INTRA.REPUL.0>
0

>  <SCORE.INTRA.SOLV>
-0.58212

>  <SCORE.INTRA.SOLV.lig_0>
-37.9941

>  <SCORE.INTRA.VDW>
-0.232306

>  <SCORE.INTRA.VDW.0>
-0.964461

>  <SCORE.INTRA.norm>
-0.0314839

>  <SCORE.RESTR>
0

>  <SCORE.RESTR.CAVITY>
0

>  <SCORE.RESTR.norm>
0

>  <SCORE.SYSTEM>
0

>  <SCORE.SYSTEM.CONST>
0

>  <SCORE.SYSTEM.DIHEDRAL>
0

>  <SCORE.SYSTEM.SOLV>
0

>  <SCORE.SYSTEM.norm>
0

>  <SCORE.heavy>
19

>  <SCORE.norm>
-0.69791

>  <RMSD>
5.762

$$$$
ligand
 OpenBabel11021811483D
libRbt.so/2013.1/901 2013/11/27
 19 21  0  0  0  0  0  0  0  0999 V2000
   20.3774   28.7815   34.4794 C   0  0  0  0  0  0  0  0  0  0  0  0
   20.4091   30.0553   35.1466 O   0  0  0  0  0  0  0  0  0  0  0  0
   21.4467   28.7001   33.3848 C   0  0  1  0  0  0  0  0  0  0  0  0
   21.4386   27.4114   32.7711 O   0  0  0  0  0  0  0  0  0  0  0  0
   21.2068   29.7156   32.2839 C   0  0  1  0  0  0  0  0  0  0  0  0
   22.4524   30.3379   31.9658 O   0  0  0  0  0  0  0  0  0  0  0  0
   20.7244   28.9405   31.0787 C   0  0  0  0  0  0  0  0  0  0  0  0
   21.0599   27.4928   31.3879 C   0  0  2  0  0  0  0  0  0  0  0  0
   16.1601   26.5282   32.7371 N   0  0  0  0  0  0  0  0  0  0  0  0
   17.0270   27.4772   33.1655 C   0  0  2  0  0  0  0  0  0  0  0  0
   16.6416   28.3769   34.0949 N   0  0  0  0  0  0  0  0  0  0  0  0
   18.2856   27.5548   32.6839 N   0  0  0  0  0  0  0  0  0  0  0  0
   18.7389   26.6901   31.7539 C   0  0  1  0  0  0  0  0  0  0  0  0
   17.9156   25.6969   31.2756 C   0  0  1  0  0  0  0  0  0  0  0  0
   16.5337   25.6225   31.8107 C   0  0  0  0  0  0  0  0  0  0  0  0
   15.7388   24.7403   31.4174 O   0  0  0  0  0  0  0  0  0  0  0  0
   18.6124   24.9896   30.3697 N   0  0  0  0  0  0  0  0  0  0  0  0
   19.8446   25.5436   30.2972 C   0  0  0  0  0  0  0  0  0  0  0  0
   19.9092   26.5820   31.1460 N   0  0  1  0  0  0  0  0  0  0  0  0
  1  2  1  0  0  0  0
  3  1  1  1  0  0  0
  3  4  1  0  0  0  0
  3  5  1  0  0  0  0
  5  6  1  6  0  0  0
  5  7  1  0  0  0  0
  7  8  1  0  0  0  0
  8  4  1  1  0  0  0
  8 19  1  0  0  0  0
  9 15  1  0  0  0  0
  9 10  1  0  0  0  0
 10 11  1  6  0  0  0
 10 12  1  0  0  0  0
 13 12  1  6  0  0  0
 13 14  1  0  0  0  0
 13 19  1  0  0  0  0
 14 15  1  6  0  0  0
 14 17  1  0  0  0  0
 15 16  2  0  0  0  0
 17 18  1  0  0  0  0
 19 18  1  6  0  0  0
M  END
>  <CHROM.1>
177.58020777,60.40878497,19.23232305,27.48846250,32.31580910,0.61973149,0.38947411
0.82703920

>  <Name>
ligand

>  <RI>
0

>  <Rbt.Current_Directory>
/home/itssahil/PROJECTS/Mol_Feturizer/New_Systems/rnas/3SKL

>  <Rbt.Executable>
rbdock ($Id: //depot/dev/client3/rdock/2013.1/src/exe/rbdock.cxx#4 $)

>  <Rbt.Library>
libRbt.so (2013.1, Build901 2013/11/27)

>  <Rbt.Parameter_File>
/export/apps/rDock/src/rDock_2013.1_src/data/scripts/dock_solv.prm

>  <Rbt.Receptor>
prm/pocket_docking_5.prm

>  <SCORE>
-11.3437

>  <SCORE.INTER>
-10.8512

>  <SCORE.INTER.CONST>
1

>  <SCORE.INTER.POLAR>
0

>  <SCORE.INTER.ROT>
2

>  <SCORE.INTER.SOLV>
15.1745

>  <SCORE.INTER.VDW>
-17.2256

>  <SCORE.INTER.norm>
-0.571118

>  <SCORE.INTRA>
-0.492461

>  <SCORE.INTRA.DIHEDRAL>
-0.277783

>  <SCORE.INTRA.DIHEDRAL.0>
1.50031

>  <SCORE.INTRA.POLAR>
0

>  <SCORE.INTRA.POLAR.0>
0

>  <SCORE.INTRA.REPUL>
0

>  <SCORE.INTRA.REPUL.0>
0

>  <SCORE.INTRA.SOLV>
0.755782

>  <SCORE.INTRA.SOLV.lig_0>
-37.9941

>  <SCORE.INTRA.VDW>
-0.73146

>  <SCORE.INTRA.VDW.0>
-0.964461

>  <SCORE.INTRA.norm>
-0.025919

>  <SCORE.RESTR>
0

>  <SCORE.RESTR.CAVITY>
0

>  <SCORE.RESTR.norm>
0

>  <SCORE.SYSTEM>
0

>  <SCORE.SYSTEM.CONST>
0

>  <SCORE.SYSTEM.DIHEDRAL>
0

>  <SCORE.SYSTEM.SOLV>
0

>  <SCORE.SYSTEM.norm>
0

>  <SCORE.heavy>
19

>  <SCORE.norm>
-0.597037

>  <RMSD>
5.778

$$$$
ligand
 OpenBabel11021811483D
libRbt.so/2013.1/901 2013/11/27
 19 21  0  0  0  0  0  0  0  0999 V2000
   20.9977   31.4951   35.8187 C   0  0  0  0  0  0  0  0  0  0  0  0
   20.7815   32.7339   36.5167 O   0  0  0  0  0  0  0  0  0  0  0  0
   22.3718   31.4708   35.1411 C   0  0  1  0  0  0  0  0  0  0  0  0
   22.5762   30.2294   34.4668 O   0  0  0  0  0  0  0  0  0  0  0  0
   22.5086   32.5666   34.1012 C   0  0  1  0  0  0  0  0  0  0  0  0
   23.7855   33.1852   34.2641 O   0  0  0  0  0  0  0  0  0  0  0  0
   22.4611   31.8888   32.7505 C   0  0  0  0  0  0  0  0  0  0  0  0
   22.6814   30.4165   33.0464 C   0  0  2  0  0  0  0  0  0  0  0  0
   18.5918   27.3553   33.8605 N   0  0  0  0  0  0  0  0  0  0  0  0
   19.3677   28.0475   34.7291 C   0  0  2  0  0  0  0  0  0  0  0  0
   19.1080   28.0035   36.0529 N   0  0  0  0  0  0  0  0  0  0  0  0
   20.4097   28.7942   34.3066 N   0  0  0  0  0  0  0  0  0  0  0  0
   20.7274   28.8852   32.9993 C   0  0  1  0  0  0  0  0  0  0  0  0
   19.9864   28.2055   32.0602 C   0  0  1  0  0  0  0  0  0  0  0  0
   18.8422   27.3895   32.5360 C   0  0  0  0  0  0  0  0  0  0  0  0
   18.1327   26.7464   31.7312 O   0  0  0  0  0  0  0  0  0  0  0  0
   20.5139   28.4714   30.8529 N   0  0  0  0  0  0  0  0  0  0  0  0
   21.5633   29.3016   31.0533 C   0  0  0  0  0  0  0  0  0  0  0  0
   21.6827   29.5481   32.3678 N   0  0  1  0  0  0  0  0  0  0  0  0
  1  2  1  0  0  0  0
  3  1  1  6  0  0  0
  3  4  1  0  0  0  0
  3  5  1  0  0  0  0
  5  6  1  1  0  0  0
  5  7  1  0  0  0  0
  7  8  1  0  0  0  0
  8  4  1  1  0  0  0
  8 19  1  0  0  0  0
  9 15  1  0  0  0  0
  9 10  1  0  0  0  0
 10 11  1  6  0  0  0
 10 12  1  0  0  0  0
 13 12  1  6  0  0  0
 13 14  1  0  0  0  0
 13 19  1  0  0  0  0
 14 15  1  6  0  0  0
 14 17  1  0  0  0  0
 15 16  2  0  0  0  0
 17 18  1  0  0  0  0
 19 18  1  6  0  0  0
M  END
>  <CHROM.1>
179.32113590,9.67081050,20.92463270,29.78558203,33.66315829,0.68848193,0.78605426
1.11560262

>  <Name>
ligand

>  <RI>
0

>  <Rbt.Current_Directory>
/home/itssahil/PROJECTS/Mol_Feturizer/New_Systems/rnas/3SKL

>  <Rbt.Executable>
rbdock ($Id: //depot/dev/client3/rdock/2013.1/src/exe/rbdock.cxx#4 $)

>  <Rbt.Library>
libRbt.so (2013.1, Build901 2013/11/27)

>  <Rbt.Parameter_File>
/export/apps/rDock/src/rDock_2013.1_src/data/scripts/dock_solv.prm

>  <Rbt.Receptor>
prm/pocket_docking_7.prm

>  <SCORE>
-12.3976

>  <SCORE.INTER>
-12.327

>  <SCORE.INTER.CONST>
1

>  <SCORE.INTER.POLAR>
0

>  <SCORE.INTER.ROT>
2

>  <SCORE.INTER.SOLV>
10.6675

>  <SCORE.INTER.VDW>
-16.7072

>  <SCORE.INTER.norm>
-0.64879

>  <SCORE.INTRA>
-0.0706141

>  <SCORE.INTRA.DIHEDRAL>
-0.308387

>  <SCORE.INTRA.DIHEDRAL.0>
1.50031

>  <SCORE.INTRA.POLAR>
0

>  <SCORE.INTRA.POLAR.0>
0

>  <SCORE.INTRA.REPUL>
0

>  <SCORE.INTRA.REPUL.0>
0

>  <SCORE.INTRA.SOLV>
0.476554

>  <SCORE.INTRA.SOLV.lig_0>
-37.9941

>  <SCORE.INTRA.VDW>
-0.154698

>  <SCORE.INTRA.VDW.0>
-0.964461

>  <SCORE.INTRA.norm>
-0.00371653

>  <SCORE.RESTR>
0

>  <SCORE.RESTR.CAVITY>
0

>  <SCORE.RESTR.norm>
0

>  <SCORE.SYSTEM>
0

>  <SCORE.SYSTEM.CONST>
0

>  <SCORE.SYSTEM.DIHEDRAL>
0

>  <SCORE.SYSTEM.SOLV>
0

>  <SCORE.SYSTEM.norm>
0

>  <SCORE.heavy>
19

>  <SCORE.norm>
-0.652507

>  <RMSD>
5.786

$$$$
ligand
 OpenBabel11021811483D
libRbt.so/2013.1/901 2013/11/27
 19 21  0  0  0  0  0  0  0  0999 V2000
   20.9984   31.4957   35.8121 C   0  0  0  0  0  0  0  0  0  0  0  0
   20.7668   32.7453   36.4856 O   0  0  0  0  0  0  0  0  0  0  0  0
   22.3755   31.4725   35.1405 C   0  0  1  0  0  0  0  0  0  0  0  0
   22.5848   30.2305   34.4690 O   0  0  0  0  0  0  0  0  0  0  0  0
   22.5150   32.5670   34.0995 C   0  0  1  0  0  0  0  0  0  0  0  0
   23.7903   33.1879   34.2669 O   0  0  0  0  0  0  0  0  0  0  0  0
   22.4745   31.8870   32.7497 C   0  0  0  0  0  0  0  0  0  0  0  0
   22.6959   30.4155   33.0489 C   0  0  2  0  0  0  0  0  0  0  0  0
   18.6263   27.3253   33.8533 N   0  0  0  0  0  0  0  0  0  0  0  0
   19.3992   28.0178   34.7243 C   0  0  2  0  0  0  0  0  0  0  0  0
   19.1417   27.9655   36.0482 N   0  0  0  0  0  0  0  0  0  0  0  0
   20.4360   28.7730   34.3041 N   0  0  0  0  0  0  0  0  0  0  0  0
   20.7512   28.8725   32.9968 C   0  0  1  0  0  0  0  0  0  0  0  0
   20.0130   28.1930   32.0554 C   0  0  1  0  0  0  0  0  0  0  0  0
   18.8745   27.3676   32.5287 C   0  0  0  0  0  0  0  0  0  0  0  0
   18.1678   26.7243   31.7217 O   0  0  0  0  0  0  0  0  0  0  0  0
   20.5371   28.4682   30.8487 N   0  0  0  0  0  0  0  0  0  0  0  0
   21.5817   29.3038   31.0517 C   0  0  0  0  0  0  0  0  0  0  0  0
   21.7015   29.5445   32.3673 N   0  0  1  0  0  0  0  0  0  0  0  0
  1  2  1  0  0  0  0
  3  1  1  6  0  0  0
  3  4  1  0  0  0  0
  3  5  1  0  0  0  0
  5  6  1  1  0  0  0
  5  7  1  0  0  0  0
  7  8  1  0  0  0  0
  8  4  1  1  0  0  0
  8 19  1  0  0  0  0
  9 15  1  0  0  0  0
  9 10  1  0  0  0  0
 10 11  1  6  0  0  0
 10 12  1  0  0  0  0
 13 12  1  6  0  0  0
 13 14  1  0  0  0  0
 13 19  1  0  0  0  0
 14 15  1  6  0  0  0
 14 17  1  0  0  0  0
 15 16  2  0  0  0  0
 17 18  1  0  0  0  0
 19 18  1  6  0  0  0
M  END
>  <CHROM.1>
-179.56300871,9.10637358,20.94211081,29.77656087,33.65860793,0.69175056,0.79215034
1.11234138

>  <Name>
ligand

>  <RI>
0

>  <Rbt.Current_Directory>
/home/itssahil/PROJECTS/Mol_Feturizer/New_Systems/rnas/3SKL

>  <Rbt.Executable>
rbdock ($Id: //depot/dev/client3/rdock/2013.1/src/exe/rbdock.cxx#4 $)

>  <Rbt.Library>
libRbt.so (2013.1, Build901 2013/11/27)

>  <Rbt.Parameter_File>
/export/apps/rDock/src/rDock_2013.1_src/data/scripts/dock_solv.prm

>  <Rbt.Receptor>
prm/pocket_docking_6.prm

>  <SCORE>
-12.3712

>  <SCORE.INTER>
-12.3255

>  <SCORE.INTER.CONST>
1

>  <SCORE.INTER.POLAR>
0

>  <SCORE.INTER.ROT>
2

>  <SCORE.INTER.SOLV>
10.8877

>  <SCORE.INTER.VDW>
-16.7795

>  <SCORE.INTER.norm>
-0.648709

>  <SCORE.INTRA>
-0.0457434

>  <SCORE.INTRA.DIHEDRAL>
-0.308367

>  <SCORE.INTRA.DIHEDRAL.0>
1.50031

>  <SCORE.INTRA.POLAR>
0

>  <SCORE.INTRA.POLAR.0>
0

>  <SCORE.INTRA.REPUL>
0

>  <SCORE.INTRA.REPUL.0>
0

>  <SCORE.INTRA.SOLV>
0.45999

>  <SCORE.INTRA.SOLV.lig_0>
-37.9941

>  <SCORE.INTRA.VDW>
-0.121555

>  <SCORE.INTRA.VDW.0>
-0.964461

>  <SCORE.INTRA.norm>
-0.00240755

>  <SCORE.RESTR>
0

>  <SCORE.RESTR.CAVITY>
0

>  <SCORE.RESTR.norm>
0

>  <SCORE.SYSTEM>
0

>  <SCORE.SYSTEM.CONST>
0

>  <SCORE.SYSTEM.DIHEDRAL>
0

>  <SCORE.SYSTEM.SOLV>
0

>  <SCORE.SYSTEM.norm>
0

>  <SCORE.heavy>
19

>  <SCORE.norm>
-0.651116

>  <RMSD>
5.793

$$$$
ligand
 OpenBabel11021811483D
libRbt.so/2013.1/901 2013/11/27
 19 21  0  0  0  0  0  0  0  0999 V2000
   22.6623   29.8901   33.2344 C   0  0  0  0  0  0  0  0  0  0  0  0
   24.0369   29.8392   33.6545 O   0  0  0  0  0  0  0  0  0  0  0  0
   21.9736   31.1631   33.7372 C   0  0  1  0  0  0  0  0  0  0  0  0
   20.6101   31.1951   33.3161 O   0  0  0  0  0  0  0  0  0  0  0  0
   21.9705   31.2433   35.2520 C   0  0  1  0  0  0  0  0  0  0  0  0
   22.3361   32.5701   35.6336 O   0  0  0  0  0  0  0  0  0  0  0  0
   20.5493   30.9798   35.6957 C   0  0  0  0  0  0  0  0  0  0  0  0
   19.7144   31.1335   34.4375 C   0  0  2  0  0  0  0  0  0  0  0  0
   18.8914   26.8289   31.6896 N   0  0  0  0  0  0  0  0  0  0  0  0
   19.8938   27.7385   31.6329 C   0  0  2  0  0  0  0  0  0  0  0  0
   20.9015   27.5820   30.7486 N   0  0  0  0  0  0  0  0  0  0  0  0
   19.9193   28.8148   32.4471 N   0  0  0  0  0  0  0  0  0  0  0  0
   18.9469   29.0350   33.3548 C   0  0  1  0  0  0  0  0  0  0  0  0
   17.8945   28.1556   33.4658 C   0  0  1  0  0  0  0  0  0  0  0  0
   17.8780   26.9751   32.5671 C   0  0  0  0  0  0  0  0  0  0  0  0
   16.9469   26.1414   32.6181 O   0  0  0  0  0  0  0  0  0  0  0  0
   17.0831   28.6098   34.4362 N   0  0  0  0  0  0  0  0  0  0  0  0
   17.6330   29.7516   34.9102 C   0  0  0  0  0  0  0  0  0  0  0  0
   18.7714   30.0000   34.2430 N   0  0  1  0  0  0  0  0  0  0  0  0
  1  2  1  0  0  0  0
  3  1  1  1  0  0  0
  3  4  1  0  0  0  0
  3  5  1  0  0  0  0
  5  6  1  6  0  0  0
  5  7  1  0  0  0  0
  7  8  1  0  0  0  0
  8  4  1  6  0  0  0
  8 19  1  0  0  0  0
  9 15  1  0  0  0  0
  9 10  1  0  0  0  0
 10 11  1  1  0  0  0
 10 12  1  0  0  0  0
 13 12  1  1  0  0  0
 13 14  1  0  0  0  0
 13 19  1  0  0  0  0
 14 15  1  1  0  0  0
 14 17  1  0  0  0  0
 15 16  2  0  0  0  0
 17 18  1  0  0  0  0
 19 18  1  1  0  0  0
M  END
>  <CHROM.1>
-179.77986677,14.73793595,20.00126955,29.38606341,33.54119135,-0.77445934
-0.29738104,-2.38541324

>  <Name>
ligand

>  <RI>
0

>  <Rbt.Current_Directory>
/home/itssahil/PROJECTS/Mol_Feturizer/New_Systems/rnas/3SKL

>  <Rbt.Executable>
rbdock ($Id: //depot/dev/client3/rdock/2013.1/src/exe/rbdock.cxx#4 $)

>  <Rbt.Library>
libRbt.so (2013.1, Build901 2013/11/27)

>  <Rbt.Parameter_File>
/export/apps/rDock/src/rDock_2013.1_src/data/scripts/dock_solv.prm

>  <Rbt.Receptor>
prm/pocket_docking_8.prm

>  <SCORE>
-11.2528

>  <SCORE.INTER>
-11.2118

>  <SCORE.INTER.CONST>
1

>  <SCORE.INTER.POLAR>
0

>  <SCORE.INTER.ROT>
2

>  <SCORE.INTER.SOLV>
16.4686

>  <SCORE.INTER.VDW>
-17.8974

>  <SCORE.INTER.norm>
-0.590093

>  <SCORE.INTRA>
-0.0409981

>  <SCORE.INTRA.DIHEDRAL>
-0.31498

>  <SCORE.INTRA.DIHEDRAL.0>
1.50031

>  <SCORE.INTRA.POLAR>
0

>  <SCORE.INTRA.POLAR.0>
0

>  <SCORE.INTRA.REPUL>
0

>  <SCORE.INTRA.REPUL.0>
0

>  <SCORE.INTRA.SOLV>
0.664123

>  <SCORE.INTRA.SOLV.lig_0>
-37.9941

>  <SCORE.INTRA.VDW>
-0.21557

>  <SCORE.INTRA.VDW.0>
-0.964461

>  <SCORE.INTRA.norm>
-0.00215779

>  <SCORE.RESTR>
0

>  <SCORE.RESTR.CAVITY>
0

>  <SCORE.RESTR.norm>
0

>  <SCORE.SYSTEM>
0

>  <SCORE.SYSTEM.CONST>
0

>  <SCORE.SYSTEM.DIHEDRAL>
0

>  <SCORE.SYSTEM.SOLV>
0

>  <SCORE.SYSTEM.norm>
0

>  <SCORE.heavy>
19

>  <SCORE.norm>
-0.59225

>  <RMSD>
5.801

$$$$
ligand
 OpenBabel11021811483D
libRbt.so/2013.1/901 2013/11/27
 19 21  0  0  0  0  0  0  0  0999 V2000
   18.0602   29.1154   32.5029 C   0  0  0  0  0  0  0  0  0  0  0  0
   17.0028   28.1972   32.8306 O   0  0  0  0  0  0  0  0  0  0  0  0
   18.9536   28.5602   31.3887 C   0  0  1  0  0  0  0  0  0  0  0  0
   19.9684   29.5027   31.0435 O   0  0  0  0  0  0  0  0  0  0  0  0
   19.6593   27.2860   31.8122 C   0  0  1  0  0  0  0  0  0  0  0  0
   19.5647   26.3424   30.7443 O   0  0  0  0  0  0  0  0  0  0  0  0
   21.1129   27.6460   32.0208 C   0  0  0  0  0  0  0  0  0  0  0  0
   21.2775   28.9997   31.3544 C   0  0  2  0  0  0  0  0  0  0  0  0
   21.0734   31.3682   35.9486 N   0  0  0  0  0  0  0  0  0  0  0  0
   20.2289   30.4800   35.3710 C   0  0  2  0  0  0  0  0  0  0  0  0
   19.1212   30.0735   36.0264 N   0  0  0  0  0  0  0  0  0  0  0  0
   20.4638   29.9780   34.1402 N   0  0  0  0  0  0  0  0  0  0  0  0
   21.5504   30.3384   33.4277 C   0  0  1  0  0  0  0  0  0  0  0  0
   22.4495   31.2400   33.9490 C   0  0  1  0  0  0  0  0  0  0  0  0
   22.1821   31.7836   35.3035 C   0  0  0  0  0  0  0  0  0  0  0  0
   22.9608   32.6087   35.8301 O   0  0  0  0  0  0  0  0  0  0  0  0
   23.4248   31.4158   33.0411 N   0  0  0  0  0  0  0  0  0  0  0  0
   23.1240   30.6323   31.9798 C   0  0  0  0  0  0  0  0  0  0  0  0
   21.9779   29.9783   32.2284 N   0  0  1  0  0  0  0  0  0  0  0  0
  1  2  1  0  0  0  0
  3  1  1  1  0  0  0
  3  4  1  0  0  0  0
  3  5  1  0  0  0  0
  5  6  1  6  0  0  0
  5  7  1  0  0  0  0
  7  8  1  0  0  0  0
  8  4  1  1  0  0  0
  8 19  1  0  0  0  0
  9 15  1  0  0  0  0
  9 10  1  0  0  0  0
 10 11  1  1  0  0  0
 10 12  1  0  0  0  0
 13 12  1  1  0  0  0
 13 14  1  0  0  0  0
 13 19  1  0  0  0  0
 14 15  1  1  0  0  0
 14 17  1  0  0  0  0
 15 16  2  0  0  0  0
 17 18  1  0  0  0  0
 19 18  1  1  0  0  0
M  END
>  <CHROM.1>
177.96578964,61.32875251,20.68277802,29.72068114,33.17787507,2.18301279,-0.41990499
-2.13803867

>  <Name>
ligand

>  <RI>
0

>  <Rbt.Current_Directory>
/home/itssahil/PROJECTS/Mol_Feturizer/New_Systems/rnas/3SKL

>  <Rbt.Executable>
rbdock ($Id: //depot/dev/client3/rdock/2013.1/src/exe/rbdock.cxx#4 $)

>  <Rbt.Library>
libRbt.so (2013.1, Build901 2013/11/27)

>  <Rbt.Parameter_File>
/export/apps/rDock/src/rDock_2013.1_src/data/scripts/dock_solv.prm

>  <Rbt.Receptor>
prm/pocket_docking_5.prm

>  <SCORE>
-11.1777

>  <SCORE.INTER>
-10.6643

>  <SCORE.INTER.CONST>
1

>  <SCORE.INTER.POLAR>
0

>  <SCORE.INTER.ROT>
2

>  <SCORE.INTER.SOLV>
13.6741

>  <SCORE.INTER.VDW>
-16.6009

>  <SCORE.INTER.norm>
-0.561277

>  <SCORE.INTRA>
-0.513621

>  <SCORE.INTRA.DIHEDRAL>
-0.282662

>  <SCORE.INTRA.DIHEDRAL.0>
1.50031

>  <SCORE.INTRA.POLAR>
0

>  <SCORE.INTRA.POLAR.0>
0

>  <SCORE.INTRA.REPUL>
0

>  <SCORE.INTRA.REPUL.0>
0

>  <SCORE.INTRA.SOLV>
0.712691

>  <SCORE.INTRA.SOLV.lig_0>
-37.9941

>  <SCORE.INTRA.VDW>
-0.728636

>  <SCORE.INTRA.VDW.0>
-0.964461

>  <SCORE.INTRA.norm>
-0.0270327

>  <SCORE.RESTR>
0.000207056

>  <SCORE.RESTR.CAVITY>
0.000207056

>  <SCORE.RESTR.norm>
1.08977e-05

>  <SCORE.SYSTEM>
0

>  <SCORE.SYSTEM.CONST>
0

>  <SCORE.SYSTEM.DIHEDRAL>
0

>  <SCORE.SYSTEM.SOLV>
0

>  <SCORE.SYSTEM.norm>
0

>  <SCORE.heavy>
19

>  <SCORE.norm>
-0.588298

>  <RMSD>
5.902

$$$$
ligand
 OpenBabel11021811483D
libRbt.so/2013.1/901 2013/11/27
 19 21  0  0  0  0  0  0  0  0999 V2000
   19.7333   23.8779   40.0629 C   0  0  0  0  0  0  0  0  0  0  0  0
   19.0534   22.8956   40.8638 O   0  0  0  0  0  0  0  0  0  0  0  0
   18.7711   24.5625   39.0866 C   0  0  1  0  0  0  0  0  0  0  0  0
   17.7637   25.2818   39.7973 O   0  0  0  0  0  0  0  0  0  0  0  0
   19.4850   25.5631   38.1978 C   0  0  1  0  0  0  0  0  0  0  0  0
   19.0243   25.3844   36.8578 O   0  0  0  0  0  0  0  0  0  0  0  0
   19.0750   26.9370   38.6778 C   0  0  0  0  0  0  0  0  0  0  0  0
   17.8640   26.6950   39.5603 C   0  0  2  0  0  0  0  0  0  0  0  0
   19.8245   26.3466   44.3344 N   0  0  0  0  0  0  0  0  0  0  0  0
   19.8764   25.4852   43.2900 C   0  0  2  0  0  0  0  0  0  0  0  0
   20.5337   24.3126   43.4108 N   0  0  0  0  0  0  0  0  0  0  0  0
   19.2828   25.7667   42.1108 N   0  0  0  0  0  0  0  0  0  0  0  0
   18.6095   26.9189   41.9181 C   0  0  1  0  0  0  0  0  0  0  0  0
   18.5111   27.8393   42.9361 C   0  0  1  0  0  0  0  0  0  0  0  0
   19.1693   27.5202   44.2270 C   0  0  0  0  0  0  0  0  0  0  0  0
   19.1130   28.3152   45.1910 O   0  0  0  0  0  0  0  0  0  0  0  0
   17.7972   28.8814   42.4771 N   0  0  0  0  0  0  0  0  0  0  0  0
   17.4637   28.5999   41.1964 C   0  0  0  0  0  0  0  0  0  0  0  0
   17.9666   27.3995   40.8661 N   0  0  1  0  0  0  0  0  0  0  0  0
  1  2  1  0  0  0  0
  3  1  1  1  0  0  0
  3  4  1  0  0  0  0
  3  5  1  0  0  0  0
  5  6  1  6  0  0  0
  5  7  1  0  0  0  0
  7  8  1  0  0  0  0
  8  4  1  1  0  0  0
  8 19  1  0  0  0  0
  9 15  1  0  0  0  0
  9 10  1  0  0  0  0
 10 11  1  6  0  0  0
 10 12  1  0  0  0  0
 13 12  1  6  0  0  0
 13 14  1  0  0  0  0
 13 19  1  0  0  0  0
 14 15  1  6  0  0  0
 14 17  1  0  0  0  0
 15 16  2  0  0  0  0
 17 18  1  0  0  0  0
 19 18  1  6  0  0  0
M  END
>  <CHROM.1>
63.13741097,35.62278029,18.89419610,26.18530268,41.27280328,-1.63960694,-1.15236957
1.09777878

>  <Name>
ligand

>  <RI>
0

>  <Rbt.Current_Directory>
/home/itssahil/PROJECTS/Mol_Feturizer/New_Systems/rnas/3SKL

>  <Rbt.Executable>
rbdock ($Id: //depot/dev/client3/rdock/2013.1/src/exe/rbdock.cxx#4 $)

>  <Rbt.Library>
libRbt.so (2013.1, Build901 2013/11/27)

>  <Rbt.Parameter_File>
/export/apps/rDock/src/rDock_2013.1_src/data/scripts/dock_solv.prm

>  <Rbt.Receptor>
prm/pocket_docking_6.prm

>  <SCORE>
-12.3684

>  <SCORE.INTER>
-13.0667

>  <SCORE.INTER.CONST>
1

>  <SCORE.INTER.POLAR>
0

>  <SCORE.INTER.ROT>
2

>  <SCORE.INTER.SOLV>
18.7095

>  <SCORE.INTER.VDW>
-19.881

>  <SCORE.INTER.norm>
-0.687721

>  <SCORE.INTRA>
0.401268

>  <SCORE.INTRA.DIHEDRAL>
-0.285754

>  <SCORE.INTRA.DIHEDRAL.0>
1.50031

>  <SCORE.INTRA.POLAR>
0

>  <SCORE.INTRA.POLAR.0>
0

>  <SCORE.INTRA.REPUL>
0

>  <SCORE.INTRA.REPUL.0>
0

>  <SCORE.INTRA.SOLV>
2.28591

>  <SCORE.INTRA.SOLV.lig_0>
-37.9941

>  <SCORE.INTRA.VDW>
-0.59881

>  <SCORE.INTRA.VDW.0>
-0.964461

>  <SCORE.INTRA.norm>
0.0211194

>  <SCORE.RESTR>
0.297041

>  <SCORE.RESTR.CAVITY>
0.297041

>  <SCORE.RESTR.norm>
0.0156337

>  <SCORE.SYSTEM>
0

>  <SCORE.SYSTEM.CONST>
0

>  <SCORE.SYSTEM.DIHEDRAL>
0

>  <SCORE.SYSTEM.SOLV>
0

>  <SCORE.SYSTEM.norm>
0

>  <SCORE.heavy>
19

>  <SCORE.norm>
-0.650968

>  <RMSD>
5.967

$$$$
ligand
 OpenBabel11021811483D
libRbt.so/2013.1/901 2013/11/27
 19 21  0  0  0  0  0  0  0  0999 V2000
   22.7583   29.8468   33.3768 C   0  0  0  0  0  0  0  0  0  0  0  0
   24.0617   29.7303   33.9737 O   0  0  0  0  0  0  0  0  0  0  0  0
   22.0792   31.1612   33.7757 C   0  0  1  0  0  0  0  0  0  0  0  0
   20.7646   31.2336   33.2245 O   0  0  0  0  0  0  0  0  0  0  0  0
   21.9354   31.2890   35.2804 C   0  0  1  0  0  0  0  0  0  0  0  0
   22.3187   32.6118   35.6587 O   0  0  0  0  0  0  0  0  0  0  0  0
   20.4687   31.0958   35.5922 C   0  0  0  0  0  0  0  0  0  0  0  0
   19.7645   31.2426   34.2556 C   0  0  2  0  0  0  0  0  0  0  0  0
   19.0010   26.9211   31.5172 N   0  0  0  0  0  0  0  0  0  0  0  0
   20.0391   27.7915   31.5283 C   0  0  2  0  0  0  0  0  0  0  0  0
   21.1082   27.5811   30.7317 N   0  0  0  0  0  0  0  0  0  0  0  0
   20.0401   28.8811   32.3250 N   0  0  0  0  0  0  0  0  0  0  0  0
   19.0066   29.1542   33.1468 C   0  0  1  0  0  0  0  0  0  0  0  0
   17.9156   28.3169   33.1852 C   0  0  1  0  0  0  0  0  0  0  0  0
   17.9263   27.1213   32.3066 C   0  0  0  0  0  0  0  0  0  0  0  0
   16.9627   26.3239   32.2945 O   0  0  0  0  0  0  0  0  0  0  0  0
   17.0464   28.8190   34.0790 N   0  0  0  0  0  0  0  0  0  0  0  0
   17.5998   29.9482   34.5784 C   0  0  0  0  0  0  0  0  0  0  0  0
   18.7972   30.1415   34.0025 N   0  0  1  0  0  0  0  0  0  0  0  0
  1  2  1  0  0  0  0
  3  1  1  1  0  0  0
  3  4  1  0  0  0  0
  3  5  1  0  0  0  0
  5  6  1  6  0  0  0
  5  7  1  0  0  0  0
  7  8  1  0  0  0  0
  8  4  1  6  0  0  0
  8 19  1  0  0  0  0
  9 15  1  0  0  0  0
  9 10  1  0  0  0  0
 10 11  1  1  0  0  0
 10 12  1  0  0  0  0
 13 12  1  1  0  0  0
 13 14  1  0  0  0  0
 13 19  1  0  0  0  0
 14 15  1  1  0  0  0
 14 17  1  0  0  0  0
 15 16  2  0  0  0  0
 17 18  1  0  0  0  0
 19 18  1  1  0  0  0
M  END
>  <CHROM.1>
-177.39089067,13.63008463,20.05294380,29.46537283,33.42994869,-0.80976446
-0.20171740,-2.41058353

>  <Name>
ligand

>  <RI>
0

>  <Rbt.Current_Directory>
/home/itssahil/PROJECTS/Mol_Feturizer/New_Systems/rnas/3SKL

>  <Rbt.Executable>
rbdock ($Id: //depot/dev/client3/rdock/2013.1/src/exe/rbdock.cxx#4 $)

>  <Rbt.Library>
libRbt.so (2013.1, Build901 2013/11/27)

>  <Rbt.Parameter_File>
/export/apps/rDock/src/rDock_2013.1_src/data/scripts/dock_solv.prm

>  <Rbt.Receptor>
prm/pocket_docking_8.prm

>  <SCORE>
-11.4625

>  <SCORE.INTER>
-11.4515

>  <SCORE.INTER.CONST>
1

>  <SCORE.INTER.POLAR>
0

>  <SCORE.INTER.ROT>
2

>  <SCORE.INTER.SOLV>
16.6726

>  <SCORE.INTER.VDW>
-18.1252

>  <SCORE.INTER.norm>
-0.602713

>  <SCORE.INTRA>
-0.0110047

>  <SCORE.INTRA.DIHEDRAL>
-0.288769

>  <SCORE.INTRA.DIHEDRAL.0>
1.50031

>  <SCORE.INTRA.POLAR>
0

>  <SCORE.INTRA.POLAR.0>
0

>  <SCORE.INTRA.REPUL>
0

>  <SCORE.INTRA.REPUL.0>
0

>  <SCORE.INTRA.SOLV>
0.637771

>  <SCORE.INTRA.SOLV.lig_0>
-37.9941

>  <SCORE.INTRA.VDW>
-0.185505

>  <SCORE.INTRA.VDW.0>
-0.964461

>  <SCORE.INTRA.norm>
-0.000579194

>  <SCORE.RESTR>
0

>  <SCORE.RESTR.CAVITY>
0

>  <SCORE.RESTR.norm>
0

>  <SCORE.SYSTEM>
0

>  <SCORE.SYSTEM.CONST>
0

>  <SCORE.SYSTEM.DIHEDRAL>
0

>  <SCORE.SYSTEM.SOLV>
0

>  <SCORE.SYSTEM.norm>
0

>  <SCORE.heavy>
19

>  <SCORE.norm>
-0.603292

>  <RMSD>
5.969

$$$$
ligand
 OpenBabel11021811483D
libRbt.so/2013.1/901 2013/11/27
 19 21  0  0  0  0  0  0  0  0999 V2000
   22.7585   29.9361   33.2428 C   0  0  0  0  0  0  0  0  0  0  0  0
   24.0863   29.8094   33.7809 O   0  0  0  0  0  0  0  0  0  0  0  0
   22.0844   31.2257   33.7229 C   0  0  1  0  0  0  0  0  0  0  0  0
   20.7473   31.3058   33.2297 O   0  0  0  0  0  0  0  0  0  0  0  0
   22.0021   31.2907   35.2361 C   0  0  1  0  0  0  0  0  0  0  0  0
   22.3885   32.6012   35.6523 O   0  0  0  0  0  0  0  0  0  0  0  0
   20.5515   31.0688   35.5999 C   0  0  0  0  0  0  0  0  0  0  0  0
   19.7910   31.2620   34.3006 C   0  0  2  0  0  0  0  0  0  0  0  0
   19.0144   26.9721   31.5166 N   0  0  0  0  0  0  0  0  0  0  0  0
   20.0504   27.8451   31.5291 C   0  0  2  0  0  0  0  0  0  0  0  0
   21.1129   27.6472   30.7207 N   0  0  0  0  0  0  0  0  0  0  0  0
   20.0556   28.9249   32.3390 N   0  0  0  0  0  0  0  0  0  0  0  0
   19.0287   29.1853   33.1732 C   0  0  1  0  0  0  0  0  0  0  0  0
   17.9402   28.3446   33.2109 C   0  0  1  0  0  0  0  0  0  0  0  0
   17.9463   27.1598   32.3178 C   0  0  0  0  0  0  0  0  0  0  0  0
   16.9845   26.3601   32.3043 O   0  0  0  0  0  0  0  0  0  0  0  0
   17.0777   28.8335   34.1183 N   0  0  0  0  0  0  0  0  0  0  0  0
   17.6325   29.9580   34.6266 C   0  0  0  0  0  0  0  0  0  0  0  0
   18.8243   30.1615   34.0426 N   0  0  1  0  0  0  0  0  0  0  0  0
  1  2  1  0  0  0  0
  3  1  1  1  0  0  0
  3  4  1  0  0  0  0
  3  5  1  0  0  0  0
  5  6  1  6  0  0  0
  5  7  1  0  0  0  0
  7  8  1  0  0  0  0
  8  4  1  6  0  0  0
  8 19  1  0  0  0  0
  9 15  1  0  0  0  0
  9 10  1  0  0  0  0
 10 11  1  1  0  0  0
 10 12  1  0  0  0  0
 13 12  1  1  0  0  0
 13 14  1  0  0  0  0
 13 19  1  0  0  0  0
 14 15  1  1  0  0  0
 14 17  1  0  0  0  0
 15 16  2  0  0  0  0
 17 18  1  0  0  0  0
 19 18  1  1  0  0  0
M  END
>  <CHROM.1>
-177.35366099,16.15521349,20.07838168,29.50167954,33.41884605,-0.79409353
-0.22715559,-2.39699737

>  <Name>
ligand

>  <RI>
0

>  <Rbt.Current_Directory>
/home/itssahil/PROJECTS/Mol_Feturizer/New_Systems/rnas/3SKL

>  <Rbt.Executable>
rbdock ($Id: //depot/dev/client3/rdock/2013.1/src/exe/rbdock.cxx#4 $)

>  <Rbt.Library>
libRbt.so (2013.1, Build901 2013/11/27)

>  <Rbt.Parameter_File>
/export/apps/rDock/src/rDock_2013.1_src/data/scripts/dock_solv.prm

>  <Rbt.Receptor>
prm/pocket_docking_5.prm

>  <SCORE>
-11.3411

>  <SCORE.INTER>
-11.3459

>  <SCORE.INTER.CONST>
1

>  <SCORE.INTER.POLAR>
0

>  <SCORE.INTER.ROT>
2

>  <SCORE.INTER.SOLV>
16.6814

>  <SCORE.INTER.VDW>
-18.0578

>  <SCORE.INTER.norm>
-0.597154

>  <SCORE.INTRA>
0.00477572

>  <SCORE.INTRA.DIHEDRAL>
-0.290443

>  <SCORE.INTRA.DIHEDRAL.0>
1.50031

>  <SCORE.INTRA.POLAR>
0

>  <SCORE.INTRA.POLAR.0>
0

>  <SCORE.INTRA.REPUL>
0

>  <SCORE.INTRA.REPUL.0>
0

>  <SCORE.INTRA.SOLV>
0.722313

>  <SCORE.INTRA.SOLV.lig_0>
-37.9941

>  <SCORE.INTRA.VDW>
-0.211159

>  <SCORE.INTRA.VDW.0>
-0.964461

>  <SCORE.INTRA.norm>
0.000251354

>  <SCORE.RESTR>
0

>  <SCORE.RESTR.CAVITY>
0

>  <SCORE.RESTR.norm>
0

>  <SCORE.SYSTEM>
0

>  <SCORE.SYSTEM.CONST>
0

>  <SCORE.SYSTEM.DIHEDRAL>
0

>  <SCORE.SYSTEM.SOLV>
0

>  <SCORE.SYSTEM.norm>
0

>  <SCORE.heavy>
19

>  <SCORE.norm>
-0.596902

>  <RMSD>
5.971

$$$$
ligand
 OpenBabel11021811483D
libRbt.so/2013.1/901 2013/11/27
 19 21  0  0  0  0  0  0  0  0999 V2000
   18.5276   25.0859   38.3982 C   0  0  0  0  0  0  0  0  0  0  0  0
   17.6079   24.4280   39.2870 O   0  0  0  0  0  0  0  0  0  0  0  0
   18.9420   26.4572   38.9419 C   0  0  1  0  0  0  0  0  0  0  0  0
   19.9333   27.0501   38.1033 O   0  0  0  0  0  0  0  0  0  0  0  0
   17.7723   27.4216   38.9937 C   0  0  1  0  0  0  0  0  0  0  0  0
   17.8048   28.1023   40.2488 O   0  0  0  0  0  0  0  0  0  0  0  0
   17.9915   28.4265   37.8855 C   0  0  0  0  0  0  0  0  0  0  0  0
   19.4436   28.2487   37.4811 C   0  0  2  0  0  0  0  0  0  0  0  0
   21.2927   30.6655   33.2980 N   0  0  0  0  0  0  0  0  0  0  0  0
   21.2588   31.0448   34.5982 C   0  0  2  0  0  0  0  0  0  0  0  0
   21.7768   32.2342   34.9707 N   0  0  0  0  0  0  0  0  0  0  0  0
   20.7158   30.2576   35.5508 N   0  0  0  0  0  0  0  0  0  0  0  0
   20.1806   29.0566   35.2519 C   0  0  1  0  0  0  0  0  0  0  0  0
   20.1753   28.6080   33.9512 C   0  0  1  0  0  0  0  0  0  0  0  0
   20.7768   29.4807   32.9129 C   0  0  0  0  0  0  0  0  0  0  0  0
   20.7996   29.1297   31.7126 O   0  0  0  0  0  0  0  0  0  0  0  0
   19.5905   27.3979   33.9388 N   0  0  0  0  0  0  0  0  0  0  0  0
   19.2429   27.1128   35.2150 C   0  0  0  0  0  0  0  0  0  0  0  0
   19.6097   28.1326   36.0076 N   0  0  1  0  0  0  0  0  0  0  0  0
  1  2  1  0  0  0  0
  3  1  1  6  0  0  0
  3  4  1  0  0  0  0
  3  5  1  0  0  0  0
  5  6  1  1  0  0  0
  5  7  1  0  0  0  0
  7  8  1  0  0  0  0
  8  4  1  1  0  0  0
  8 19  1  0  0  0  0
  9 15  1  0  0  0  0
  9 10  1  0  0  0  0
 10 11  1  1  0  0  0
 10 12  1  0  0  0  0
 13 12  1  1  0  0  0
 13 14  1  0  0  0  0
 13 19  1  0  0  0  0
 14 15  1  1  0  0  0
 14 17  1  0  0  0  0
 15 16  2  0  0  0  0
 17 18  1  0  0  0  0
 19 18  1  1  0  0  0
M  END
>  <CHROM.1>
175.42530493,-129.71083258,19.62070611,28.28129460,36.22210199,2.86426965
1.15920328,0.90334155

>  <Name>
ligand

>  <RI>
0

>  <Rbt.Current_Directory>
/home/itssahil/PROJECTS/Mol_Feturizer/New_Systems/rnas/3SKL

>  <Rbt.Executable>
rbdock ($Id: //depot/dev/client3/rdock/2013.1/src/exe/rbdock.cxx#4 $)

>  <Rbt.Library>
libRbt.so (2013.1, Build901 2013/11/27)

>  <Rbt.Parameter_File>
/export/apps/rDock/src/rDock_2013.1_src/data/scripts/dock_solv.prm

>  <Rbt.Receptor>
prm/pocket_docking_4.prm

>  <SCORE>
-13.1277

>  <SCORE.INTER>
-12.6089

>  <SCORE.INTER.CONST>
1

>  <SCORE.INTER.POLAR>
0

>  <SCORE.INTER.ROT>
2

>  <SCORE.INTER.SOLV>
13.8779

>  <SCORE.INTER.VDW>
-17.9652

>  <SCORE.INTER.norm>
-0.663624

>  <SCORE.INTRA>
-0.522141

>  <SCORE.INTRA.DIHEDRAL>
-0.211685

>  <SCORE.INTRA.DIHEDRAL.0>
1.50031

>  <SCORE.INTRA.POLAR>
0

>  <SCORE.INTRA.POLAR.0>
0

>  <SCORE.INTRA.REPUL>
0

>  <SCORE.INTRA.REPUL.0>
0

>  <SCORE.INTRA.SOLV>
-0.480811

>  <SCORE.INTRA.SOLV.lig_0>
-37.9941

>  <SCORE.INTRA.VDW>
-0.175894

>  <SCORE.INTRA.VDW.0>
-0.964461

>  <SCORE.INTRA.norm>
-0.0274811

>  <SCORE.RESTR>
0.00332121

>  <SCORE.RESTR.CAVITY>
0.00332121

>  <SCORE.RESTR.norm>
0.0001748

>  <SCORE.SYSTEM>
0

>  <SCORE.SYSTEM.CONST>
0

>  <SCORE.SYSTEM.DIHEDRAL>
0

>  <SCORE.SYSTEM.SOLV>
0

>  <SCORE.SYSTEM.norm>
0

>  <SCORE.heavy>
19

>  <SCORE.norm>
-0.690931

>  <RMSD>
5.990

$$$$
ligand
 OpenBabel11021811483D
libRbt.so/2013.1/901 2013/11/27
 19 21  0  0  0  0  0  0  0  0999 V2000
   23.9901   32.3870   32.2010 C   0  0  0  0  0  0  0  0  0  0  0  0
   24.0944   30.9726   31.9616 O   0  0  0  0  0  0  0  0  0  0  0  0
   22.8474   32.7041   33.1714 C   0  0  1  0  0  0  0  0  0  0  0  0
   21.6078   32.2100   32.6646 O   0  0  0  0  0  0  0  0  0  0  0  0
   23.0606   32.0566   34.5264 C   0  0  1  0  0  0  0  0  0  0  0  0
   22.7609   33.0194   35.5379 O   0  0  0  0  0  0  0  0  0  0  0  0
   22.0687   30.9196   34.6229 C   0  0  0  0  0  0  0  0  0  0  0  0
   21.0722   31.1774   33.5074 C   0  0  2  0  0  0  0  0  0  0  0  0
   17.8108   27.2204   32.8269 N   0  0  0  0  0  0  0  0  0  0  0  0
   17.8021   28.2310   33.7292 C   0  0  2  0  0  0  0  0  0  0  0  0
   16.8130   28.3142   34.6438 N   0  0  0  0  0  0  0  0  0  0  0  0
   18.7664   29.1754   33.7429 N   0  0  0  0  0  0  0  0  0  0  0  0
   19.7845   29.1559   32.8589 C   0  0  1  0  0  0  0  0  0  0  0  0
   19.8610   28.1565   31.9165 C   0  0  1  0  0  0  0  0  0  0  0  0
   18.7944   27.1251   31.9096 C   0  0  0  0  0  0  0  0  0  0  0  0
   18.8102   26.1897   31.0792 O   0  0  0  0  0  0  0  0  0  0  0  0
   20.9591   28.3783   31.1739 N   0  0  0  0  0  0  0  0  0  0  0  0
   21.5450   29.4979   31.6577 C   0  0  0  0  0  0  0  0  0  0  0  0
   20.8176   29.9643   32.6855 N   0  0  1  0  0  0  0  0  0  0  0  0
  1  2  1  0  0  0  0
  3  1  1  6  0  0  0
  3  4  1  0  0  0  0
  3  5  1  0  0  0  0
  5  6  1  1  0  0  0
  5  7  1  0  0  0  0
  7  8  1  0  0  0  0
  8  4  1  6  0  0  0
  8 19  1  0  0  0  0
  9 15  1  0  0  0  0
  9 10  1  0  0  0  0
 10 11  1  6  0  0  0
 10 12  1  0  0  0  0
 13 12  1  6  0  0  0
 13 14  1  0  0  0  0
 13 19  1  0  0  0  0
 14 15  1  6  0  0  0
 14 17  1  0  0  0  0
 15 16  2  0  0  0  0
 17 18  1  0  0  0  0
 19 18  1  6  0  0  0
M  END
>  <CHROM.1>
-57.87208658,-142.88059764,20.75788186,29.88727508,32.97707541,-0.59174998
-0.55859592,-2.28118219

>  <Name>
ligand

>  <RI>
0

>  <Rbt.Current_Directory>
/home/itssahil/PROJECTS/Mol_Feturizer/New_Systems/rnas/3SKL

>  <Rbt.Executable>
rbdock ($Id: //depot/dev/client3/rdock/2013.1/src/exe/rbdock.cxx#4 $)

>  <Rbt.Library>
libRbt.so (2013.1, Build901 2013/11/27)

>  <Rbt.Parameter_File>
/export/apps/rDock/src/rDock_2013.1_src/data/scripts/dock_solv.prm

>  <Rbt.Receptor>
prm/pocket_docking_6.prm

>  <SCORE>
-12.6978

>  <SCORE.INTER>
-12.1121

>  <SCORE.INTER.CONST>
1

>  <SCORE.INTER.POLAR>
0

>  <SCORE.INTER.ROT>
2

>  <SCORE.INTER.SOLV>
16.1942

>  <SCORE.INTER.VDW>
-18.4062

>  <SCORE.INTER.norm>
-0.637481

>  <SCORE.INTRA>
-0.58567

>  <SCORE.INTRA.DIHEDRAL>
-0.257805

>  <SCORE.INTRA.DIHEDRAL.0>
1.50031

>  <SCORE.INTRA.POLAR>
0

>  <SCORE.INTRA.POLAR.0>
0

>  <SCORE.INTRA.REPUL>
0

>  <SCORE.INTRA.REPUL.0>
0

>  <SCORE.INTRA.SOLV>
0.0415074

>  <SCORE.INTRA.SOLV.lig_0>
-37.9941

>  <SCORE.INTRA.VDW>
-0.477521

>  <SCORE.INTRA.VDW.0>
-0.964461

>  <SCORE.INTRA.norm>
-0.0308247

>  <SCORE.RESTR>
0

>  <SCORE.RESTR.CAVITY>
0

>  <SCORE.RESTR.norm>
0

>  <SCORE.SYSTEM>
0

>  <SCORE.SYSTEM.CONST>
0

>  <SCORE.SYSTEM.DIHEDRAL>
0

>  <SCORE.SYSTEM.SOLV>
0

>  <SCORE.SYSTEM.norm>
0

>  <SCORE.heavy>
19

>  <SCORE.norm>
-0.668306

>  <RMSD>
6.013

$$$$
ligand
 OpenBabel11021811483D
libRbt.so/2013.1/901 2013/11/27
 19 21  0  0  0  0  0  0  0  0999 V2000
   23.0921   30.3873   33.5380 C   0  0  0  0  0  0  0  0  0  0  0  0
   23.3361   30.4068   32.1207 O   0  0  0  0  0  0  0  0  0  0  0  0
   22.3297   31.6378   33.9885 C   0  0  1  0  0  0  0  0  0  0  0  0
   21.0150   31.6507   33.4327 O   0  0  0  0  0  0  0  0  0  0  0  0
   22.1727   31.6913   35.4963 C   0  0  1  0  0  0  0  0  0  0  0  0
   22.4701   33.0182   35.9333 O   0  0  0  0  0  0  0  0  0  0  0  0
   20.7201   31.3926   35.7904 C   0  0  0  0  0  0  0  0  0  0  0  0
   20.0127   31.5522   34.4569 C   0  0  2  0  0  0  0  0  0  0  0  0
   19.3493   27.5241   31.2801 N   0  0  0  0  0  0  0  0  0  0  0  0
   20.3105   28.4784   31.3125 C   0  0  2  0  0  0  0  0  0  0  0  0
   21.3146   28.4596   30.4108 N   0  0  0  0  0  0  0  0  0  0  0  0
   20.2976   29.4643   32.2344 N   0  0  0  0  0  0  0  0  0  0  0  0
   19.3261   29.5454   33.1659 C   0  0  1  0  0  0  0  0  0  0  0  0
   18.3144   28.6133   33.1908 C   0  0  1  0  0  0  0  0  0  0  0  0
   18.3399   27.5330   32.1740 C   0  0  0  0  0  0  0  0  0  0  0  0
   17.4467   26.6580   32.1434 O   0  0  0  0  0  0  0  0  0  0  0  0
   17.4942   28.9276   34.2082 N   0  0  0  0  0  0  0  0  0  0  0  0
   17.9987   30.0373   34.7954 C   0  0  0  0  0  0  0  0  0  0  0  0
   19.1181   30.4041   34.1509 N   0  0  1  0  0  0  0  0  0  0  0  0
  1  2  1  0  0  0  0
  3  1  1  1  0  0  0
  3  4  1  0  0  0  0
  3  5  1  0  0  0  0
  5  6  1  6  0  0  0
  5  7  1  0  0  0  0
  7  8  1  0  0  0  0
  8  4  1  6  0  0  0
  8 19  1  0  0  0  0
  9 15  1  0  0  0  0
  9 10  1  0  0  0  0
 10 11  1  1  0  0  0
 10 12  1  0  0  0  0
 13 12  1  1  0  0  0
 13 14  1  0  0  0  0
 13 19  1  0  0  0  0
 14 15  1  1  0  0  0
 14 17  1  0  0  0  0
 15 16  2  0  0  0  0
 17 18  1  0  0  0  0
 19 18  1  1  0  0  0
M  END
>  <CHROM.1>
65.98674269,6.59988283,20.29850376,29.89876421,33.36265753,-0.86991033,-0.39379814
-2.25378631

>  <Name>
ligand

>  <RI>
0

>  <Rbt.Current_Directory>
/home/itssahil/PROJECTS/Mol_Feturizer/New_Systems/rnas/3SKL

>  <Rbt.Executable>
rbdock ($Id: //depot/dev/client3/rdock/2013.1/src/exe/rbdock.cxx#4 $)

>  <Rbt.Library>
libRbt.so (2013.1, Build901 2013/11/27)

>  <Rbt.Parameter_File>
/export/apps/rDock/src/rDock_2013.1_src/data/scripts/dock_solv.prm

>  <Rbt.Receptor>
prm/pocket_docking_8.prm

>  <SCORE>
-11.514

>  <SCORE.INTER>
-11.7626

>  <SCORE.INTER.CONST>
1

>  <SCORE.INTER.POLAR>
0

>  <SCORE.INTER.ROT>
2

>  <SCORE.INTER.SOLV>
17.8948

>  <SCORE.INTER.VDW>
-18.74

>  <SCORE.INTER.norm>
-0.619083

>  <SCORE.INTRA>
0.248566

>  <SCORE.INTRA.DIHEDRAL>
-0.175836

>  <SCORE.INTRA.DIHEDRAL.0>
1.50031

>  <SCORE.INTRA.POLAR>
0

>  <SCORE.INTRA.POLAR.0>
0

>  <SCORE.INTRA.REPUL>
0

>  <SCORE.INTRA.REPUL.0>
0

>  <SCORE.INTRA.SOLV>
1.54816

>  <SCORE.INTRA.SOLV.lig_0>
-37.9941

>  <SCORE.INTRA.VDW>
-0.437598

>  <SCORE.INTRA.VDW.0>
-0.964461

>  <SCORE.INTRA.norm>
0.0130824

>  <SCORE.RESTR>
0

>  <SCORE.RESTR.CAVITY>
0

>  <SCORE.RESTR.norm>
0

>  <SCORE.SYSTEM>
0

>  <SCORE.SYSTEM.CONST>
0

>  <SCORE.SYSTEM.DIHEDRAL>
0

>  <SCORE.SYSTEM.SOLV>
0

>  <SCORE.SYSTEM.norm>
0

>  <SCORE.heavy>
19

>  <SCORE.norm>
-0.606

>  <RMSD>
6.167

$$$$
ligand
 OpenBabel11021811483D
libRbt.so/2013.1/901 2013/11/27
 19 21  0  0  0  0  0  0  0  0999 V2000
   23.4287   29.9691   33.5547 C   0  0  0  0  0  0  0  0  0  0  0  0
   22.5484   28.9319   34.0215 O   0  0  0  0  0  0  0  0  0  0  0  0
   22.8053   31.3557   33.7458 C   0  0  1  0  0  0  0  0  0  0  0  0
   21.5231   31.4191   33.1218 O   0  0  0  0  0  0  0  0  0  0  0  0
   22.6003   31.6859   35.2121 C   0  0  1  0  0  0  0  0  0  0  0  0
   23.0380   33.0266   35.4374 O   0  0  0  0  0  0  0  0  0  0  0  0
   21.1124   31.6065   35.4689 C   0  0  0  0  0  0  0  0  0  0  0  0
   20.4791   31.6114   34.0895 C   0  0  2  0  0  0  0  0  0  0  0  0
   19.2907   27.3879   31.3494 N   0  0  0  0  0  0  0  0  0  0  0  0
   20.3398   28.2400   31.2543 C   0  0  2  0  0  0  0  0  0  0  0  0
   21.2964   28.0357   30.3243 N   0  0  0  0  0  0  0  0  0  0  0  0
   20.4627   29.3049   32.0746 N   0  0  0  0  0  0  0  0  0  0  0  0
   19.5459   29.5705   33.0269 C   0  0  1  0  0  0  0  0  0  0  0  0
   18.4512   28.7509   33.1786 C   0  0  1  0  0  0  0  0  0  0  0  0
   18.3275   27.5823   32.2728 C   0  0  0  0  0  0  0  0  0  0  0  0
   17.3537   26.8021   32.3595 O   0  0  0  0  0  0  0  0  0  0  0  0
   17.7110   29.2404   34.1881 N   0  0  0  0  0  0  0  0  0  0  0  0
   18.3456   30.3446   34.6453 C   0  0  0  0  0  0  0  0  0  0  0  0
   19.4653   30.5349   33.9293 N   0  0  1  0  0  0  0  0  0  0  0  0
  1  2  1  0  0  0  0
  3  1  1  1  0  0  0
  3  4  1  0  0  0  0
  3  5  1  0  0  0  0
  5  6  1  6  0  0  0
  5  7  1  0  0  0  0
  7  8  1  0  0  0  0
  8  4  1  6  0  0  0
  8 19  1  0  0  0  0
  9 15  1  0  0  0  0
  9 10  1  0  0  0  0
 10 11  1  1  0  0  0
 10 12  1  0  0  0  0
 13 12  1  1  0  0  0
 13 14  1  0  0  0  0
 13 19  1  0  0  0  0
 14 15  1  1  0  0  0
 14 17  1  0  0  0  0
 15 16  2  0  0  0  0
 17 18  1  0  0  0  0
 19 18  1  1  0  0  0
M  END
>  <CHROM.1>
-54.76240816,-0.03434848,20.48598741,29.77935280,33.34752401,-0.86318511
-0.25297316,-2.35327304

>  <Name>
ligand

>  <RI>
0

>  <Rbt.Current_Directory>
/home/itssahil/PROJECTS/Mol_Feturizer/New_Systems/rnas/3SKL

>  <Rbt.Executable>
rbdock ($Id: //depot/dev/client3/rdock/2013.1/src/exe/rbdock.cxx#4 $)

>  <Rbt.Library>
libRbt.so (2013.1, Build901 2013/11/27)

>  <Rbt.Parameter_File>
/export/apps/rDock/src/rDock_2013.1_src/data/scripts/dock_solv.prm

>  <Rbt.Receptor>
prm/pocket_docking_8.prm

>  <SCORE>
-11.7072

>  <SCORE.INTER>
-11.5265

>  <SCORE.INTER.CONST>
1

>  <SCORE.INTER.POLAR>
0

>  <SCORE.INTER.ROT>
2

>  <SCORE.INTER.SOLV>
17.787

>  <SCORE.INTER.VDW>
-18.5467

>  <SCORE.INTER.norm>
-0.606658

>  <SCORE.INTRA>
-0.180689

>  <SCORE.INTRA.DIHEDRAL>
-0.197502

>  <SCORE.INTRA.DIHEDRAL.0>
1.50031

>  <SCORE.INTRA.POLAR>
0

>  <SCORE.INTRA.POLAR.0>
0

>  <SCORE.INTRA.REPUL>
0

>  <SCORE.INTRA.REPUL.0>
0

>  <SCORE.INTRA.SOLV>
1.04193

>  <SCORE.INTRA.SOLV.lig_0>
-37.9941

>  <SCORE.INTRA.VDW>
-0.602904

>  <SCORE.INTRA.VDW.0>
-0.964461

>  <SCORE.INTRA.norm>
-0.00950997

>  <SCORE.RESTR>
0

>  <SCORE.RESTR.CAVITY>
0

>  <SCORE.RESTR.norm>
0

>  <SCORE.SYSTEM>
0

>  <SCORE.SYSTEM.CONST>
0

>  <SCORE.SYSTEM.DIHEDRAL>
0

>  <SCORE.SYSTEM.SOLV>
0

>  <SCORE.SYSTEM.norm>
0

>  <SCORE.heavy>
19

>  <SCORE.norm>
-0.616168

>  <RMSD>
6.197

$$$$
ligand
 OpenBabel11021811483D
libRbt.so/2013.1/901 2013/11/27
 19 21  0  0  0  0  0  0  0  0999 V2000
   19.6038   31.0741   35.1701 C   0  0  0  0  0  0  0  0  0  0  0  0
   20.3675   31.8230   36.1316 O   0  0  0  0  0  0  0  0  0  0  0  0
   18.5955   30.1489   35.8595 C   0  0  1  0  0  0  0  0  0  0  0  0
   17.7918   29.4738   34.8922 O   0  0  0  0  0  0  0  0  0  0  0  0
   19.2835   29.0795   36.6865 C   0  0  1  0  0  0  0  0  0  0  0  0
   18.6157   28.9843   37.9454 O   0  0  0  0  0  0  0  0  0  0  0  0
   19.1089   27.7766   35.9395 C   0  0  0  0  0  0  0  0  0  0  0  0
   18.0191   28.0558   34.9206 C   0  0  2  0  0  0  0  0  0  0  0  0
   21.4408   28.7122   31.0970 N   0  0  0  0  0  0  0  0  0  0  0  0
   21.3280   29.3245   32.3003 C   0  0  2  0  0  0  0  0  0  0  0  0
   22.2141   30.2763   32.6618 N   0  0  0  0  0  0  0  0  0  0  0  0
   20.3419   29.0073   33.1658 N   0  0  0  0  0  0  0  0  0  0  0  0
   19.4222   28.0661   32.8720 C   0  0  1  0  0  0  0  0  0  0  0  0
   19.4713   27.4059   31.6659 C   0  0  1  0  0  0  0  0  0  0  0  0
   20.5608   27.7614   30.7234 C   0  0  0  0  0  0  0  0  0  0  0  0
   20.6570   27.1985   29.6105 O   0  0  0  0  0  0  0  0  0  0  0  0
   18.4507   26.5320   31.6365 N   0  0  0  0  0  0  0  0  0  0  0  0
   17.7873   26.6582   32.8090 C   0  0  0  0  0  0  0  0  0  0  0  0
   18.3908   27.5970   33.5555 N   0  0  1  0  0  0  0  0  0  0  0  0
  1  2  1  0  0  0  0
  3  1  1  6  0  0  0
  3  4  1  0  0  0  0
  3  5  1  0  0  0  0
  5  6  1  1  0  0  0
  5  7  1  0  0  0  0
  7  8  1  0  0  0  0
  8  4  1  6  0  0  0
  8 19  1  0  0  0  0
  9 15  1  0  0  0  0
  9 10  1  0  0  0  0
 10 11  1  1  0  0  0
 10 12  1  0  0  0  0
 13 12  1  1  0  0  0
 13 14  1  0  0  0  0
 13 19  1  0  0  0  0
 14 15  1  1  0  0  0
 14 17  1  0  0  0  0
 15 16  2  0  0  0  0
 17 18  1  0  0  0  0
 19 18  1  1  0  0  0
M  END
>  <CHROM.1>
176.51105532,57.65315513,19.54829685,28.73032749,33.73192896,-1.86958102
-0.74550328,-2.14408979

>  <Name>
ligand

>  <RI>
0

>  <Rbt.Current_Directory>
/home/itssahil/PROJECTS/Mol_Feturizer/New_Systems/rnas/3SKL

>  <Rbt.Executable>
rbdock ($Id: //depot/dev/client3/rdock/2013.1/src/exe/rbdock.cxx#4 $)

>  <Rbt.Library>
libRbt.so (2013.1, Build901 2013/11/27)

>  <Rbt.Parameter_File>
/export/apps/rDock/src/rDock_2013.1_src/data/scripts/dock_solv.prm

>  <Rbt.Receptor>
prm/blind_docking_60.prm

>  <SCORE>
-9.8345

>  <SCORE.INTER>
-9.43497

>  <SCORE.INTER.CONST>
1

>  <SCORE.INTER.POLAR>
0

>  <SCORE.INTER.ROT>
2

>  <SCORE.INTER.SOLV>
13.7576

>  <SCORE.INTER.VDW>
-15.8092

>  <SCORE.INTER.norm>
-0.496577

>  <SCORE.INTRA>
-0.399528

>  <SCORE.INTRA.DIHEDRAL>
-0.258939

>  <SCORE.INTRA.DIHEDRAL.0>
1.50031

>  <SCORE.INTRA.POLAR>
0

>  <SCORE.INTRA.POLAR.0>
0

>  <SCORE.INTRA.REPUL>
0

>  <SCORE.INTRA.REPUL.0>
0

>  <SCORE.INTRA.SOLV>
0.874727

>  <SCORE.INTRA.SOLV.lig_0>
-37.9941

>  <SCORE.INTRA.VDW>
-0.707422

>  <SCORE.INTRA.VDW.0>
-0.964461

>  <SCORE.INTRA.norm>
-0.0210278

>  <SCORE.RESTR>
0

>  <SCORE.RESTR.CAVITY>
0

>  <SCORE.RESTR.norm>
0

>  <SCORE.SYSTEM>
0

>  <SCORE.SYSTEM.CONST>
0

>  <SCORE.SYSTEM.DIHEDRAL>
0

>  <SCORE.SYSTEM.SOLV>
0

>  <SCORE.SYSTEM.norm>
0

>  <SCORE.heavy>
19

>  <SCORE.norm>
-0.517605

>  <RMSD>
6.236

$$$$
ligand
 OpenBabel11021811483D
libRbt.so/2013.1/901 2013/11/27
 19 21  0  0  0  0  0  0  0  0999 V2000
   18.0523   28.6585   35.4161 C   0  0  0  0  0  0  0  0  0  0  0  0
   19.3380   28.0894   35.1132 O   0  0  0  0  0  0  0  0  0  0  0  0
   17.2443   28.9183   34.1403 C   0  0  1  0  0  0  0  0  0  0  0  0
   17.9284   29.8410   33.2930 O   0  0  0  0  0  0  0  0  0  0  0  0
   17.0359   27.6496   33.3353 C   0  0  1  0  0  0  0  0  0  0  0  0
   15.6726   27.6035   32.9123 O   0  0  0  0  0  0  0  0  0  0  0  0
   17.9237   27.7606   32.1165 C   0  0  0  0  0  0  0  0  0  0  0  0
   18.3194   29.2246   32.0558 C   0  0  2  0  0  0  0  0  0  0  0  0
   22.5505   31.3709   34.1172 N   0  0  0  0  0  0  0  0  0  0  0  0
   21.2592   31.3870   34.5268 C   0  0  2  0  0  0  0  0  0  0  0  0
   20.9150   32.0396   35.6570 N   0  0  0  0  0  0  0  0  0  0  0  0
   20.2882   30.7594   33.8302 N   0  0  0  0  0  0  0  0  0  0  0  0
   20.5588   30.0874   32.6929 C   0  0  1  0  0  0  0  0  0  0  0  0
   21.8474   30.0325   32.2138 C   0  0  1  0  0  0  0  0  0  0  0  0
   22.9067   30.7243   32.9889 C   0  0  0  0  0  0  0  0  0  0  0  0
   24.0966   30.7128   32.6033 O   0  0  0  0  0  0  0  0  0  0  0  0
   21.8321   29.3071   31.0824 N   0  0  0  0  0  0  0  0  0  0  0  0
   20.5508   28.9255   30.8738 C   0  0  0  0  0  0  0  0  0  0  0  0
   19.7831   29.4069   31.8646 N   0  0  1  0  0  0  0  0  0  0  0  0
  1  2  1  0  0  0  0
  3  1  1  1  0  0  0
  3  4  1  0  0  0  0
  3  5  1  0  0  0  0
  5  6  1  6  0  0  0
  5  7  1  0  0  0  0
  7  8  1  0  0  0  0
  8  4  1  1  0  0  0
  8 19  1  0  0  0  0
  9 15  1  0  0  0  0
  9 10  1  0  0  0  0
 10 11  1  1  0  0  0
 10 12  1  0  0  0  0
 13 12  1  1  0  0  0
 13 14  1  0  0  0  0
 13 19  1  0  0  0  0
 14 15  1  1  0  0  0
 14 17  1  0  0  0  0
 15 16  2  0  0  0  0
 17 18  1  0  0  0  0
 19 18  1  1  0  0  0
M  END
>  <CHROM.1>
-60.83723597,-2.81759206,19.84890641,29.57591397,33.23134654,2.99223523,-0.43439325
-1.98771355

>  <Name>
ligand

>  <RI>
0

>  <Rbt.Current_Directory>
/home/itssahil/PROJECTS/Mol_Feturizer/New_Systems/rnas/3SKL

>  <Rbt.Executable>
rbdock ($Id: //depot/dev/client3/rdock/2013.1/src/exe/rbdock.cxx#4 $)

>  <Rbt.Library>
libRbt.so (2013.1, Build901 2013/11/27)

>  <Rbt.Parameter_File>
/export/apps/rDock/src/rDock_2013.1_src/data/scripts/dock_solv.prm

>  <Rbt.Receptor>
prm/pocket_docking_6.prm

>  <SCORE>
-13.0357

>  <SCORE.INTER>
-12.7025

>  <SCORE.INTER.CONST>
1

>  <SCORE.INTER.POLAR>
0

>  <SCORE.INTER.ROT>
2

>  <SCORE.INTER.SOLV>
13.4793

>  <SCORE.INTER.VDW>
-17.8947

>  <SCORE.INTER.norm>
-0.668551

>  <SCORE.INTRA>
-0.333217

>  <SCORE.INTRA.DIHEDRAL>
-0.291754

>  <SCORE.INTRA.DIHEDRAL.0>
1.50031

>  <SCORE.INTRA.POLAR>
0

>  <SCORE.INTRA.POLAR.0>
0

>  <SCORE.INTRA.REPUL>
0

>  <SCORE.INTRA.REPUL.0>
0

>  <SCORE.INTRA.SOLV>
0.516849

>  <SCORE.INTRA.SOLV.lig_0>
-37.9941

>  <SCORE.INTRA.VDW>
-0.445764

>  <SCORE.INTRA.VDW.0>
-0.964461

>  <SCORE.INTRA.norm>
-0.0175377

>  <SCORE.RESTR>
0

>  <SCORE.RESTR.CAVITY>
0

>  <SCORE.RESTR.norm>
0

>  <SCORE.SYSTEM>
0

>  <SCORE.SYSTEM.CONST>
0

>  <SCORE.SYSTEM.DIHEDRAL>
0

>  <SCORE.SYSTEM.SOLV>
0

>  <SCORE.SYSTEM.norm>
0

>  <SCORE.heavy>
19

>  <SCORE.norm>
-0.686089

>  <RMSD>
6.251

$$$$
ligand
 OpenBabel11021811483D
libRbt.so/2013.1/901 2013/11/27
 19 21  0  0  0  0  0  0  0  0999 V2000
   19.0356   25.6170   37.8610 C   0  0  0  0  0  0  0  0  0  0  0  0
   18.1715   25.0108   38.8381 O   0  0  0  0  0  0  0  0  0  0  0  0
   19.2606   27.1024   38.1626 C   0  0  1  0  0  0  0  0  0  0  0  0
   20.1322   27.6841   37.1935 O   0  0  0  0  0  0  0  0  0  0  0  0
   17.9649   27.8900   38.1213 C   0  0  1  0  0  0  0  0  0  0  0  0
   17.9318   28.7624   39.2516 O   0  0  0  0  0  0  0  0  0  0  0  0
   18.0058   28.7232   36.8603 C   0  0  0  0  0  0  0  0  0  0  0  0
   19.4569   28.6863   36.4169 C   0  0  2  0  0  0  0  0  0  0  0  0
   21.7948   30.1224   32.0317 N   0  0  0  0  0  0  0  0  0  0  0  0
   21.8395   30.6566   33.2760 C   0  0  2  0  0  0  0  0  0  0  0  0
   22.6001   31.7448   33.5191 N   0  0  0  0  0  0  0  0  0  0  0  0
   21.1371   30.1260   34.2992 N   0  0  0  0  0  0  0  0  0  0  0  0
   20.3570   29.0393   34.1298 C   0  0  1  0  0  0  0  0  0  0  0  0
   20.2592   28.4462   32.8922 C   0  0  1  0  0  0  0  0  0  0  0  0
   21.0373   29.0367   31.7754 C   0  0  0  0  0  0  0  0  0  0  0  0
   20.9876   28.5445   30.6266 O   0  0  0  0  0  0  0  0  0  0  0  0
   19.4278   27.3963   33.0068 N   0  0  0  0  0  0  0  0  0  0  0  0
   19.0232   27.3504   34.2972 C   0  0  0  0  0  0  0  0  0  0  0  0
   19.5985   28.3579   34.9732 N   0  0  1  0  0  0  0  0  0  0  0  0
  1  2  1  0  0  0  0
  3  1  1  6  0  0  0
  3  4  1  0  0  0  0
  3  5  1  0  0  0  0
  5  6  1  1  0  0  0
  5  7  1  0  0  0  0
  7  8  1  0  0  0  0
  8  4  1  1  0  0  0
  8 19  1  0  0  0  0
  9 15  1  0  0  0  0
  9 10  1  0  0  0  0
 10 11  1  1  0  0  0
 10 12  1  0  0  0  0
 13 12  1  1  0  0  0
 13 14  1  0  0  0  0
 13 19  1  0  0  0  0
 14 15  1  1  0  0  0
 14 17  1  0  0  0  0
 15 16  2  0  0  0  0
 17 18  1  0  0  0  0
 19 18  1  1  0  0  0
M  END
>  <CHROM.1>
179.30795667,-108.76029380,19.86580761,28.39616818,35.21807018,2.60013777
1.08433738,1.02425127

>  <Name>
ligand

>  <RI>
0

>  <Rbt.Current_Directory>
/home/itssahil/PROJECTS/Mol_Feturizer/New_Systems/rnas/3SKL

>  <Rbt.Executable>
rbdock ($Id: //depot/dev/client3/rdock/2013.1/src/exe/rbdock.cxx#4 $)

>  <Rbt.Library>
libRbt.so (2013.1, Build901 2013/11/27)

>  <Rbt.Parameter_File>
/export/apps/rDock/src/rDock_2013.1_src/data/scripts/dock_solv.prm

>  <Rbt.Receptor>
prm/pocket_docking_4.prm

>  <SCORE>
-13.4564

>  <SCORE.INTER>
-13.1092

>  <SCORE.INTER.CONST>
1

>  <SCORE.INTER.POLAR>
0

>  <SCORE.INTER.ROT>
2

>  <SCORE.INTER.SOLV>
13.6031

>  <SCORE.INTER.VDW>
-18.2071

>  <SCORE.INTER.norm>
-0.689956

>  <SCORE.INTRA>
-0.380239

>  <SCORE.INTRA.DIHEDRAL>
-0.310096

>  <SCORE.INTRA.DIHEDRAL.0>
1.50031

>  <SCORE.INTRA.POLAR>
0

>  <SCORE.INTRA.POLAR.0>
0

>  <SCORE.INTRA.REPUL>
0

>  <SCORE.INTRA.REPUL.0>
0

>  <SCORE.INTRA.SOLV>
-0.462572

>  <SCORE.INTRA.SOLV.lig_0>
-37.9941

>  <SCORE.INTRA.VDW>
0.00609535

>  <SCORE.INTRA.VDW.0>
-0.964461

>  <SCORE.INTRA.norm>
-0.0200126

>  <SCORE.RESTR>
0.0329767

>  <SCORE.RESTR.CAVITY>
0.0329767

>  <SCORE.RESTR.norm>
0.00173561

>  <SCORE.SYSTEM>
0

>  <SCORE.SYSTEM.CONST>
0

>  <SCORE.SYSTEM.DIHEDRAL>
0

>  <SCORE.SYSTEM.SOLV>
0

>  <SCORE.SYSTEM.norm>
0

>  <SCORE.heavy>
19

>  <SCORE.norm>
-0.708233

>  <RMSD>
6.263

$$$$
ligand
 OpenBabel11021811483D
libRbt.so/2013.1/901 2013/11/27
 19 21  0  0  0  0  0  0  0  0999 V2000
   19.8287   30.5727   35.4427 C   0  0  0  0  0  0  0  0  0  0  0  0
   20.8071   31.6249   35.5074 O   0  0  0  0  0  0  0  0  0  0  0  0
   20.4838   29.2219   35.1357 C   0  0  1  0  0  0  0  0  0  0  0  0
   19.5084   28.1798   35.1377 O   0  0  0  0  0  0  0  0  0  0  0  0
   21.1407   29.2102   33.7685 C   0  0  1  0  0  0  0  0  0  0  0  0
   22.4258   28.5994   33.8913 O   0  0  0  0  0  0  0  0  0  0  0  0
   20.2720   28.3496   32.8792 C   0  0  0  0  0  0  0  0  0  0  0  0
   19.3681   27.5918   33.8346 C   0  0  2  0  0  0  0  0  0  0  0  0
   15.8686   25.5491   30.6192 N   0  0  0  0  0  0  0  0  0  0  0  0
   17.1921   25.2982   30.7640 C   0  0  2  0  0  0  0  0  0  0  0  0
   17.7942   24.3697   29.9913 N   0  0  0  0  0  0  0  0  0  0  0  0
   17.9417   25.9571   31.6729 N   0  0  0  0  0  0  0  0  0  0  0  0
   17.4075   26.8968   32.4789 C   0  0  1  0  0  0  0  0  0  0  0  0
   16.0705   27.2077   32.3847 C   0  0  1  0  0  0  0  0  0  0  0  0
   15.2560   26.4757   31.3836 C   0  0  0  0  0  0  0  0  0  0  0  0
   14.0358   26.7155   31.2484 O   0  0  0  0  0  0  0  0  0  0  0  0
   15.8081   28.1628   33.2931 N   0  0  0  0  0  0  0  0  0  0  0  0
   16.9700   28.4316   33.9323 C   0  0  0  0  0  0  0  0  0  0  0  0
   17.9389   27.6512   33.4272 N   0  0  1  0  0  0  0  0  0  0  0  0
  1  2  1  0  0  0  0
  3  1  1  6  0  0  0
  3  4  1  0  0  0  0
  3  5  1  0  0  0  0
  5  6  1  1  0  0  0
  5  7  1  0  0  0  0
  7  8  1  0  0  0  0
  8  4  1  1  0  0  0
  8 19  1  0  0  0  0
  9 15  1  0  0  0  0
  9 10  1  0  0  0  0
 10 11  1  1  0  0  0
 10 12  1  0  0  0  0
 13 12  1  1  0  0  0
 13 14  1  0  0  0  0
 13 19  1  0  0  0  0
 14 15  1  1  0  0  0
 14 17  1  0  0  0  0
 15 16  2  0  0  0  0
 17 18  1  0  0  0  0
 19 18  1  1  0  0  0
M  END
>  <CHROM.1>
177.26351935,-160.88739905,18.28543249,27.74162734,33.03480424,0.82545660
-0.05785015,0.71682273

>  <Name>
ligand

>  <RI>
0

>  <Rbt.Current_Directory>
/home/itssahil/PROJECTS/Mol_Feturizer/New_Systems/rnas/3SKL

>  <Rbt.Executable>
rbdock ($Id: //depot/dev/client3/rdock/2013.1/src/exe/rbdock.cxx#4 $)

>  <Rbt.Library>
libRbt.so (2013.1, Build901 2013/11/27)

>  <Rbt.Parameter_File>
/export/apps/rDock/src/rDock_2013.1_src/data/scripts/dock_solv.prm

>  <Rbt.Receptor>
prm/pocket_docking_6.prm

>  <SCORE>
-10.4178

>  <SCORE.INTER>
-9.96563

>  <SCORE.INTER.CONST>
1

>  <SCORE.INTER.POLAR>
0

>  <SCORE.INTER.ROT>
2

>  <SCORE.INTER.SOLV>
12.5025

>  <SCORE.INTER.VDW>
-15.7446

>  <SCORE.INTER.norm>
-0.524507

>  <SCORE.INTRA>
-0.452147

>  <SCORE.INTRA.DIHEDRAL>
-0.251301

>  <SCORE.INTRA.DIHEDRAL.0>
1.50031

>  <SCORE.INTRA.POLAR>
0

>  <SCORE.INTRA.POLAR.0>
0

>  <SCORE.INTRA.REPUL>
0

>  <SCORE.INTRA.REPUL.0>
0

>  <SCORE.INTRA.SOLV>
-0.474973

>  <SCORE.INTRA.SOLV.lig_0>
-37.9941

>  <SCORE.INTRA.VDW>
-0.0890101

>  <SCORE.INTRA.VDW.0>
-0.964461

>  <SCORE.INTRA.norm>
-0.0237972

>  <SCORE.RESTR>
0

>  <SCORE.RESTR.CAVITY>
0

>  <SCORE.RESTR.norm>
0

>  <SCORE.SYSTEM>
0

>  <SCORE.SYSTEM.CONST>
0

>  <SCORE.SYSTEM.DIHEDRAL>
0

>  <SCORE.SYSTEM.SOLV>
0

>  <SCORE.SYSTEM.norm>
0

>  <SCORE.heavy>
19

>  <SCORE.norm>
-0.548304

>  <RMSD>
6.343

$$$$
ligand
 OpenBabel11021811483D
libRbt.so/2013.1/901 2013/11/27
 19 21  0  0  0  0  0  0  0  0999 V2000
   19.1177   28.2243   36.7767 C   0  0  0  0  0  0  0  0  0  0  0  0
   19.8624   27.0186   37.0223 O   0  0  0  0  0  0  0  0  0  0  0  0
   19.7376   29.0387   35.6364 C   0  0  1  0  0  0  0  0  0  0  0  0
   19.7654   28.2736   34.4316 O   0  0  0  0  0  0  0  0  0  0  0  0
   18.9424   30.2966   35.3430 C   0  0  1  0  0  0  0  0  0  0  0  0
   19.8575   31.3819   35.1868 O   0  0  0  0  0  0  0  0  0  0  0  0
   18.2317   30.0620   34.0293 C   0  0  0  0  0  0  0  0  0  0  0  0
   18.9242   28.8551   33.4228 C   0  0  2  0  0  0  0  0  0  0  0  0
   18.4072   24.7456   30.3240 N   0  0  0  0  0  0  0  0  0  0  0  0
   19.4714   25.5508   30.5582 C   0  0  2  0  0  0  0  0  0  0  0  0
   20.6451   25.3217   29.9323 N   0  0  0  0  0  0  0  0  0  0  0  0
   19.3957   26.5924   31.4134 N   0  0  0  0  0  0  0  0  0  0  0  0
   18.2560   26.8804   32.0740 C   0  0  1  0  0  0  0  0  0  0  0  0
   17.1333   26.1087   31.8821 C   0  0  1  0  0  0  0  0  0  0  0  0
   17.2288   24.9652   30.9414 C   0  0  0  0  0  0  0  0  0  0  0  0
   16.2418   24.2286   30.7228 O   0  0  0  0  0  0  0  0  0  0  0  0
   16.1551   26.6111   32.6548 N   0  0  0  0  0  0  0  0  0  0  0  0
   16.6743   27.6759   33.3087 C   0  0  0  0  0  0  0  0  0  0  0  0
   17.9582   27.8293   32.9468 N   0  0  1  0  0  0  0  0  0  0  0  0
  1  2  1  0  0  0  0
  3  1  1  1  0  0  0
  3  4  1  0  0  0  0
  3  5  1  0  0  0  0
  5  6  1  6  0  0  0
  5  7  1  0  0  0  0
  7  8  1  0  0  0  0
  8  4  1  1  0  0  0
  8 19  1  0  0  0  0
  9 15  1  0  0  0  0
  9 10  1  0  0  0  0
 10 11  1  1  0  0  0
 10 12  1  0  0  0  0
 13 12  1  1  0  0  0
 13 14  1  0  0  0  0
 13 19  1  0  0  0  0
 14 15  1  1  0  0  0
 14 17  1  0  0  0  0
 15 16  2  0  0  0  0
 17 18  1  0  0  0  0
 19 18  1  1  0  0  0
M  END
>  <CHROM.1>
59.50104482,-79.61351533,18.56092752,27.38162349,33.15470933,1.35106900,0.20454020
0.89294901

>  <Name>
ligand

>  <RI>
0

>  <Rbt.Current_Directory>
/home/itssahil/PROJECTS/Mol_Feturizer/New_Systems/rnas/3SKL

>  <Rbt.Executable>
rbdock ($Id: //depot/dev/client3/rdock/2013.1/src/exe/rbdock.cxx#4 $)

>  <Rbt.Library>
libRbt.so (2013.1, Build901 2013/11/27)

>  <Rbt.Parameter_File>
/export/apps/rDock/src/rDock_2013.1_src/data/scripts/dock_solv.prm

>  <Rbt.Receptor>
prm/pocket_docking_7.prm

>  <SCORE>
-12.7573

>  <SCORE.INTER>
-12.5798

>  <SCORE.INTER.CONST>
1

>  <SCORE.INTER.POLAR>
0

>  <SCORE.INTER.ROT>
2

>  <SCORE.INTER.SOLV>
13.1886

>  <SCORE.INTER.VDW>
-17.7161

>  <SCORE.INTER.norm>
-0.662094

>  <SCORE.INTRA>
-0.177479

>  <SCORE.INTRA.DIHEDRAL>
-0.319061

>  <SCORE.INTRA.DIHEDRAL.0>
1.50031

>  <SCORE.INTRA.POLAR>
0

>  <SCORE.INTRA.POLAR.0>
0

>  <SCORE.INTRA.REPUL>
0

>  <SCORE.INTRA.REPUL.0>
0

>  <SCORE.INTRA.SOLV>
-0.531603

>  <SCORE.INTRA.SOLV.lig_0>
-37.9941

>  <SCORE.INTRA.VDW>
0.247853

>  <SCORE.INTRA.VDW.0>
-0.964461

>  <SCORE.INTRA.norm>
-0.009341

>  <SCORE.RESTR>
0

>  <SCORE.RESTR.CAVITY>
0

>  <SCORE.RESTR.norm>
0

>  <SCORE.SYSTEM>
0

>  <SCORE.SYSTEM.CONST>
0

>  <SCORE.SYSTEM.DIHEDRAL>
0

>  <SCORE.SYSTEM.SOLV>
0

>  <SCORE.SYSTEM.norm>
0

>  <SCORE.heavy>
19

>  <SCORE.norm>
-0.671435

>  <RMSD>
6.346

$$$$
ligand
 OpenBabel11021811483D
libRbt.so/2013.1/901 2013/11/27
 19 21  0  0  0  0  0  0  0  0999 V2000
   21.2292   28.5111   33.2370 C   0  0  0  0  0  0  0  0  0  0  0  0
   22.4005   28.7546   34.0355 O   0  0  0  0  0  0  0  0  0  0  0  0
   20.1943   29.6273   33.4125 C   0  0  1  0  0  0  0  0  0  0  0  0
   19.1213   29.4662   32.4851 O   0  0  0  0  0  0  0  0  0  0  0  0
   19.5837   29.6186   34.8010 C   0  0  1  0  0  0  0  0  0  0  0  0
   19.5405   30.9624   35.2826 O   0  0  0  0  0  0  0  0  0  0  0  0
   18.1691   29.1073   34.6477 C   0  0  0  0  0  0  0  0  0  0  0  0
   17.8818   29.1985   33.1600 C   0  0  2  0  0  0  0  0  0  0  0  0
   18.9680   24.9356   30.4388 N   0  0  0  0  0  0  0  0  0  0  0  0
   19.7462   25.9900   30.7824 C   0  0  2  0  0  0  0  0  0  0  0  0
   21.0420   26.0267   30.4063 N   0  0  0  0  0  0  0  0  0  0  0  0
   19.2602   27.0229   31.5027 N   0  0  0  0  0  0  0  0  0  0  0  0
   17.9762   27.0534   31.9132 C   0  0  1  0  0  0  0  0  0  0  0  0
   17.1259   26.0190   31.5970 C   0  0  1  0  0  0  0  0  0  0  0  0
   17.6716   24.8881   30.8066 C   0  0  0  0  0  0  0  0  0  0  0  0
   16.9477   23.9198   30.4855 O   0  0  0  0  0  0  0  0  0  0  0  0
   15.9231   26.3027   32.1254 N   0  0  0  0  0  0  0  0  0  0  0  0
   16.0382   27.4949   32.7548 C   0  0  0  0  0  0  0  0  0  0  0  0
   17.2968   27.9426   32.6194 N   0  0  1  0  0  0  0  0  0  0  0  0
  1  2  1  0  0  0  0
  3  1  1  1  0  0  0
  3  4  1  0  0  0  0
  3  5  1  0  0  0  0
  5  6  1  6  0  0  0
  5  7  1  0  0  0  0
  7  8  1  0  0  0  0
  8  4  1  6  0  0  0
  8 19  1  0  0  0  0
  9 15  1  0  0  0  0
  9 10  1  0  0  0  0
 10 11  1  1  0  0  0
 10 12  1  0  0  0  0
 13 12  1  1  0  0  0
 13 14  1  0  0  0  0
 13 19  1  0  0  0  0
 14 15  1  1  0  0  0
 14 17  1  0  0  0  0
 15 16  2  0  0  0  0
 17 18  1  0  0  0  0
 19 18  1  1  0  0  0
M  END
>  <CHROM.1>
172.26230062,16.58734772,18.80027008,27.56598862,32.48454953,-1.17420690
-0.09634934,-2.46131575

>  <Name>
ligand

>  <RI>
0

>  <Rbt.Current_Directory>
/home/itssahil/PROJECTS/Mol_Feturizer/New_Systems/rnas/3SKL

>  <Rbt.Executable>
rbdock ($Id: //depot/dev/client3/rdock/2013.1/src/exe/rbdock.cxx#4 $)

>  <Rbt.Library>
libRbt.so (2013.1, Build901 2013/11/27)

>  <Rbt.Parameter_File>
/export/apps/rDock/src/rDock_2013.1_src/data/scripts/dock_solv.prm

>  <Rbt.Receptor>
prm/pocket_docking_5.prm

>  <SCORE>
-9.23941

>  <SCORE.INTER>
-9.25464

>  <SCORE.INTER.CONST>
1

>  <SCORE.INTER.POLAR>
0

>  <SCORE.INTER.ROT>
2

>  <SCORE.INTER.SOLV>
13.7327

>  <SCORE.INTER.VDW>
-15.6807

>  <SCORE.INTER.norm>
-0.487086

>  <SCORE.INTRA>
0.0152268

>  <SCORE.INTRA.DIHEDRAL>
-0.10564

>  <SCORE.INTRA.DIHEDRAL.0>
1.50031

>  <SCORE.INTRA.POLAR>
0

>  <SCORE.INTRA.POLAR.0>
0

>  <SCORE.INTRA.REPUL>
0

>  <SCORE.INTRA.REPUL.0>
0

>  <SCORE.INTRA.SOLV>
0.685708

>  <SCORE.INTRA.SOLV.lig_0>
-37.9941

>  <SCORE.INTRA.VDW>
-0.274807

>  <SCORE.INTRA.VDW.0>
-0.964461

>  <SCORE.INTRA.norm>
0.000801411

>  <SCORE.RESTR>
0

>  <SCORE.RESTR.CAVITY>
0

>  <SCORE.RESTR.norm>
0

>  <SCORE.SYSTEM>
0

>  <SCORE.SYSTEM.CONST>
0

>  <SCORE.SYSTEM.DIHEDRAL>
0

>  <SCORE.SYSTEM.SOLV>
0

>  <SCORE.SYSTEM.norm>
0

>  <SCORE.heavy>
19

>  <SCORE.norm>
-0.486285

>  <RMSD>
6.359

$$$$
ligand
 OpenBabel11021811483D
libRbt.so/2013.1/901 2013/11/27
 19 21  0  0  0  0  0  0  0  0999 V2000
   20.4781   30.2780   36.2160 C   0  0  0  0  0  0  0  0  0  0  0  0
   19.8975   31.5011   35.7306 O   0  0  0  0  0  0  0  0  0  0  0  0
   19.3991   29.2364   36.5304 C   0  0  1  0  0  0  0  0  0  0  0  0
   18.5942   28.9853   35.3787 O   0  0  0  0  0  0  0  0  0  0  0  0
   20.0007   27.9078   36.9476 C   0  0  1  0  0  0  0  0  0  0  0  0
   19.2862   27.4278   38.0872 O   0  0  0  0  0  0  0  0  0  0  0  0
   19.7827   26.9539   35.7950 C   0  0  0  0  0  0  0  0  0  0  0  0
   18.7447   27.6324   34.9198 C   0  0  2  0  0  0  0  0  0  0  0  0
   22.0363   29.7364   31.5292 N   0  0  0  0  0  0  0  0  0  0  0  0
   21.8845   29.9396   32.8601 C   0  0  2  0  0  0  0  0  0  0  0  0
   22.6838   30.8135   33.5076 N   0  0  0  0  0  0  0  0  0  0  0  0
   20.9444   29.2840   33.5730 N   0  0  0  0  0  0  0  0  0  0  0  0
   20.1116   28.3964   32.9928 C   0  0  1  0  0  0  0  0  0  0  0  0
   20.2045   28.1428   31.6437 C   0  0  1  0  0  0  0  0  0  0  0  0
   21.2429   28.8677   30.8706 C   0  0  0  0  0  0  0  0  0  0  0  0
   21.3750   28.6823   29.6406 O   0  0  0  0  0  0  0  0  0  0  0  0
   19.2687   27.2290   31.3343 N   0  0  0  0  0  0  0  0  0  0  0  0
   18.6132   26.9299   32.4796 C   0  0  0  0  0  0  0  0  0  0  0  0
   19.1379   27.6480   33.4855 N   0  0  1  0  0  0  0  0  0  0  0  0
  1  2  1  0  0  0  0
  3  1  1  6  0  0  0
  3  4  1  0  0  0  0
  3  5  1  0  0  0  0
  5  6  1  1  0  0  0
  5  7  1  0  0  0  0
  7  8  1  0  0  0  0
  8  4  1  1  0  0  0
  8 19  1  0  0  0  0
  9 15  1  0  0  0  0
  9 10  1  0  0  0  0
 10 11  1  1  0  0  0
 10 12  1  0  0  0  0
 13 12  1  1  0  0  0
 13 14  1  0  0  0  0
 13 19  1  0  0  0  0
 14 15  1  1  0  0  0
 14 17  1  0  0  0  0
 15 16  2  0  0  0  0
 17 18  1  0  0  0  0
 19 18  1  1  0  0  0
M  END
>  <CHROM.1>
56.79052920,48.52504926,20.18252112,28.74371637,33.93483379,-2.04233227,-0.91738356
-1.90997834

>  <Name>
ligand

>  <RI>
0

>  <Rbt.Current_Directory>
/home/itssahil/PROJECTS/Mol_Feturizer/New_Systems/rnas/3SKL

>  <Rbt.Executable>
rbdock ($Id: //depot/dev/client3/rdock/2013.1/src/exe/rbdock.cxx#4 $)

>  <Rbt.Library>
libRbt.so (2013.1, Build901 2013/11/27)

>  <Rbt.Parameter_File>
/export/apps/rDock/src/rDock_2013.1_src/data/scripts/dock_solv.prm

>  <Rbt.Receptor>
prm/pocket_docking_5.prm

>  <SCORE>
-13.4369

>  <SCORE.INTER>
-13.4306

>  <SCORE.INTER.CONST>
1

>  <SCORE.INTER.POLAR>
0

>  <SCORE.INTER.ROT>
2

>  <SCORE.INTER.SOLV>
13.2893

>  <SCORE.INTER.VDW>
-18.3168

>  <SCORE.INTER.norm>
-0.706872

>  <SCORE.INTRA>
-0.00630402

>  <SCORE.INTRA.DIHEDRAL>
-0.27654

>  <SCORE.INTRA.DIHEDRAL.0>
1.50031

>  <SCORE.INTRA.POLAR>
0

>  <SCORE.INTRA.POLAR.0>
0

>  <SCORE.INTRA.REPUL>
0

>  <SCORE.INTRA.REPUL.0>
0

>  <SCORE.INTRA.SOLV>
1.7919

>  <SCORE.INTRA.SOLV.lig_0>
-37.9941

>  <SCORE.INTRA.VDW>
-0.763984

>  <SCORE.INTRA.VDW.0>
-0.964461

>  <SCORE.INTRA.norm>
-0.00033179

>  <SCORE.RESTR>
0

>  <SCORE.RESTR.CAVITY>
0

>  <SCORE.RESTR.norm>
0

>  <SCORE.SYSTEM>
0

>  <SCORE.SYSTEM.CONST>
0

>  <SCORE.SYSTEM.DIHEDRAL>
0

>  <SCORE.SYSTEM.SOLV>
0

>  <SCORE.SYSTEM.norm>
0

>  <SCORE.heavy>
19

>  <SCORE.norm>
-0.707204

>  <RMSD>
6.408

$$$$
ligand
 OpenBabel11021811483D
libRbt.so/2013.1/901 2013/11/27
 19 21  0  0  0  0  0  0  0  0999 V2000
   19.6401   30.7763   34.5280 C   0  0  0  0  0  0  0  0  0  0  0  0
   18.3654   30.6271   33.8788 O   0  0  0  0  0  0  0  0  0  0  0  0
   20.6820   29.8227   33.9339 C   0  0  1  0  0  0  0  0  0  0  0  0
   20.2450   28.4687   34.0483 O   0  0  0  0  0  0  0  0  0  0  0  0
   20.9156   30.0888   32.4590 C   0  0  1  0  0  0  0  0  0  0  0  0
   22.3228   30.0695   32.2152 O   0  0  0  0  0  0  0  0  0  0  0  0
   20.2723   28.9460   31.7066 C   0  0  0  0  0  0  0  0  0  0  0  0
   20.0265   27.8784   32.7571 C   0  0  2  0  0  0  0  0  0  0  0  0
   17.0385   24.3272   30.4727 N   0  0  0  0  0  0  0  0  0  0  0  0
   18.3488   24.6260   30.3013 C   0  0  2  0  0  0  0  0  0  0  0  0
   19.0912   23.9323   29.4128 N   0  0  0  0  0  0  0  0  0  0  0  0
   18.9473   25.6112   31.0033 N   0  0  0  0  0  0  0  0  0  0  0  0
   18.2679   26.3449   31.9079 C   0  0  1  0  0  0  0  0  0  0  0  0
   16.9324   26.1008   32.1314 C   0  0  1  0  0  0  0  0  0  0  0  0
   16.2856   25.0141   31.3555 C   0  0  0  0  0  0  0  0  0  0  0  0
   15.0738   24.7462   31.5119 O   0  0  0  0  0  0  0  0  0  0  0  0
   16.5110   26.9644   33.0711 N   0  0  0  0  0  0  0  0  0  0  0  0
   17.5752   27.7256   33.4155 C   0  0  0  0  0  0  0  0  0  0  0  0
   18.6425   27.3369   32.6995 N   0  0  1  0  0  0  0  0  0  0  0  0
  1  2  1  0  0  0  0
  3  1  1  6  0  0  0
  3  4  1  0  0  0  0
  3  5  1  0  0  0  0
  5  6  1  1  0  0  0
  5  7  1  0  0  0  0
  7  8  1  0  0  0  0
  8  4  1  1  0  0  0
  8 19  1  0  0  0  0
  9 15  1  0  0  0  0
  9 10  1  0  0  0  0
 10 11  1  1  0  0  0
 10 12  1  0  0  0  0
 13 12  1  1  0  0  0
 13 14  1  0  0  0  0
 13 19  1  0  0  0  0
 14 15  1  1  0  0  0
 14 17  1  0  0  0  0
 15 16  2  0  0  0  0
 17 18  1  0  0  0  0
 19 18  1  1  0  0  0
M  END
>  <CHROM.1>
-58.09360682,-154.37255033,18.72881333,27.40308328,32.28085363,0.99603967
0.35530894,0.66172701

>  <Name>
ligand

>  <RI>
0

>  <Rbt.Current_Directory>
/home/itssahil/PROJECTS/Mol_Feturizer/New_Systems/rnas/3SKL

>  <Rbt.Executable>
rbdock ($Id: //depot/dev/client3/rdock/2013.1/src/exe/rbdock.cxx#4 $)

>  <Rbt.Library>
libRbt.so (2013.1, Build901 2013/11/27)

>  <Rbt.Parameter_File>
/export/apps/rDock/src/rDock_2013.1_src/data/scripts/dock_solv.prm

>  <Rbt.Receptor>
prm/pocket_docking_7.prm

>  <SCORE>
-11.4436

>  <SCORE.INTER>
-10.8718

>  <SCORE.INTER.CONST>
1

>  <SCORE.INTER.POLAR>
0

>  <SCORE.INTER.ROT>
2

>  <SCORE.INTER.SOLV>
11.7248

>  <SCORE.INTER.VDW>
-16.0895

>  <SCORE.INTER.norm>
-0.5722

>  <SCORE.INTRA>
-0.571855

>  <SCORE.INTRA.DIHEDRAL>
-0.260342

>  <SCORE.INTRA.DIHEDRAL.0>
1.50031

>  <SCORE.INTRA.POLAR>
0

>  <SCORE.INTRA.POLAR.0>
0

>  <SCORE.INTRA.REPUL>
0

>  <SCORE.INTRA.REPUL.0>
0

>  <SCORE.INTRA.SOLV>
0.0312172

>  <SCORE.INTRA.SOLV.lig_0>
-37.9941

>  <SCORE.INTRA.VDW>
-0.457292

>  <SCORE.INTRA.VDW.0>
-0.964461

>  <SCORE.INTRA.norm>
-0.0300976

>  <SCORE.RESTR>
0

>  <SCORE.RESTR.CAVITY>
0

>  <SCORE.RESTR.norm>
0

>  <SCORE.SYSTEM>
0

>  <SCORE.SYSTEM.CONST>
0

>  <SCORE.SYSTEM.DIHEDRAL>
0

>  <SCORE.SYSTEM.SOLV>
0

>  <SCORE.SYSTEM.norm>
0

>  <SCORE.heavy>
19

>  <SCORE.norm>
-0.602297

>  <RMSD>
6.418

$$$$
ligand
 OpenBabel11021811483D
libRbt.so/2013.1/901 2013/11/27
 19 21  0  0  0  0  0  0  0  0999 V2000
   19.5438   30.6843   34.7125 C   0  0  0  0  0  0  0  0  0  0  0  0
   18.2804   30.5817   34.0329 O   0  0  0  0  0  0  0  0  0  0  0  0
   20.5945   29.7690   34.0750 C   0  0  1  0  0  0  0  0  0  0  0  0
   20.1660   28.4082   34.1180 O   0  0  0  0  0  0  0  0  0  0  0  0
   20.8323   30.1118   32.6166 C   0  0  1  0  0  0  0  0  0  0  0  0
   22.2405   30.1141   32.3783 O   0  0  0  0  0  0  0  0  0  0  0  0
   20.1996   29.0049   31.8039 C   0  0  0  0  0  0  0  0  0  0  0  0
   19.9567   27.8833   32.7973 C   0  0  2  0  0  0  0  0  0  0  0  0
   17.0351   24.3319   30.4289 N   0  0  0  0  0  0  0  0  0  0  0  0
   18.3477   24.6368   30.2883 C   0  0  2  0  0  0  0  0  0  0  0  0
   19.1127   23.9506   29.4133 N   0  0  0  0  0  0  0  0  0  0  0  0
   18.9263   25.6209   31.0085 N   0  0  0  0  0  0  0  0  0  0  0  0
   18.2238   26.3472   31.9013 C   0  0  1  0  0  0  0  0  0  0  0  0
   16.8847   26.0967   32.0936 C   0  0  1  0  0  0  0  0  0  0  0  0
   16.2598   25.0113   31.2980 C   0  0  0  0  0  0  0  0  0  0  0  0
   15.0460   24.7378   31.4259 O   0  0  0  0  0  0  0  0  0  0  0  0
   16.4388   26.9537   33.0280 N   0  0  0  0  0  0  0  0  0  0  0  0
   17.4919   27.7175   33.4000 C   0  0  0  0  0  0  0  0  0  0  0  0
   18.5765   27.3366   32.7060 N   0  0  1  0  0  0  0  0  0  0  0  0
  1  2  1  0  0  0  0
  3  1  1  6  0  0  0
  3  4  1  0  0  0  0
  3  5  1  0  0  0  0
  5  6  1  1  0  0  0
  5  7  1  0  0  0  0
  7  8  1  0  0  0  0
  8  4  1  1  0  0  0
  8 19  1  0  0  0  0
  9 15  1  0  0  0  0
  9 10  1  0  0  0  0
 10 11  1  1  0  0  0
 10 12  1  0  0  0  0
 13 12  1  1  0  0  0
 13 14  1  0  0  0  0
 13 19  1  0  0  0  0
 14 15  1  1  0  0  0
 14 17  1  0  0  0  0
 15 16  2  0  0  0  0
 17 18  1  0  0  0  0
 19 18  1  1  0  0  0
M  END
>  <CHROM.1>
-59.33499063,-151.52602089,18.67409828,27.39683521,32.32131956,1.01554837
0.34078875,0.67519863

>  <Name>
ligand

>  <RI>
0

>  <Rbt.Current_Directory>
/home/itssahil/PROJECTS/Mol_Feturizer/New_Systems/rnas/3SKL

>  <Rbt.Executable>
rbdock ($Id: //depot/dev/client3/rdock/2013.1/src/exe/rbdock.cxx#4 $)

>  <Rbt.Library>
libRbt.so (2013.1, Build901 2013/11/27)

>  <Rbt.Parameter_File>
/export/apps/rDock/src/rDock_2013.1_src/data/scripts/dock_solv.prm

>  <Rbt.Receptor>
prm/pocket_docking_6.prm

>  <SCORE>
-11.4274

>  <SCORE.INTER>
-10.8452

>  <SCORE.INTER.CONST>
1

>  <SCORE.INTER.POLAR>
0

>  <SCORE.INTER.ROT>
2

>  <SCORE.INTER.SOLV>
11.3407

>  <SCORE.INTER.VDW>
-15.9437

>  <SCORE.INTER.norm>
-0.570799

>  <SCORE.INTRA>
-0.582179

>  <SCORE.INTRA.DIHEDRAL>
-0.271603

>  <SCORE.INTRA.DIHEDRAL.0>
1.50031

>  <SCORE.INTRA.POLAR>
0

>  <SCORE.INTRA.POLAR.0>
0

>  <SCORE.INTRA.REPUL>
0

>  <SCORE.INTRA.REPUL.0>
0

>  <SCORE.INTRA.SOLV>
0.0305902

>  <SCORE.INTRA.SOLV.lig_0>
-37.9941

>  <SCORE.INTRA.VDW>
-0.461672

>  <SCORE.INTRA.VDW.0>
-0.964461

>  <SCORE.INTRA.norm>
-0.030641

>  <SCORE.RESTR>
0

>  <SCORE.RESTR.CAVITY>
0

>  <SCORE.RESTR.norm>
0

>  <SCORE.SYSTEM>
0

>  <SCORE.SYSTEM.CONST>
0

>  <SCORE.SYSTEM.DIHEDRAL>
0

>  <SCORE.SYSTEM.SOLV>
0

>  <SCORE.SYSTEM.norm>
0

>  <SCORE.heavy>
19

>  <SCORE.norm>
-0.60144

>  <RMSD>
6.426

$$$$
ligand
 OpenBabel11021811483D
libRbt.so/2013.1/901 2013/11/27
 19 21  0  0  0  0  0  0  0  0999 V2000
   17.6825   28.9207   39.4590 C   0  0  0  0  0  0  0  0  0  0  0  0
   17.3788   28.5155   40.8052 O   0  0  0  0  0  0  0  0  0  0  0  0
   17.5920   27.7385   38.4884 C   0  0  1  0  0  0  0  0  0  0  0  0
   17.8217   28.1719   37.1479 O   0  0  0  0  0  0  0  0  0  0  0  0
   18.6307   26.6760   38.7936 C   0  0  1  0  0  0  0  0  0  0  0  0
   17.9983   25.3969   38.7318 O   0  0  0  0  0  0  0  0  0  0  0  0
   19.6708   26.7617   37.6996 C   0  0  0  0  0  0  0  0  0  0  0  0
   19.0194   27.5910   36.6080 C   0  0  2  0  0  0  0  0  0  0  0  0
   21.6124   29.3034   32.4725 N   0  0  0  0  0  0  0  0  0  0  0  0
   20.8520   28.1955   32.6456 C   0  0  2  0  0  0  0  0  0  0  0  0
   20.6712   27.3315   31.6245 N   0  0  0  0  0  0  0  0  0  0  0  0
   20.2574   27.9231   33.8264 N   0  0  0  0  0  0  0  0  0  0  0  0
   20.3936   28.7414   34.8894 C   0  0  1  0  0  0  0  0  0  0  0  0
   21.1553   29.8827   34.7885 C   0  0  1  0  0  0  0  0  0  0  0  0
   21.8024   30.1730   33.4852 C   0  0  0  0  0  0  0  0  0  0  0  0
   22.5094   31.1935   33.3318 O   0  0  0  0  0  0  0  0  0  0  0  0
   21.1189   30.5048   35.9793 N   0  0  0  0  0  0  0  0  0  0  0  0
   20.3459   29.7522   36.7960 C   0  0  0  0  0  0  0  0  0  0  0  0
   19.9078   28.6789   36.1186 N   0  0  1  0  0  0  0  0  0  0  0  0
  1  2  1  0  0  0  0
  3  1  1  1  0  0  0
  3  4  1  0  0  0  0
  3  5  1  0  0  0  0
  5  6  1  6  0  0  0
  5  7  1  0  0  0  0
  7  8  1  0  0  0  0
  8  4  1  1  0  0  0
  8 19  1  0  0  0  0
  9 15  1  0  0  0  0
  9 10  1  0  0  0  0
 10 11  1  6  0  0  0
 10 12  1  0  0  0  0
 13 12  1  6  0  0  0
 13 14  1  0  0  0  0
 13 19  1  0  0  0  0
 14 15  1  6  0  0  0
 14 17  1  0  0  0  0
 15 16  2  0  0  0  0
 17 18  1  0  0  0  0
 19 18  1  6  0  0  0
M  END
>  <CHROM.1>
176.72332777,-125.39477913,19.75833750,28.47259906,36.06397488,-2.73064418
-1.01074411,-2.36260947

>  <Name>
ligand

>  <RI>
0

>  <Rbt.Current_Directory>
/home/itssahil/PROJECTS/Mol_Feturizer/New_Systems/rnas/3SKL

>  <Rbt.Executable>
rbdock ($Id: //depot/dev/client3/rdock/2013.1/src/exe/rbdock.cxx#4 $)

>  <Rbt.Library>
libRbt.so (2013.1, Build901 2013/11/27)

>  <Rbt.Parameter_File>
/export/apps/rDock/src/rDock_2013.1_src/data/scripts/dock_solv.prm

>  <Rbt.Receptor>
prm/pocket_docking_5.prm

>  <SCORE>
-14.2861

>  <SCORE.INTER>
-13.7663

>  <SCORE.INTER.CONST>
1

>  <SCORE.INTER.POLAR>
0

>  <SCORE.INTER.ROT>
2

>  <SCORE.INTER.SOLV>
14.6155

>  <SCORE.INTER.VDW>
-18.9827

>  <SCORE.INTER.norm>
-0.724541

>  <SCORE.INTRA>
-0.519872

>  <SCORE.INTRA.DIHEDRAL>
-0.253027

>  <SCORE.INTRA.DIHEDRAL.0>
1.50031

>  <SCORE.INTRA.POLAR>
0

>  <SCORE.INTRA.POLAR.0>
0

>  <SCORE.INTRA.REPUL>
0

>  <SCORE.INTRA.REPUL.0>
0

>  <SCORE.INTRA.SOLV>
-0.474439

>  <SCORE.INTRA.SOLV.lig_0>
-37.9941

>  <SCORE.INTRA.VDW>
-0.156139

>  <SCORE.INTRA.VDW.0>
-0.964461

>  <SCORE.INTRA.norm>
-0.0273617

>  <SCORE.RESTR>
0

>  <SCORE.RESTR.CAVITY>
0

>  <SCORE.RESTR.norm>
0

>  <SCORE.SYSTEM>
0

>  <SCORE.SYSTEM.CONST>
0

>  <SCORE.SYSTEM.DIHEDRAL>
0

>  <SCORE.SYSTEM.SOLV>
0

>  <SCORE.SYSTEM.norm>
0

>  <SCORE.heavy>
19

>  <SCORE.norm>
-0.751902

>  <RMSD>
6.428

$$$$
ligand
 OpenBabel11021811483D
libRbt.so/2013.1/901 2013/11/27
 19 21  0  0  0  0  0  0  0  0999 V2000
   20.5129   30.2599   36.2163 C   0  0  0  0  0  0  0  0  0  0  0  0
   19.9341   31.4822   35.7267 O   0  0  0  0  0  0  0  0  0  0  0  0
   19.4332   29.2163   36.5216 C   0  0  1  0  0  0  0  0  0  0  0  0
   18.6222   28.9828   35.3705 O   0  0  0  0  0  0  0  0  0  0  0  0
   20.0340   27.8809   36.9175 C   0  0  1  0  0  0  0  0  0  0  0  0
   19.3239   27.3867   38.0538 O   0  0  0  0  0  0  0  0  0  0  0  0
   19.8084   26.9434   35.7529 C   0  0  0  0  0  0  0  0  0  0  0  0
   18.7676   27.6361   34.8922 C   0  0  2  0  0  0  0  0  0  0  0  0
   22.0574   29.7681   31.5174 N   0  0  0  0  0  0  0  0  0  0  0  0
   21.9135   29.9522   32.8520 C   0  0  2  0  0  0  0  0  0  0  0  0
   22.7221   30.8106   33.5086 N   0  0  0  0  0  0  0  0  0  0  0  0
   20.9723   29.2925   33.5596 N   0  0  0  0  0  0  0  0  0  0  0  0
   20.1304   28.4195   32.9702 C   0  0  1  0  0  0  0  0  0  0  0  0
   20.2150   28.1857   31.6170 C   0  0  1  0  0  0  0  0  0  0  0  0
   21.2547   28.9150   30.8497 C   0  0  0  0  0  0  0  0  0  0  0  0
   21.3795   28.7473   29.6165 O   0  0  0  0  0  0  0  0  0  0  0  0
   19.2713   27.2833   31.2985 N   0  0  0  0  0  0  0  0  0  0  0  0
   18.6193   26.9714   32.4423 C   0  0  0  0  0  0  0  0  0  0  0  0
   19.1539   27.6706   33.4564 N   0  0  1  0  0  0  0  0  0  0  0  0
  1  2  1  0  0  0  0
  3  1  1  6  0  0  0
  3  4  1  0  0  0  0
  3  5  1  0  0  0  0
  5  6  1  1  0  0  0
  5  7  1  0  0  0  0
  7  8  1  0  0  0  0
  8  4  1  1  0  0  0
  8 19  1  0  0  0  0
  9 15  1  0  0  0  0
  9 10  1  0  0  0  0
 10 11  1  1  0  0  0
 10 12  1  0  0  0  0
 13 12  1  1  0  0  0
 13 14  1  0  0  0  0
 13 19  1  0  0  0  0
 14 15  1  1  0  0  0
 14 17  1  0  0  0  0
 15 16  2  0  0  0  0
 17 18  1  0  0  0  0
 19 18  1  1  0  0  0
M  END
>  <CHROM.1>
55.70134048,48.81574210,20.20599011,28.75400956,33.91490940,-2.03331921,-0.91255349
-1.88798928

>  <Name>
ligand

>  <RI>
0

>  <Rbt.Current_Directory>
/home/itssahil/PROJECTS/Mol_Feturizer/New_Systems/rnas/3SKL

>  <Rbt.Executable>
rbdock ($Id: //depot/dev/client3/rdock/2013.1/src/exe/rbdock.cxx#4 $)

>  <Rbt.Library>
libRbt.so (2013.1, Build901 2013/11/27)

>  <Rbt.Parameter_File>
/export/apps/rDock/src/rDock_2013.1_src/data/scripts/dock_solv.prm

>  <Rbt.Receptor>
prm/pocket_docking_6.prm

>  <SCORE>
-13.4566

>  <SCORE.INTER>
-13.461

>  <SCORE.INTER.CONST>
1

>  <SCORE.INTER.POLAR>
0

>  <SCORE.INTER.ROT>
2

>  <SCORE.INTER.SOLV>
13.4434

>  <SCORE.INTER.VDW>
-18.3885

>  <SCORE.INTER.norm>
-0.708473

>  <SCORE.INTRA>
0.00434612

>  <SCORE.INTRA.DIHEDRAL>
-0.247178

>  <SCORE.INTRA.DIHEDRAL.0>
1.50031

>  <SCORE.INTRA.POLAR>
0

>  <SCORE.INTRA.POLAR.0>
0

>  <SCORE.INTRA.REPUL>
0

>  <SCORE.INTRA.REPUL.0>
0

>  <SCORE.INTRA.SOLV>
1.80101

>  <SCORE.INTRA.SOLV.lig_0>
-37.9941

>  <SCORE.INTRA.VDW>
-0.772569

>  <SCORE.INTRA.VDW.0>
-0.964461

>  <SCORE.INTRA.norm>
0.000228743

>  <SCORE.RESTR>
0

>  <SCORE.RESTR.CAVITY>
0

>  <SCORE.RESTR.norm>
0

>  <SCORE.SYSTEM>
0

>  <SCORE.SYSTEM.CONST>
0

>  <SCORE.SYSTEM.DIHEDRAL>
0

>  <SCORE.SYSTEM.SOLV>
0

>  <SCORE.SYSTEM.norm>
0

>  <SCORE.heavy>
19

>  <SCORE.norm>
-0.708244

>  <RMSD>
6.430

$$$$
ligand
 OpenBabel11021811483D
libRbt.so/2013.1/901 2013/11/27
 19 21  0  0  0  0  0  0  0  0999 V2000
   19.6222   30.7377   34.5519 C   0  0  0  0  0  0  0  0  0  0  0  0
   18.3465   30.6023   33.9016 O   0  0  0  0  0  0  0  0  0  0  0  0
   20.6640   29.7992   33.9340 C   0  0  1  0  0  0  0  0  0  0  0  0
   20.2285   28.4425   34.0175 O   0  0  0  0  0  0  0  0  0  0  0  0
   20.8949   30.0999   32.4653 C   0  0  1  0  0  0  0  0  0  0  0  0
   22.3016   30.0878   32.2187 O   0  0  0  0  0  0  0  0  0  0  0  0
   20.2513   28.9743   31.6875 C   0  0  0  0  0  0  0  0  0  0  0  0
   20.0084   27.8822   32.7132 C   0  0  2  0  0  0  0  0  0  0  0  0
   17.0452   24.3078   30.4327 N   0  0  0  0  0  0  0  0  0  0  0  0
   18.3576   24.6041   30.2734 C   0  0  2  0  0  0  0  0  0  0  0  0
   19.1100   23.9004   29.4014 N   0  0  0  0  0  0  0  0  0  0  0  0
   18.9485   25.5967   30.9717 N   0  0  0  0  0  0  0  0  0  0  0  0
   18.2590   26.3404   31.8602 C   0  0  1  0  0  0  0  0  0  0  0  0
   16.9208   26.0995   32.0707 C   0  0  1  0  0  0  0  0  0  0  0  0
   16.2824   25.0047   31.2991 C   0  0  0  0  0  0  0  0  0  0  0  0
   15.0687   24.7391   31.4442 O   0  0  0  0  0  0  0  0  0  0  0  0
   16.4889   26.9734   32.9960 N   0  0  0  0  0  0  0  0  0  0  0  0
   17.5495   27.7378   33.3445 C   0  0  0  0  0  0  0  0  0  0  0  0
   18.6248   27.3408   32.6453 N   0  0  1  0  0  0  0  0  0  0  0  0
  1  2  1  0  0  0  0
  3  1  1  6  0  0  0
  3  4  1  0  0  0  0
  3  5  1  0  0  0  0
  5  6  1  1  0  0  0
  5  7  1  0  0  0  0
  7  8  1  0  0  0  0
  8  4  1  1  0  0  0
  8 19  1  0  0  0  0
  9 15  1  0  0  0  0
  9 10  1  0  0  0  0
 10 11  1  1  0  0  0
 10 12  1  0  0  0  0
 13 12  1  1  0  0  0
 13 14  1  0  0  0  0
 13 19  1  0  0  0  0
 14 15  1  1  0  0  0
 14 17  1  0  0  0  0
 15 16  2  0  0  0  0
 17 18  1  0  0  0  0
 19 18  1  1  0  0  0
M  END
>  <CHROM.1>
-58.09014743,-152.26452322,18.71754269,27.39568298,32.25131084,1.00398195
0.34665734,0.66016394

>  <Name>
ligand

>  <RI>
0

>  <Rbt.Current_Directory>
/home/itssahil/PROJECTS/Mol_Feturizer/New_Systems/rnas/3SKL

>  <Rbt.Executable>
rbdock ($Id: //depot/dev/client3/rdock/2013.1/src/exe/rbdock.cxx#4 $)

>  <Rbt.Library>
libRbt.so (2013.1, Build901 2013/11/27)

>  <Rbt.Parameter_File>
/export/apps/rDock/src/rDock_2013.1_src/data/scripts/dock_solv.prm

>  <Rbt.Receptor>
prm/pocket_docking_6.prm

>  <SCORE>
-11.3944

>  <SCORE.INTER>
-10.8169

>  <SCORE.INTER.CONST>
1

>  <SCORE.INTER.POLAR>
0

>  <SCORE.INTER.ROT>
2

>  <SCORE.INTER.SOLV>
11.5646

>  <SCORE.INTER.VDW>
-15.9995

>  <SCORE.INTER.norm>
-0.569313

>  <SCORE.INTRA>
-0.577415

>  <SCORE.INTRA.DIHEDRAL>
-0.259762

>  <SCORE.INTRA.DIHEDRAL.0>
1.50031

>  <SCORE.INTRA.POLAR>
0

>  <SCORE.INTRA.POLAR.0>
0

>  <SCORE.INTRA.REPUL>
0

>  <SCORE.INTRA.REPUL.0>
0

>  <SCORE.INTRA.SOLV>
0.0333741

>  <SCORE.INTRA.SOLV.lig_0>
-37.9941

>  <SCORE.INTRA.VDW>
-0.464221

>  <SCORE.INTRA.VDW.0>
-0.964461

>  <SCORE.INTRA.norm>
-0.0303902

>  <SCORE.RESTR>
0

>  <SCORE.RESTR.CAVITY>
0

>  <SCORE.RESTR.norm>
0

>  <SCORE.SYSTEM>
0

>  <SCORE.SYSTEM.CONST>
0

>  <SCORE.SYSTEM.DIHEDRAL>
0

>  <SCORE.SYSTEM.SOLV>
0

>  <SCORE.SYSTEM.norm>
0

>  <SCORE.heavy>
19

>  <SCORE.norm>
-0.599703

>  <RMSD>
6.450

$$$$
ligand
 OpenBabel11021811483D
libRbt.so/2013.1/901 2013/11/27
 19 21  0  0  0  0  0  0  0  0999 V2000
   19.7135   26.1870   37.2504 C   0  0  0  0  0  0  0  0  0  0  0  0
   18.7568   25.2498   37.7749 O   0  0  0  0  0  0  0  0  0  0  0  0
   19.4452   27.6042   37.7676 C   0  0  1  0  0  0  0  0  0  0  0  0
   20.5054   28.4834   37.3932 O   0  0  0  0  0  0  0  0  0  0  0  0
   18.1667   28.1831   37.1921 C   0  0  1  0  0  0  0  0  0  0  0  0
   17.4395   28.8090   38.2500 O   0  0  0  0  0  0  0  0  0  0  0  0
   18.5820   29.2381   36.1919 C   0  0  0  0  0  0  0  0  0  0  0  0
   20.0461   29.5032   36.4918 C   0  0  2  0  0  0  0  0  0  0  0  0
   23.4591   32.2442   33.7357 N   0  0  0  0  0  0  0  0  0  0  0  0
   22.7972   32.5452   34.8789 C   0  0  2  0  0  0  0  0  0  0  0  0
   22.9983   33.7342   35.4851 N   0  0  0  0  0  0  0  0  0  0  0  0
   21.9288   31.6791   35.4424 N   0  0  0  0  0  0  0  0  0  0  0  0
   21.6790   30.4735   34.8927 C   0  0  1  0  0  0  0  0  0  0  0  0
   22.3114   30.1014   33.7288 C   0  0  1  0  0  0  0  0  0  0  0  0
   23.2654   31.0606   33.1194 C   0  0  0  0  0  0  0  0  0  0  0  0
   23.8692   30.7814   32.0601 O   0  0  0  0  0  0  0  0  0  0  0  0
   21.8850   28.8678   33.4084 N   0  0  0  0  0  0  0  0  0  0  0  0
   21.0035   28.4928   34.3639 C   0  0  0  0  0  0  0  0  0  0  0  0
   20.8872   29.4810   35.2654 N   0  0  1  0  0  0  0  0  0  0  0  0
  1  2  1  0  0  0  0
  3  1  1  6  0  0  0
  3  4  1  0  0  0  0
  3  5  1  0  0  0  0
  5  6  1  1  0  0  0
  5  7  1  0  0  0  0
  7  8  1  0  0  0  0
  8  4  1  1  0  0  0
  8 19  1  0  0  0  0
  9 15  1  0  0  0  0
  9 10  1  0  0  0  0
 10 11  1  1  0  0  0
 10 12  1  0  0  0  0
 13 12  1  1  0  0  0
 13 14  1  0  0  0  0
 13 19  1  0  0  0  0
 14 15  1  1  0  0  0
 14 17  1  0  0  0  0
 15 16  2  0  0  0  0
 17 18  1  0  0  0  0
 19 18  1  1  0  0  0
M  END
>  <CHROM.1>
171.85200662,-115.35125987,20.93348688,29.55566142,35.56813842,-2.71925914
0.85335093,0.32183746

>  <Name>
ligand

>  <RI>
0

>  <Rbt.Current_Directory>
/home/itssahil/PROJECTS/Mol_Feturizer/New_Systems/rnas/3SKL

>  <Rbt.Executable>
rbdock ($Id: //depot/dev/client3/rdock/2013.1/src/exe/rbdock.cxx#4 $)

>  <Rbt.Library>
libRbt.so (2013.1, Build901 2013/11/27)

>  <Rbt.Parameter_File>
/export/apps/rDock/src/rDock_2013.1_src/data/scripts/dock_solv.prm

>  <Rbt.Receptor>
prm/pocket_docking_8.prm

>  <SCORE>
-16.2433

>  <SCORE.INTER>
-15.8539

>  <SCORE.INTER.CONST>
1

>  <SCORE.INTER.POLAR>
0

>  <SCORE.INTER.ROT>
2

>  <SCORE.INTER.SOLV>
17.6929

>  <SCORE.INTER.VDW>
-21.4003

>  <SCORE.INTER.norm>
-0.834418

>  <SCORE.INTRA>
-0.389324

>  <SCORE.INTRA.DIHEDRAL>
-0.0696704

>  <SCORE.INTRA.DIHEDRAL.0>
1.50031

>  <SCORE.INTRA.POLAR>
0

>  <SCORE.INTRA.POLAR.0>
0

>  <SCORE.INTRA.REPUL>
0

>  <SCORE.INTRA.REPUL.0>
0

>  <SCORE.INTRA.SOLV>
-0.498502

>  <SCORE.INTRA.SOLV.lig_0>
-37.9941

>  <SCORE.INTRA.VDW>
-0.105238

>  <SCORE.INTRA.VDW.0>
-0.964461

>  <SCORE.INTRA.norm>
-0.0204908

>  <SCORE.RESTR>
0

>  <SCORE.RESTR.CAVITY>
0

>  <SCORE.RESTR.norm>
0

>  <SCORE.SYSTEM>
0

>  <SCORE.SYSTEM.CONST>
0

>  <SCORE.SYSTEM.DIHEDRAL>
0

>  <SCORE.SYSTEM.SOLV>
0

>  <SCORE.SYSTEM.norm>
0

>  <SCORE.heavy>
19

>  <SCORE.norm>
-0.854908

>  <RMSD>
6.472

$$$$
ligand
 OpenBabel11021811483D
libRbt.so/2013.1/901 2013/11/27
 19 21  0  0  0  0  0  0  0  0999 V2000
   20.9443   23.0422   41.1053 C   0  0  0  0  0  0  0  0  0  0  0  0
   21.5284   23.9376   42.0675 O   0  0  0  0  0  0  0  0  0  0  0  0
   19.4261   22.9430   41.2877 C   0  0  1  0  0  0  0  0  0  0  0  0
   18.8064   24.2018   41.0251 O   0  0  0  0  0  0  0  0  0  0  0  0
   18.8069   21.9381   40.3350 C   0  0  1  0  0  0  0  0  0  0  0  0
   17.8735   21.1410   41.0652 O   0  0  0  0  0  0  0  0  0  0  0  0
   18.0587   22.7363   39.2915 C   0  0  0  0  0  0  0  0  0  0  0  0
   17.9468   24.1324   39.8763 C   0  0  2  0  0  0  0  0  0  0  0  0
   17.8084   29.2222   38.9635 N   0  0  0  0  0  0  0  0  0  0  0  0
   17.3089   28.4918   39.9895 C   0  0  2  0  0  0  0  0  0  0  0  0
   16.6535   29.1020   40.9994 N   0  0  0  0  0  0  0  0  0  0  0  0
   17.4487   27.1501   40.0365 N   0  0  0  0  0  0  0  0  0  0  0  0
   18.0919   26.4740   39.0632 C   0  0  1  0  0  0  0  0  0  0  0  0
   18.6211   27.1495   37.9877 C   0  0  1  0  0  0  0  0  0  0  0  0
   18.4631   28.6243   37.9476 C   0  0  0  0  0  0  0  0  0  0  0  0
   18.9198   29.2939   36.9950 O   0  0  0  0  0  0  0  0  0  0  0  0
   19.1999   26.2437   37.1809 N   0  0  0  0  0  0  0  0  0  0  0  0
   19.0252   25.0317   37.7564 C   0  0  0  0  0  0  0  0  0  0  0  0
   18.3485   25.1855   38.9059 N   0  0  1  0  0  0  0  0  0  0  0  0
  1  2  1  0  0  0  0
  3  1  1  6  0  0  0
  3  4  1  0  0  0  0
  3  5  1  0  0  0  0
  5  6  1  1  0  0  0
  5  7  1  0  0  0  0
  7  8  1  0  0  0  0
  8  4  1  1  0  0  0
  8 19  1  0  0  0  0
  9 15  1  0  0  0  0
  9 10  1  0  0  0  0
 10 11  1  1  0  0  0
 10 12  1  0  0  0  0
 13 12  1  1  0  0  0
 13 14  1  0  0  0  0
 13 19  1  0  0  0  0
 14 15  1  1  0  0  0
 14 17  1  0  0  0  0
 15 16  2  0  0  0  0
 17 18  1  0  0  0  0
 19 18  1  1  0  0  0
M  END
>  <CHROM.1>
64.39470784,-74.57720261,18.62447555,25.52120854,39.62312333,0.94045819,-1.24316570
2.16974403

>  <Name>
ligand

>  <RI>
0

>  <Rbt.Current_Directory>
/home/itssahil/PROJECTS/Mol_Feturizer/New_Systems/rnas/3SKL

>  <Rbt.Executable>
rbdock ($Id: //depot/dev/client3/rdock/2013.1/src/exe/rbdock.cxx#4 $)

>  <Rbt.Library>
libRbt.so (2013.1, Build901 2013/11/27)

>  <Rbt.Parameter_File>
/export/apps/rDock/src/rDock_2013.1_src/data/scripts/dock_solv.prm

>  <Rbt.Receptor>
prm/pocket_docking_7.prm

>  <SCORE>
-15.9584

>  <SCORE.INTER>
-15.9873

>  <SCORE.INTER.CONST>
1

>  <SCORE.INTER.POLAR>
0

>  <SCORE.INTER.ROT>
2

>  <SCORE.INTER.SOLV>
20.8762

>  <SCORE.INTER.VDW>
-22.5502

>  <SCORE.INTER.norm>
-0.841437

>  <SCORE.INTRA>
-0.0870861

>  <SCORE.INTRA.DIHEDRAL>
-0.244965

>  <SCORE.INTRA.DIHEDRAL.0>
1.50031

>  <SCORE.INTRA.POLAR>
0

>  <SCORE.INTRA.POLAR.0>
0

>  <SCORE.INTRA.REPUL>
0

>  <SCORE.INTRA.REPUL.0>
0

>  <SCORE.INTRA.SOLV>
-0.55199

>  <SCORE.INTRA.SOLV.lig_0>
-37.9941

>  <SCORE.INTRA.VDW>
0.311391

>  <SCORE.INTRA.VDW.0>
-0.964461

>  <SCORE.INTRA.norm>
-0.00458348

>  <SCORE.RESTR>
0.115947

>  <SCORE.RESTR.CAVITY>
0.115947

>  <SCORE.RESTR.norm>
0.00610245

>  <SCORE.SYSTEM>
0

>  <SCORE.SYSTEM.CONST>
0

>  <SCORE.SYSTEM.DIHEDRAL>
0

>  <SCORE.SYSTEM.SOLV>
0

>  <SCORE.SYSTEM.norm>
0

>  <SCORE.heavy>
19

>  <SCORE.norm>
-0.839918

>  <RMSD>
6.506

$$$$
ligand
 OpenBabel11021811483D
libRbt.so/2013.1/901 2013/11/27
 19 21  0  0  0  0  0  0  0  0999 V2000
   21.0058   23.1108   41.1359 C   0  0  0  0  0  0  0  0  0  0  0  0
   21.5879   24.0098   42.0960 O   0  0  0  0  0  0  0  0  0  0  0  0
   19.4898   22.9976   41.3276 C   0  0  1  0  0  0  0  0  0  0  0  0
   18.8554   24.2468   41.0549 O   0  0  0  0  0  0  0  0  0  0  0  0
   18.8763   21.9760   40.3890 C   0  0  1  0  0  0  0  0  0  0  0  0
   17.9553   21.1770   41.1327 O   0  0  0  0  0  0  0  0  0  0  0  0
   18.1140   22.7550   39.3411 C   0  0  0  0  0  0  0  0  0  0  0  0
   17.9905   24.1561   39.9116 C   0  0  2  0  0  0  0  0  0  0  0  0
   17.7917   29.2338   38.9446 N   0  0  0  0  0  0  0  0  0  0  0  0
   17.3053   28.5092   39.9809 C   0  0  2  0  0  0  0  0  0  0  0  0
   16.6483   29.1232   40.9875 N   0  0  0  0  0  0  0  0  0  0  0  0
   17.4601   27.1697   40.0417 N   0  0  0  0  0  0  0  0  0  0  0  0
   18.1058   26.4901   39.0725 C   0  0  1  0  0  0  0  0  0  0  0  0
   18.6223   27.1597   37.9872 C   0  0  1  0  0  0  0  0  0  0  0  0
   18.4480   28.6321   37.9320 C   0  0  0  0  0  0  0  0  0  0  0  0
   18.8926   29.2963   36.9698 O   0  0  0  0  0  0  0  0  0  0  0  0
   19.2071   26.2516   37.1873 N   0  0  0  0  0  0  0  0  0  0  0  0
   19.0485   25.0440   37.7767 C   0  0  0  0  0  0  0  0  0  0  0  0
   18.3758   25.2029   38.9279 N   0  0  1  0  0  0  0  0  0  0  0  0
  1  2  1  0  0  0  0
  3  1  1  6  0  0  0
  3  4  1  0  0  0  0
  3  5  1  0  0  0  0
  5  6  1  1  0  0  0
  5  7  1  0  0  0  0
  7  8  1  0  0  0  0
  8  4  1  1  0  0  0
  8 19  1  0  0  0  0
  9 15  1  0  0  0  0
  9 10  1  0  0  0  0
 10 11  1  1  0  0  0
 10 12  1  0  0  0  0
 13 12  1  1  0  0  0
 13 14  1  0  0  0  0
 13 19  1  0  0  0  0
 14 15  1  1  0  0  0
 14 17  1  0  0  0  0
 15 16  2  0  0  0  0
 17 18  1  0  0  0  0
 19 18  1  1  0  0  0
M  END
>  <CHROM.1>
65.11499844,-74.60859894,18.65174249,25.54832860,39.64040283,0.90598049,-1.23759009
2.12576871

>  <Name>
ligand

>  <RI>
0

>  <Rbt.Current_Directory>
/home/itssahil/PROJECTS/Mol_Feturizer/New_Systems/rnas/3SKL

>  <Rbt.Executable>
rbdock ($Id: //depot/dev/client3/rdock/2013.1/src/exe/rbdock.cxx#4 $)

>  <Rbt.Library>
libRbt.so (2013.1, Build901 2013/11/27)

>  <Rbt.Parameter_File>
/export/apps/rDock/src/rDock_2013.1_src/data/scripts/dock_solv.prm

>  <Rbt.Receptor>
prm/pocket_docking_5.prm

>  <SCORE>
-16.0964

>  <SCORE.INTER>
-16.1423

>  <SCORE.INTER.CONST>
1

>  <SCORE.INTER.POLAR>
0

>  <SCORE.INTER.ROT>
2

>  <SCORE.INTER.SOLV>
20.9006

>  <SCORE.INTER.VDW>
-22.6618

>  <SCORE.INTER.norm>
-0.849596

>  <SCORE.INTRA>
-0.077147

>  <SCORE.INTRA.DIHEDRAL>
-0.22027

>  <SCORE.INTRA.DIHEDRAL.0>
1.50031

>  <SCORE.INTRA.POLAR>
0

>  <SCORE.INTRA.POLAR.0>
0

>  <SCORE.INTRA.REPUL>
0

>  <SCORE.INTRA.REPUL.0>
0

>  <SCORE.INTRA.SOLV>
-0.555435

>  <SCORE.INTRA.SOLV.lig_0>
-37.9941

>  <SCORE.INTRA.VDW>
0.310705

>  <SCORE.INTRA.VDW.0>
-0.964461

>  <SCORE.INTRA.norm>
-0.00406037

>  <SCORE.RESTR>
0.123018

>  <SCORE.RESTR.CAVITY>
0.123018

>  <SCORE.RESTR.norm>
0.00647463

>  <SCORE.SYSTEM>
0

>  <SCORE.SYSTEM.CONST>
0

>  <SCORE.SYSTEM.DIHEDRAL>
0

>  <SCORE.SYSTEM.SOLV>
0

>  <SCORE.SYSTEM.norm>
0

>  <SCORE.heavy>
19

>  <SCORE.norm>
-0.847181

>  <RMSD>
6.510

$$$$
ligand
 OpenBabel11021811483D
libRbt.so/2013.1/901 2013/11/27
 19 21  0  0  0  0  0  0  0  0999 V2000
   21.1304   28.6695   31.7109 C   0  0  0  0  0  0  0  0  0  0  0  0
   21.0178   29.3733   30.4616 O   0  0  0  0  0  0  0  0  0  0  0  0
   20.3263   29.3638   32.8150 C   0  0  1  0  0  0  0  0  0  0  0  0
   18.9335   29.3526   32.5033 O   0  0  0  0  0  0  0  0  0  0  0  0
   20.4855   28.6674   34.1531 C   0  0  1  0  0  0  0  0  0  0  0  0
   20.6957   29.6619   35.1564 O   0  0  0  0  0  0  0  0  0  0  0  0
   19.1782   27.9603   34.4304 C   0  0  0  0  0  0  0  0  0  0  0  0
   18.1909   28.5709   33.4525 C   0  0  2  0  0  0  0  0  0  0  0  0
   18.5839   24.6046   30.1552 N   0  0  0  0  0  0  0  0  0  0  0  0
   19.5291   25.4313   30.6639 C   0  0  2  0  0  0  0  0  0  0  0  0
   20.8246   25.2715   30.3207 N   0  0  0  0  0  0  0  0  0  0  0  0
   19.2124   26.4265   31.5190 N   0  0  0  0  0  0  0  0  0  0  0  0
   17.9393   26.6445   31.9062 C   0  0  1  0  0  0  0  0  0  0  0  0
   16.9259   25.8471   31.4263 C   0  0  1  0  0  0  0  0  0  0  0  0
   17.2861   24.7552   30.4886 C   0  0  0  0  0  0  0  0  0  0  0  0
   16.4093   23.9986   30.0159 O   0  0  0  0  0  0  0  0  0  0  0  0
   15.7746   26.2789   31.9688 N   0  0  0  0  0  0  0  0  0  0  0  0
   16.0817   27.3264   32.7684 C   0  0  0  0  0  0  0  0  0  0  0  0
   17.4067   27.5390   32.7229 N   0  0  1  0  0  0  0  0  0  0  0  0
  1  2  1  0  0  0  0
  3  1  1  6  0  0  0
  3  4  1  0  0  0  0
  3  5  1  0  0  0  0
  5  6  1  1  0  0  0
  5  7  1  0  0  0  0
  7  8  1  0  0  0  0
  8  4  1  6  0  0  0
  8 19  1  0  0  0  0
  9 15  1  0  0  0  0
  9 10  1  0  0  0  0
 10 11  1  1  0  0  0
 10 12  1  0  0  0  0
 13 12  1  1  0  0  0
 13 14  1  0  0  0  0
 13 19  1  0  0  0  0
 14 15  1  1  0  0  0
 14 17  1  0  0  0  0
 15 16  2  0  0  0  0
 17 18  1  0  0  0  0
 19 18  1  1  0  0  0
M  END
>  <CHROM.1>
63.46282093,56.68270677,18.78419135,27.19775421,32.03974343,-1.00061057,-0.35379642
-2.34356843

>  <Name>
ligand

>  <RI>
0

>  <Rbt.Current_Directory>
/home/itssahil/PROJECTS/Mol_Feturizer/New_Systems/rnas/3SKL

>  <Rbt.Executable>
rbdock ($Id: //depot/dev/client3/rdock/2013.1/src/exe/rbdock.cxx#4 $)

>  <Rbt.Library>
libRbt.so (2013.1, Build901 2013/11/27)

>  <Rbt.Parameter_File>
/export/apps/rDock/src/rDock_2013.1_src/data/scripts/dock_solv.prm

>  <Rbt.Receptor>
prm/pocket_docking_5.prm

>  <SCORE>
-10.5028

>  <SCORE.INTER>
-10.0761

>  <SCORE.INTER.CONST>
1

>  <SCORE.INTER.POLAR>
0

>  <SCORE.INTER.ROT>
2

>  <SCORE.INTER.SOLV>
13.462

>  <SCORE.INTER.VDW>
-16.138

>  <SCORE.INTER.norm>
-0.530319

>  <SCORE.INTRA>
-0.443139

>  <SCORE.INTRA.DIHEDRAL>
-0.258742

>  <SCORE.INTRA.DIHEDRAL.0>
1.50031

>  <SCORE.INTRA.POLAR>
0

>  <SCORE.INTRA.POLAR.0>
0

>  <SCORE.INTRA.REPUL>
0

>  <SCORE.INTRA.REPUL.0>
0

>  <SCORE.INTRA.SOLV>
0.97839

>  <SCORE.INTRA.SOLV.lig_0>
-37.9941

>  <SCORE.INTRA.VDW>
-0.802963

>  <SCORE.INTRA.VDW.0>
-0.964461

>  <SCORE.INTRA.norm>
-0.0233231

>  <SCORE.RESTR>
0.0164251

>  <SCORE.RESTR.CAVITY>
0.0164251

>  <SCORE.RESTR.norm>
0.000864477

>  <SCORE.SYSTEM>
0

>  <SCORE.SYSTEM.CONST>
0

>  <SCORE.SYSTEM.DIHEDRAL>
0

>  <SCORE.SYSTEM.SOLV>
0

>  <SCORE.SYSTEM.norm>
0

>  <SCORE.heavy>
19

>  <SCORE.norm>
-0.552778

>  <RMSD>
6.511

$$$$
ligand
 OpenBabel11021811483D
libRbt.so/2013.1/901 2013/11/27
 19 21  0  0  0  0  0  0  0  0999 V2000
   18.0519   25.3141   30.8684 C   0  0  0  0  0  0  0  0  0  0  0  0
   16.9968   24.5768   30.2266 O   0  0  0  0  0  0  0  0  0  0  0  0
   17.5158   26.1526   32.0334 C   0  0  1  0  0  0  0  0  0  0  0  0
   18.5887   26.7824   32.7331 O   0  0  0  0  0  0  0  0  0  0  0  0
   16.5908   27.2563   31.5565 C   0  0  1  0  0  0  0  0  0  0  0  0
   15.4447   27.2830   32.4083 O   0  0  0  0  0  0  0  0  0  0  0  0
   17.3495   28.5544   31.7150 C   0  0  0  0  0  0  0  0  0  0  0  0
   18.5203   28.2126   32.6184 C   0  0  2  0  0  0  0  0  0  0  0  0
   22.5258   31.3157   33.6602 N   0  0  0  0  0  0  0  0  0  0  0  0
   21.4040   31.0476   34.3710 C   0  0  2  0  0  0  0  0  0  0  0  0
   21.2065   31.6324   35.5713 N   0  0  0  0  0  0  0  0  0  0  0  0
   20.4610   30.1985   33.9108 N   0  0  0  0  0  0  0  0  0  0  0  0
   20.5917   29.5779   32.7209 C   0  0  1  0  0  0  0  0  0  0  0  0
   21.7029   29.8058   31.9422 C   0  0  1  0  0  0  0  0  0  0  0  0
   22.7337   30.7395   32.4591 C   0  0  0  0  0  0  0  0  0  0  0  0
   23.7647   30.9895   31.7963 O   0  0  0  0  0  0  0  0  0  0  0  0
   21.5775   29.0683   30.8256 N   0  0  0  0  0  0  0  0  0  0  0  0
   20.4049   28.4001   30.9217 C   0  0  0  0  0  0  0  0  0  0  0  0
   19.8129   28.7185   32.0840 N   0  0  1  0  0  0  0  0  0  0  0  0
  1  2  1  0  0  0  0
  3  1  1  6  0  0  0
  3  4  1  0  0  0  0
  3  5  1  0  0  0  0
  5  6  1  1  0  0  0
  5  7  1  0  0  0  0
  7  8  1  0  0  0  0
  8  4  1  6  0  0  0
  8 19  1  0  0  0  0
  9 15  1  0  0  0  0
  9 10  1  0  0  0  0
 10 11  1  1  0  0  0
 10 12  1  0  0  0  0
 13 12  1  1  0  0  0
 13 14  1  0  0  0  0
 13 19  1  0  0  0  0
 14 15  1  1  0  0  0
 14 17  1  0  0  0  0
 15 16  2  0  0  0  0
 17 18  1  0  0  0  0
 19 18  1  1  0  0  0
M  END
>  <CHROM.1>
174.79261984,-120.51513060,19.68054060,28.64832069,32.31869133,-2.47948948
0.41798958,0.84437445

>  <Name>
ligand

>  <RI>
0

>  <Rbt.Current_Directory>
/home/itssahil/PROJECTS/Mol_Feturizer/New_Systems/rnas/3SKL

>  <Rbt.Executable>
rbdock ($Id: //depot/dev/client3/rdock/2013.1/src/exe/rbdock.cxx#4 $)

>  <Rbt.Library>
libRbt.so (2013.1, Build901 2013/11/27)

>  <Rbt.Parameter_File>
/export/apps/rDock/src/rDock_2013.1_src/data/scripts/dock_solv.prm

>  <Rbt.Receptor>
prm/pocket_docking_5.prm

>  <SCORE>
-9.48839

>  <SCORE.INTER>
-9.18467

>  <SCORE.INTER.CONST>
1

>  <SCORE.INTER.POLAR>
0

>  <SCORE.INTER.ROT>
2

>  <SCORE.INTER.SOLV>
13.8584

>  <SCORE.INTER.VDW>
-15.6759

>  <SCORE.INTER.norm>
-0.483403

>  <SCORE.INTRA>
-0.4684

>  <SCORE.INTRA.DIHEDRAL>
-0.201134

>  <SCORE.INTRA.DIHEDRAL.0>
1.50031

>  <SCORE.INTRA.POLAR>
0

>  <SCORE.INTRA.POLAR.0>
0

>  <SCORE.INTRA.REPUL>
0

>  <SCORE.INTRA.REPUL.0>
0

>  <SCORE.INTRA.SOLV>
-0.483919

>  <SCORE.INTRA.SOLV.lig_0>
-37.9941

>  <SCORE.INTRA.VDW>
-0.125874

>  <SCORE.INTRA.VDW.0>
-0.964461

>  <SCORE.INTRA.norm>
-0.0246526

>  <SCORE.RESTR>
0.164677

>  <SCORE.RESTR.CAVITY>
0.164677

>  <SCORE.RESTR.norm>
0.0086672

>  <SCORE.SYSTEM>
0

>  <SCORE.SYSTEM.CONST>
0

>  <SCORE.SYSTEM.DIHEDRAL>
0

>  <SCORE.SYSTEM.SOLV>
0

>  <SCORE.SYSTEM.norm>
0

>  <SCORE.heavy>
19

>  <SCORE.norm>
-0.499389

>  <RMSD>
6.511

$$$$
ligand
 OpenBabel11021811483D
libRbt.so/2013.1/901 2013/11/27
 19 21  0  0  0  0  0  0  0  0999 V2000
   21.0134   23.1208   41.1471 C   0  0  0  0  0  0  0  0  0  0  0  0
   21.5839   24.0290   42.1054 O   0  0  0  0  0  0  0  0  0  0  0  0
   19.4975   22.9962   41.3327 C   0  0  1  0  0  0  0  0  0  0  0  0
   18.8553   24.2417   41.0609 O   0  0  0  0  0  0  0  0  0  0  0  0
   18.8949   21.9729   40.3889 C   0  0  1  0  0  0  0  0  0  0  0  0
   17.9768   21.1653   41.1269 O   0  0  0  0  0  0  0  0  0  0  0  0
   18.1312   22.7494   39.3402 C   0  0  0  0  0  0  0  0  0  0  0  0
   17.9955   24.1480   39.9141 C   0  0  2  0  0  0  0  0  0  0  0  0
   17.7691   29.2275   38.9627 N   0  0  0  0  0  0  0  0  0  0  0  0
   17.2843   28.4967   39.9954 C   0  0  2  0  0  0  0  0  0  0  0  0
   16.6210   29.1035   41.0022 N   0  0  0  0  0  0  0  0  0  0  0  0
   17.4468   27.1580   40.0523 N   0  0  0  0  0  0  0  0  0  0  0  0
   18.0992   26.4853   39.0827 C   0  0  1  0  0  0  0  0  0  0  0  0
   18.6145   27.1614   38.0008 C   0  0  1  0  0  0  0  0  0  0  0  0
   18.4316   28.6329   37.9499 C   0  0  0  0  0  0  0  0  0  0  0  0
   18.8747   29.3029   36.9910 O   0  0  0  0  0  0  0  0  0  0  0  0
   19.2067   26.2593   37.1997 N   0  0  0  0  0  0  0  0  0  0  0  0
   19.0538   25.0489   37.7848 C   0  0  0  0  0  0  0  0  0  0  0  0
   18.3772   25.2002   38.9347 N   0  0  1  0  0  0  0  0  0  0  0  0
  1  2  1  0  0  0  0
  3  1  1  6  0  0  0
  3  4  1  0  0  0  0
  3  5  1  0  0  0  0
  5  6  1  1  0  0  0
  5  7  1  0  0  0  0
  7  8  1  0  0  0  0
  8  4  1  1  0  0  0
  8 19  1  0  0  0  0
  9 15  1  0  0  0  0
  9 10  1  0  0  0  0
 10 11  1  1  0  0  0
 10 12  1  0  0  0  0
 13 12  1  1  0  0  0
 13 14  1  0  0  0  0
 13 19  1  0  0  0  0
 14 15  1  1  0  0  0
 14 17  1  0  0  0  0
 15 16  2  0  0  0  0
 17 18  1  0  0  0  0
 19 18  1  1  0  0  0
M  END
>  <CHROM.1>
64.67597229,-74.50760335,18.64913207,25.54628022,39.64953437,0.90034112,-1.23283823
2.12301154

>  <Name>
ligand

>  <RI>
0

>  <Rbt.Current_Directory>
/home/itssahil/PROJECTS/Mol_Feturizer/New_Systems/rnas/3SKL

>  <Rbt.Executable>
rbdock ($Id: //depot/dev/client3/rdock/2013.1/src/exe/rbdock.cxx#4 $)

>  <Rbt.Library>
libRbt.so (2013.1, Build901 2013/11/27)

>  <Rbt.Parameter_File>
/export/apps/rDock/src/rDock_2013.1_src/data/scripts/dock_solv.prm

>  <Rbt.Receptor>
prm/pocket_docking_8.prm

>  <SCORE>
-16.031

>  <SCORE.INTER>
-16.068

>  <SCORE.INTER.CONST>
1

>  <SCORE.INTER.POLAR>
0

>  <SCORE.INTER.ROT>
2

>  <SCORE.INTER.SOLV>
20.8746

>  <SCORE.INTER.VDW>
-22.6036

>  <SCORE.INTER.norm>
-0.845686

>  <SCORE.INTRA>
-0.0826268

>  <SCORE.INTRA.DIHEDRAL>
-0.235678

>  <SCORE.INTRA.DIHEDRAL.0>
1.50031

>  <SCORE.INTRA.POLAR>
0

>  <SCORE.INTRA.POLAR.0>
0

>  <SCORE.INTRA.REPUL>
0

>  <SCORE.INTRA.REPUL.0>
0

>  <SCORE.INTRA.SOLV>
-0.553279

>  <SCORE.INTRA.SOLV.lig_0>
-37.9941

>  <SCORE.INTRA.VDW>
0.311852

>  <SCORE.INTRA.VDW.0>
-0.964461

>  <SCORE.INTRA.norm>
-0.00434878

>  <SCORE.RESTR>
0.119645

>  <SCORE.RESTR.CAVITY>
0.119645

>  <SCORE.RESTR.norm>
0.00629711

>  <SCORE.SYSTEM>
0

>  <SCORE.SYSTEM.CONST>
0

>  <SCORE.SYSTEM.DIHEDRAL>
0

>  <SCORE.SYSTEM.SOLV>
0

>  <SCORE.SYSTEM.norm>
0

>  <SCORE.heavy>
19

>  <SCORE.norm>
-0.843737

>  <RMSD>
6.512

$$$$
ligand
 OpenBabel11021811483D
libRbt.so/2013.1/901 2013/11/27
 19 21  0  0  0  0  0  0  0  0999 V2000
   20.5040   23.1161   41.3456 C   0  0  0  0  0  0  0  0  0  0  0  0
   21.0998   22.0938   42.1632 O   0  0  0  0  0  0  0  0  0  0  0  0
   18.9886   22.9217   41.2280 C   0  0  1  0  0  0  0  0  0  0  0  0
   18.3537   24.1449   40.8564 O   0  0  0  0  0  0  0  0  0  0  0  0
   18.6309   21.8979   40.1674 C   0  0  1  0  0  0  0  0  0  0  0  0
   17.6256   21.0328   40.6974 O   0  0  0  0  0  0  0  0  0  0  0  0
   18.0508   22.6673   39.0024 C   0  0  0  0  0  0  0  0  0  0  0  0
   17.7397   24.0436   39.5617 C   0  0  2  0  0  0  0  0  0  0  0  0
   17.9041   29.1827   38.9956 N   0  0  0  0  0  0  0  0  0  0  0  0
   17.3028   28.4133   39.9347 C   0  0  2  0  0  0  0  0  0  0  0  0
   16.6108   28.9888   40.9405 N   0  0  0  0  0  0  0  0  0  0  0  0
   17.3754   27.0659   39.8978 N   0  0  0  0  0  0  0  0  0  0  0  0
   18.0498   26.4229   38.9232 C   0  0  1  0  0  0  0  0  0  0  0  0
   18.6814   27.1394   37.9328 C   0  0  1  0  0  0  0  0  0  0  0  0
   18.5966   28.6198   37.9847 C   0  0  0  0  0  0  0  0  0  0  0  0
   19.1474   29.3262   37.1117 O   0  0  0  0  0  0  0  0  0  0  0  0
   19.2696   26.2599   37.1040 N   0  0  0  0  0  0  0  0  0  0  0  0
   18.9995   25.0233   37.5821 C   0  0  0  0  0  0  0  0  0  0  0  0
   18.2551   25.1360   38.6940 N   0  0  1  0  0  0  0  0  0  0  0  0
  1  2  1  0  0  0  0
  3  1  1  6  0  0  0
  3  4  1  0  0  0  0
  3  5  1  0  0  0  0
  5  6  1  1  0  0  0
  5  7  1  0  0  0  0
  7  8  1  0  0  0  0
  8  4  1  1  0  0  0
  8 19  1  0  0  0  0
  9 15  1  0  0  0  0
  9 10  1  0  0  0  0
 10 11  1  1  0  0  0
 10 12  1  0  0  0  0
 13 12  1  1  0  0  0
 13 14  1  0  0  0  0
 13 19  1  0  0  0  0
 14 15  1  1  0  0  0
 14 17  1  0  0  0  0
 15 16  2  0  0  0  0
 17 18  1  0  0  0  0
 19 18  1  1  0  0  0
M  END
>  <CHROM.1>
158.89011674,-64.22522112,18.50743801,25.37140503,39.53148180,1.17999631
-1.17764330,2.42487849

>  <Name>
ligand

>  <RI>
0

>  <Rbt.Current_Directory>
/home/itssahil/PROJECTS/Mol_Feturizer/New_Systems/rnas/3SKL

>  <Rbt.Executable>
rbdock ($Id: //depot/dev/client3/rdock/2013.1/src/exe/rbdock.cxx#4 $)

>  <Rbt.Library>
libRbt.so (2013.1, Build901 2013/11/27)

>  <Rbt.Parameter_File>
/export/apps/rDock/src/rDock_2013.1_src/data/scripts/dock_solv.prm

>  <Rbt.Receptor>
prm/pocket_docking_5.prm

>  <SCORE>
-13.2737

>  <SCORE.INTER>
-14.0335

>  <SCORE.INTER.CONST>
1

>  <SCORE.INTER.POLAR>
0

>  <SCORE.INTER.ROT>
2

>  <SCORE.INTER.SOLV>
21.5869

>  <SCORE.INTER.VDW>
-21.4846

>  <SCORE.INTER.norm>
-0.738605

>  <SCORE.INTRA>
0.677352

>  <SCORE.INTRA.DIHEDRAL>
1.14449

>  <SCORE.INTRA.DIHEDRAL.0>
1.50031

>  <SCORE.INTRA.POLAR>
0

>  <SCORE.INTRA.POLAR.0>
0

>  <SCORE.INTRA.REPUL>
0

>  <SCORE.INTRA.REPUL.0>
0

>  <SCORE.INTRA.SOLV>
-0.530394

>  <SCORE.INTRA.SOLV.lig_0>
-37.9941

>  <SCORE.INTRA.VDW>
0.370303

>  <SCORE.INTRA.VDW.0>
-0.964461

>  <SCORE.INTRA.norm>
0.0356501

>  <SCORE.RESTR>
0.0823907

>  <SCORE.RESTR.CAVITY>
0.0823907

>  <SCORE.RESTR.norm>
0.00433635

>  <SCORE.SYSTEM>
0

>  <SCORE.SYSTEM.CONST>
0

>  <SCORE.SYSTEM.DIHEDRAL>
0

>  <SCORE.SYSTEM.SOLV>
0

>  <SCORE.SYSTEM.norm>
0

>  <SCORE.heavy>
19

>  <SCORE.norm>
-0.698618

>  <RMSD>
6.522

$$$$
ligand
 OpenBabel11021811483D
libRbt.so/2013.1/901 2013/11/27
 19 21  0  0  0  0  0  0  0  0999 V2000
   22.9269   30.2842   33.2278 C   0  0  0  0  0  0  0  0  0  0  0  0
   23.6058   30.7979   32.0685 O   0  0  0  0  0  0  0  0  0  0  0  0
   21.4497   30.6915   33.2334 C   0  0  1  0  0  0  0  0  0  0  0  0
   20.7889   30.1965   32.0691 O   0  0  0  0  0  0  0  0  0  0  0  0
   20.7127   30.1277   34.4334 C   0  0  1  0  0  0  0  0  0  0  0  0
   19.8967   31.1608   34.9870 O   0  0  0  0  0  0  0  0  0  0  0  0
   19.8199   29.0242   33.9127 C   0  0  0  0  0  0  0  0  0  0  0  0
   19.7786   29.2340   32.4100 C   0  0  2  0  0  0  0  0  0  0  0  0
   17.5672   24.8707   30.7280 N   0  0  0  0  0  0  0  0  0  0  0  0
   17.0641   25.8949   31.4583 C   0  0  2  0  0  0  0  0  0  0  0  0
   15.7751   25.8728   31.8580 N   0  0  0  0  0  0  0  0  0  0  0  0
   17.8225   26.9565   31.8043 N   0  0  0  0  0  0  0  0  0  0  0  0
   19.1175   27.0462   31.4395 C   0  0  1  0  0  0  0  0  0  0  0  0
   19.6976   26.0409   30.7008 C   0  0  1  0  0  0  0  0  0  0  0  0
   18.8538   24.8799   30.3244 C   0  0  0  0  0  0  0  0  0  0  0  0
   19.3243   23.9331   29.6560 O   0  0  0  0  0  0  0  0  0  0  0  0
   20.9779   26.3839   30.4783 N   0  0  0  0  0  0  0  0  0  0  0  0
   21.1763   27.5823   31.0743 C   0  0  0  0  0  0  0  0  0  0  0  0
   20.0326   27.9770   31.6567 N   0  0  1  0  0  0  0  0  0  0  0  0
  1  2  1  0  0  0  0
  3  1  1  6  0  0  0
  3  4  1  0  0  0  0
  3  5  1  0  0  0  0
  5  6  1  6  0  0  0
  5  7  1  0  0  0  0
  7  8  1  0  0  0  0
  8  4  1  1  0  0  0
  8 19  1  0  0  0  0
  9 15  1  0  0  0  0
  9 10  1  0  0  0  0
 10 11  1  6  0  0  0
 10 12  1  0  0  0  0
 13 12  1  6  0  0  0
 13 14  1  0  0  0  0
 13 19  1  0  0  0  0
 14 15  1  6  0  0  0
 14 17  1  0  0  0  0
 15 16  2  0  0  0  0
 17 18  1  0  0  0  0
 19 18  1  6  0  0  0
M  END
>  <CHROM.1>
59.51000272,-160.02445039,19.85802270,27.91064965,32.00327663,-0.99684298
-0.35073132,-2.46272925

>  <Name>
ligand

>  <RI>
0

>  <Rbt.Current_Directory>
/home/itssahil/PROJECTS/Mol_Feturizer/New_Systems/rnas/3SKL

>  <Rbt.Executable>
rbdock ($Id: //depot/dev/client3/rdock/2013.1/src/exe/rbdock.cxx#4 $)

>  <Rbt.Library>
libRbt.so (2013.1, Build901 2013/11/27)

>  <Rbt.Parameter_File>
/export/apps/rDock/src/rDock_2013.1_src/data/scripts/dock_solv.prm

>  <Rbt.Receptor>
prm/pocket_docking_5.prm

>  <SCORE>
-12.1471

>  <SCORE.INTER>
-11.5551

>  <SCORE.INTER.CONST>
1

>  <SCORE.INTER.POLAR>
0

>  <SCORE.INTER.ROT>
2

>  <SCORE.INTER.SOLV>
13.0081

>  <SCORE.INTER.VDW>
-16.9727

>  <SCORE.INTER.norm>
-0.608162

>  <SCORE.INTRA>
-0.592043

>  <SCORE.INTRA.DIHEDRAL>
-0.276179

>  <SCORE.INTRA.DIHEDRAL.0>
1.50031

>  <SCORE.INTRA.POLAR>
0

>  <SCORE.INTRA.POLAR.0>
0

>  <SCORE.INTRA.REPUL>
0

>  <SCORE.INTRA.REPUL.0>
0

>  <SCORE.INTRA.SOLV>
-0.553159

>  <SCORE.INTRA.SOLV.lig_0>
-37.9941

>  <SCORE.INTRA.VDW>
-0.177375

>  <SCORE.INTRA.VDW.0>
-0.964461

>  <SCORE.INTRA.norm>
-0.0311602

>  <SCORE.RESTR>
0

>  <SCORE.RESTR.CAVITY>
0

>  <SCORE.RESTR.norm>
0

>  <SCORE.SYSTEM>
0

>  <SCORE.SYSTEM.CONST>
0

>  <SCORE.SYSTEM.DIHEDRAL>
0

>  <SCORE.SYSTEM.SOLV>
0

>  <SCORE.SYSTEM.norm>
0

>  <SCORE.heavy>
19

>  <SCORE.norm>
-0.639322

>  <RMSD>
6.543

$$$$
ligand
 OpenBabel11021811483D
libRbt.so/2013.1/901 2013/11/27
 19 21  0  0  0  0  0  0  0  0999 V2000
   19.2570   27.6770   36.0370 C   0  0  0  0  0  0  0  0  0  0  0  0
   20.1318   27.2170   34.9922 O   0  0  0  0  0  0  0  0  0  0  0  0
   18.2904   28.7486   35.5218 C   0  0  1  0  0  0  0  0  0  0  0  0
   19.0113   29.8489   34.9675 O   0  0  0  0  0  0  0  0  0  0  0  0
   17.3870   28.2151   34.4264 C   0  0  1  0  0  0  0  0  0  0  0  0
   16.0543   28.6583   34.6859 O   0  0  0  0  0  0  0  0  0  0  0  0
   17.8657   28.8331   33.1322 C   0  0  0  0  0  0  0  0  0  0  0  0
   18.7658   29.9786   33.5581 C   0  0  2  0  0  0  0  0  0  0  0  0
   23.5568   31.9288   33.6017 N   0  0  0  0  0  0  0  0  0  0  0  0
   22.5055   32.1419   34.4294 C   0  0  2  0  0  0  0  0  0  0  0  0
   22.6287   32.9821   35.4785 N   0  0  0  0  0  0  0  0  0  0  0  0
   21.3181   31.5296   34.2368 N   0  0  0  0  0  0  0  0  0  0  0  0
   21.1229   30.6774   33.2103 C   0  0  1  0  0  0  0  0  0  0  0  0
   22.1445   30.4164   32.3263 C   0  0  1  0  0  0  0  0  0  0  0  0
   23.4458   31.0935   32.5491 C   0  0  0  0  0  0  0  0  0  0  0  0
   24.4117   30.8993   31.7784 O   0  0  0  0  0  0  0  0  0  0  0  0
   21.6829   29.5432   31.4148 N   0  0  0  0  0  0  0  0  0  0  0  0
   20.3966   29.2759   31.7381 C   0  0  0  0  0  0  0  0  0  0  0  0
   20.0666   29.9733   32.8370 N   0  0  1  0  0  0  0  0  0  0  0  0
  1  2  1  0  0  0  0
  3  1  1  6  0  0  0
  3  4  1  0  0  0  0
  3  5  1  0  0  0  0
  5  6  1  1  0  0  0
  5  7  1  0  0  0  0
  7  8  1  0  0  0  0
  8  4  1  1  0  0  0
  8 19  1  0  0  0  0
  9 15  1  0  0  0  0
  9 10  1  0  0  0  0
 10 11  1  1  0  0  0
 10 12  1  0  0  0  0
 13 12  1  1  0  0  0
 13 14  1  0  0  0  0
 13 19  1  0  0  0  0
 14 15  1  1  0  0  0
 14 17  1  0  0  0  0
 15 16  2  0  0  0  0
 17 18  1  0  0  0  0
 19 18  1  1  0  0  0
M  END
>  <CHROM.1>
-57.38467995,-45.67756331,20.48291496,29.93857866,33.76920373,-3.12705469
-0.57012998,-2.04781132

>  <Name>
ligand

>  <RI>
0

>  <Rbt.Current_Directory>
/home/itssahil/PROJECTS/Mol_Feturizer/New_Systems/rnas/3SKL

>  <Rbt.Executable>
rbdock ($Id: //depot/dev/client3/rdock/2013.1/src/exe/rbdock.cxx#4 $)

>  <Rbt.Library>
libRbt.so (2013.1, Build901 2013/11/27)

>  <Rbt.Parameter_File>
/export/apps/rDock/src/rDock_2013.1_src/data/scripts/dock_solv.prm

>  <Rbt.Receptor>
prm/blind_docking_60.prm

>  <SCORE>
-13.0108

>  <SCORE.INTER>
-12.9105

>  <SCORE.INTER.CONST>
1

>  <SCORE.INTER.POLAR>
0

>  <SCORE.INTER.ROT>
2

>  <SCORE.INTER.SOLV>
15.304

>  <SCORE.INTER.VDW>
-18.6417

>  <SCORE.INTER.norm>
-0.679502

>  <SCORE.INTRA>
-0.100215

>  <SCORE.INTRA.DIHEDRAL>
-0.256114

>  <SCORE.INTRA.DIHEDRAL.0>
1.50031

>  <SCORE.INTRA.POLAR>
0

>  <SCORE.INTRA.POLAR.0>
0

>  <SCORE.INTRA.REPUL>
0

>  <SCORE.INTRA.REPUL.0>
0

>  <SCORE.INTRA.SOLV>
-0.00797822

>  <SCORE.INTRA.SOLV.lig_0>
-37.9941

>  <SCORE.INTRA.VDW>
0.0318306

>  <SCORE.INTRA.VDW.0>
-0.964461

>  <SCORE.INTRA.norm>
-0.00527449

>  <SCORE.RESTR>
0

>  <SCORE.RESTR.CAVITY>
0

>  <SCORE.RESTR.norm>
0

>  <SCORE.SYSTEM>
0

>  <SCORE.SYSTEM.CONST>
0

>  <SCORE.SYSTEM.DIHEDRAL>
0

>  <SCORE.SYSTEM.SOLV>
0

>  <SCORE.SYSTEM.norm>
0

>  <SCORE.heavy>
19

>  <SCORE.norm>
-0.684777

>  <RMSD>
6.560

$$$$
ligand
 OpenBabel11021811483D
libRbt.so/2013.1/901 2013/11/27
 19 21  0  0  0  0  0  0  0  0999 V2000
   19.8181   26.4473   37.0945 C   0  0  0  0  0  0  0  0  0  0  0  0
   19.8824   26.4317   35.6577 O   0  0  0  0  0  0  0  0  0  0  0  0
   19.5661   27.8627   37.6247 C   0  0  1  0  0  0  0  0  0  0  0  0
   20.6277   28.7372   37.2431 O   0  0  0  0  0  0  0  0  0  0  0  0
   18.2846   28.4543   37.0694 C   0  0  1  0  0  0  0  0  0  0  0  0
   17.5750   29.0778   38.1406 O   0  0  0  0  0  0  0  0  0  0  0  0
   18.6946   29.5134   36.0713 C   0  0  0  0  0  0  0  0  0  0  0  0
   20.1642   29.7664   36.3547 C   0  0  2  0  0  0  0  0  0  0  0  0
   23.5630   32.5023   33.5759 N   0  0  0  0  0  0  0  0  0  0  0  0
   22.9177   32.7998   34.7295 C   0  0  2  0  0  0  0  0  0  0  0  0
   23.1352   33.9828   35.3418 N   0  0  0  0  0  0  0  0  0  0  0  0
   22.0498   31.9360   35.2976 N   0  0  0  0  0  0  0  0  0  0  0  0
   21.7842   30.7363   34.7422 C   0  0  1  0  0  0  0  0  0  0  0  0
   22.3992   30.3682   33.5678 C   0  0  1  0  0  0  0  0  0  0  0  0
   23.3527   31.3248   32.9535 C   0  0  0  0  0  0  0  0  0  0  0  0
   23.9410   31.0489   31.8847 O   0  0  0  0  0  0  0  0  0  0  0  0
   21.9596   29.1401   33.2438 N   0  0  0  0  0  0  0  0  0  0  0  0
   21.0872   28.7646   34.2076 C   0  0  0  0  0  0  0  0  0  0  0  0
   20.9897   29.7471   35.1176 N   0  0  1  0  0  0  0  0  0  0  0  0
  1  2  1  0  0  0  0
  3  1  1  6  0  0  0
  3  4  1  0  0  0  0
  3  5  1  0  0  0  0
  5  6  1  1  0  0  0
  5  7  1  0  0  0  0
  7  8  1  0  0  0  0
  8  4  1  1  0  0  0
  8 19  1  0  0  0  0
  9 15  1  0  0  0  0
  9 10  1  0  0  0  0
 10 11  1  1  0  0  0
 10 12  1  0  0  0  0
 13 12  1  1  0  0  0
 13 14  1  0  0  0  0
 13 19  1  0  0  0  0
 14 15  1  1  0  0  0
 14 17  1  0  0  0  0
 15 16  2  0  0  0  0
 17 18  1  0  0  0  0
 19 18  1  1  0  0  0
M  END
>  <CHROM.1>
-61.13660003,-115.31094089,21.10326811,29.87525810,35.30009088,-2.79486210
0.85232753,0.40766780

>  <Name>
ligand

>  <RI>
0

>  <Rbt.Current_Directory>
/home/itssahil/PROJECTS/Mol_Feturizer/New_Systems/rnas/3SKL

>  <Rbt.Executable>
rbdock ($Id: //depot/dev/client3/rdock/2013.1/src/exe/rbdock.cxx#4 $)

>  <Rbt.Library>
libRbt.so (2013.1, Build901 2013/11/27)

>  <Rbt.Parameter_File>
/export/apps/rDock/src/rDock_2013.1_src/data/scripts/dock_solv.prm

>  <Rbt.Receptor>
prm/pocket_docking_8.prm

>  <SCORE>
-15.9834

>  <SCORE.INTER>
-15.4685

>  <SCORE.INTER.CONST>
1

>  <SCORE.INTER.POLAR>
0

>  <SCORE.INTER.ROT>
2

>  <SCORE.INTER.SOLV>
17.0766

>  <SCORE.INTER.VDW>
-20.9379

>  <SCORE.INTER.norm>
-0.814133

>  <SCORE.INTRA>
-0.515173

>  <SCORE.INTRA.DIHEDRAL>
-0.299442

>  <SCORE.INTRA.DIHEDRAL.0>
1.50031

>  <SCORE.INTRA.POLAR>
0

>  <SCORE.INTRA.POLAR.0>
0

>  <SCORE.INTRA.REPUL>
0

>  <SCORE.INTRA.REPUL.0>
0

>  <SCORE.INTRA.SOLV>
0.0336073

>  <SCORE.INTRA.SOLV.lig_0>
-37.9941

>  <SCORE.INTRA.VDW>
-0.382256

>  <SCORE.INTRA.VDW.0>
-0.964461

>  <SCORE.INTRA.norm>
-0.0271144

>  <SCORE.RESTR>
0.000338059

>  <SCORE.RESTR.CAVITY>
0.000338059

>  <SCORE.RESTR.norm>
1.77926e-05

>  <SCORE.SYSTEM>
0

>  <SCORE.SYSTEM.CONST>
0

>  <SCORE.SYSTEM.DIHEDRAL>
0

>  <SCORE.SYSTEM.SOLV>
0

>  <SCORE.SYSTEM.norm>
0

>  <SCORE.heavy>
19

>  <SCORE.norm>
-0.841229

>  <RMSD>
6.566

$$$$
ligand
 OpenBabel11021811483D
libRbt.so/2013.1/901 2013/11/27
 19 21  0  0  0  0  0  0  0  0999 V2000
   19.4697   28.6684   36.5991 C   0  0  0  0  0  0  0  0  0  0  0  0
   20.4196   28.0276   35.7299 O   0  0  0  0  0  0  0  0  0  0  0  0
   18.3674   29.3694   35.7982 C   0  0  1  0  0  0  0  0  0  0  0  0
   18.9287   30.3459   34.9214 O   0  0  0  0  0  0  0  0  0  0  0  0
   17.5896   28.3947   34.9345 C   0  0  1  0  0  0  0  0  0  0  0  0
   16.1977   28.6846   35.0696 O   0  0  0  0  0  0  0  0  0  0  0  0
   18.0078   28.6553   33.5051 C   0  0  0  0  0  0  0  0  0  0  0  0
   18.7095   30.0006   33.5444 C   0  0  2  0  0  0  0  0  0  0  0  0
   23.5207   31.8992   33.6245 N   0  0  0  0  0  0  0  0  0  0  0  0
   22.4635   32.1288   34.4401 C   0  0  2  0  0  0  0  0  0  0  0  0
   22.5853   32.9741   35.4853 N   0  0  0  0  0  0  0  0  0  0  0  0
   21.2715   31.5282   34.2393 N   0  0  0  0  0  0  0  0  0  0  0  0
   21.0775   30.6717   33.2161 C   0  0  1  0  0  0  0  0  0  0  0  0
   22.1049   30.3942   32.3441 C   0  0  1  0  0  0  0  0  0  0  0  0
   23.4112   31.0586   32.5759 C   0  0  0  0  0  0  0  0  0  0  0  0
   24.3826   30.8491   31.8162 O   0  0  0  0  0  0  0  0  0  0  0  0
   21.6431   29.5203   31.4334 N   0  0  0  0  0  0  0  0  0  0  0  0
   20.3507   29.2689   31.7453 C   0  0  0  0  0  0  0  0  0  0  0  0
   20.0174   29.9767   32.8365 N   0  0  1  0  0  0  0  0  0  0  0  0
  1  2  1  0  0  0  0
  3  1  1  6  0  0  0
  3  4  1  0  0  0  0
  3  5  1  0  0  0  0
  5  6  1  6  0  0  0
  5  7  1  0  0  0  0
  7  8  1  0  0  0  0
  8  4  1  1  0  0  0
  8 19  1  0  0  0  0
  9 15  1  0  0  0  0
  9 10  1  0  0  0  0
 10 11  1  1  0  0  0
 10 12  1  0  0  0  0
 13 12  1  1  0  0  0
 13 14  1  0  0  0  0
 13 19  1  0  0  0  0
 14 15  1  1  0  0  0
 14 17  1  0  0  0  0
 15 16  2  0  0  0  0
 17 18  1  0  0  0  0
 19 18  1  1  0  0  0
M  END
>  <CHROM.1>
-58.66860385,-25.73346739,20.51159905,30.09493723,33.93185311,-2.96864396
-0.53393435,-1.92985755

>  <Name>
ligand

>  <RI>
0

>  <Rbt.Current_Directory>
/home/itssahil/PROJECTS/Mol_Feturizer/New_Systems/rnas/3SKL

>  <Rbt.Executable>
rbdock ($Id: //depot/dev/client3/rdock/2013.1/src/exe/rbdock.cxx#4 $)

>  <Rbt.Library>
libRbt.so (2013.1, Build901 2013/11/27)

>  <Rbt.Parameter_File>
/export/apps/rDock/src/rDock_2013.1_src/data/scripts/dock_solv.prm

>  <Rbt.Receptor>
prm/pocket_docking_7.prm

>  <SCORE>
-13.0447

>  <SCORE.INTER>
-12.7686

>  <SCORE.INTER.CONST>
1

>  <SCORE.INTER.POLAR>
0

>  <SCORE.INTER.ROT>
2

>  <SCORE.INTER.SOLV>
15.4645

>  <SCORE.INTER.VDW>
-18.6006

>  <SCORE.INTER.norm>
-0.672034

>  <SCORE.INTRA>
-0.276048

>  <SCORE.INTRA.DIHEDRAL>
-0.266977

>  <SCORE.INTRA.DIHEDRAL.0>
1.50031

>  <SCORE.INTRA.POLAR>
0

>  <SCORE.INTRA.POLAR.0>
0

>  <SCORE.INTRA.REPUL>
0

>  <SCORE.INTRA.REPUL.0>
0

>  <SCORE.INTRA.SOLV>
0.0303965

>  <SCORE.INTRA.SOLV.lig_0>
-37.9941

>  <SCORE.INTRA.VDW>
-0.157758

>  <SCORE.INTRA.VDW.0>
-0.964461

>  <SCORE.INTRA.norm>
-0.0145289

>  <SCORE.RESTR>
0

>  <SCORE.RESTR.CAVITY>
0

>  <SCORE.RESTR.norm>
0

>  <SCORE.SYSTEM>
0

>  <SCORE.SYSTEM.CONST>
0

>  <SCORE.SYSTEM.DIHEDRAL>
0

>  <SCORE.SYSTEM.SOLV>
0

>  <SCORE.SYSTEM.norm>
0

>  <SCORE.heavy>
19

>  <SCORE.norm>
-0.686563

>  <RMSD>
6.569

$$$$
ligand
 OpenBabel11021811483D
libRbt.so/2013.1/901 2013/11/27
 19 21  0  0  0  0  0  0  0  0999 V2000
   19.7735   26.4150   36.9596 C   0  0  0  0  0  0  0  0  0  0  0  0
   19.9117   26.4375   35.5282 O   0  0  0  0  0  0  0  0  0  0  0  0
   19.5409   27.8227   37.5183 C   0  0  1  0  0  0  0  0  0  0  0  0
   20.6176   28.6885   37.1597 O   0  0  0  0  0  0  0  0  0  0  0  0
   18.2712   28.4456   36.9699 C   0  0  1  0  0  0  0  0  0  0  0  0
   17.5664   29.0576   38.0509 O   0  0  0  0  0  0  0  0  0  0  0  0
   18.7022   29.5188   35.9960 C   0  0  0  0  0  0  0  0  0  0  0  0
   20.1742   29.7430   36.2910 C   0  0  2  0  0  0  0  0  0  0  0  0
   23.5851   32.5078   33.5561 N   0  0  0  0  0  0  0  0  0  0  0  0
   22.9348   32.7931   34.7099 C   0  0  2  0  0  0  0  0  0  0  0  0
   23.1498   33.9696   35.3356 N   0  0  0  0  0  0  0  0  0  0  0  0
   22.0645   31.9235   35.2651 N   0  0  0  0  0  0  0  0  0  0  0  0
   21.8013   30.7298   34.6959 C   0  0  1  0  0  0  0  0  0  0  0  0
   22.4213   30.3740   33.5203 C   0  0  1  0  0  0  0  0  0  0  0  0
   23.3775   31.3370   32.9203 C   0  0  0  0  0  0  0  0  0  0  0  0
   23.9705   31.0724   31.8512 O   0  0  0  0  0  0  0  0  0  0  0  0
   21.9830   29.1495   33.1815 N   0  0  0  0  0  0  0  0  0  0  0  0
   21.1065   28.7639   34.1375 C   0  0  0  0  0  0  0  0  0  0  0  0
   21.0051   29.7366   35.0574 N   0  0  1  0  0  0  0  0  0  0  0  0
  1  2  1  0  0  0  0
  3  1  1  6  0  0  0
  3  4  1  0  0  0  0
  3  5  1  0  0  0  0
  5  6  1  1  0  0  0
  5  7  1  0  0  0  0
  7  8  1  0  0  0  0
  8  4  1  1  0  0  0
  8 19  1  0  0  0  0
  9 15  1  0  0  0  0
  9 10  1  0  0  0  0
 10 11  1  1  0  0  0
 10 12  1  0  0  0  0
 13 12  1  1  0  0  0
 13 14  1  0  0  0  0
 13 19  1  0  0  0  0
 14 15  1  1  0  0  0
 14 17  1  0  0  0  0
 15 16  2  0  0  0  0
 17 18  1  0  0  0  0
 19 18  1  1  0  0  0
M  END
>  <CHROM.1>
-58.21930866,-116.37453513,21.11176335,29.86682485,35.23511335,-2.79223038
0.84416861,0.41533893

>  <Name>
ligand

>  <RI>
0

>  <Rbt.Current_Directory>
/home/itssahil/PROJECTS/Mol_Feturizer/New_Systems/rnas/3SKL

>  <Rbt.Executable>
rbdock ($Id: //depot/dev/client3/rdock/2013.1/src/exe/rbdock.cxx#4 $)

>  <Rbt.Library>
libRbt.so (2013.1, Build901 2013/11/27)

>  <Rbt.Parameter_File>
/export/apps/rDock/src/rDock_2013.1_src/data/scripts/dock_solv.prm

>  <Rbt.Receptor>
prm/pocket_docking_8.prm

>  <SCORE>
-16.1009

>  <SCORE.INTER>
-15.5772

>  <SCORE.INTER.CONST>
1

>  <SCORE.INTER.POLAR>
0

>  <SCORE.INTER.ROT>
2

>  <SCORE.INTER.SOLV>
16.9705

>  <SCORE.INTER.VDW>
-20.975

>  <SCORE.INTER.norm>
-0.819852

>  <SCORE.INTRA>
-0.523698

>  <SCORE.INTRA.DIHEDRAL>
-0.290408

>  <SCORE.INTRA.DIHEDRAL.0>
1.50031

>  <SCORE.INTRA.POLAR>
0

>  <SCORE.INTRA.POLAR.0>
0

>  <SCORE.INTRA.REPUL>
0

>  <SCORE.INTRA.REPUL.0>
0

>  <SCORE.INTRA.SOLV>
0.0416362

>  <SCORE.INTRA.SOLV.lig_0>
-37.9941

>  <SCORE.INTRA.VDW>
-0.399312

>  <SCORE.INTRA.VDW.0>
-0.964461

>  <SCORE.INTRA.norm>
-0.0275631

>  <SCORE.RESTR>
0

>  <SCORE.RESTR.CAVITY>
0

>  <SCORE.RESTR.norm>
0

>  <SCORE.SYSTEM>
0

>  <SCORE.SYSTEM.CONST>
0

>  <SCORE.SYSTEM.DIHEDRAL>
0

>  <SCORE.SYSTEM.SOLV>
0

>  <SCORE.SYSTEM.norm>
0

>  <SCORE.heavy>
19

>  <SCORE.norm>
-0.847415

>  <RMSD>
6.570

$$$$
ligand
 OpenBabel11021811483D
libRbt.so/2013.1/901 2013/11/27
 19 21  0  0  0  0  0  0  0  0999 V2000
   22.9362   30.1326   33.2759 C   0  0  0  0  0  0  0  0  0  0  0  0
   23.7309   30.6322   32.1862 O   0  0  0  0  0  0  0  0  0  0  0  0
   21.4804   30.5969   33.1614 C   0  0  1  0  0  0  0  0  0  0  0  0
   20.8906   30.1049   31.9583 O   0  0  0  0  0  0  0  0  0  0  0  0
   20.6323   30.0861   34.3106 C   0  0  1  0  0  0  0  0  0  0  0  0
   19.8187   31.1610   34.7825 O   0  0  0  0  0  0  0  0  0  0  0  0
   19.7380   29.0079   33.7416 C   0  0  0  0  0  0  0  0  0  0  0  0
   19.8194   29.1893   32.2369 C   0  0  2  0  0  0  0  0  0  0  0  0
   17.6418   24.7395   30.7486 N   0  0  0  0  0  0  0  0  0  0  0  0
   17.1356   25.7835   31.4481 C   0  0  2  0  0  0  0  0  0  0  0  0
   15.8528   25.7600   31.8672 N   0  0  0  0  0  0  0  0  0  0  0  0
   17.8850   26.8666   31.7439 N   0  0  0  0  0  0  0  0  0  0  0  0
   19.1734   26.9591   31.3571 C   0  0  1  0  0  0  0  0  0  0  0  0
   19.7561   25.9345   30.6474 C   0  0  1  0  0  0  0  0  0  0  0  0
   18.9223   24.7500   30.3263 C   0  0  0  0  0  0  0  0  0  0  0  0
   19.3957   23.7851   29.6862 O   0  0  0  0  0  0  0  0  0  0  0  0
   21.0286   26.2852   30.3938 N   0  0  0  0  0  0  0  0  0  0  0  0
   21.2196   27.5071   30.9425 C   0  0  0  0  0  0  0  0  0  0  0  0
   20.0792   27.9086   31.5266 N   0  0  1  0  0  0  0  0  0  0  0  0
  1  2  1  0  0  0  0
  3  1  1  1  0  0  0
  3  4  1  0  0  0  0
  3  5  1  0  0  0  0
  5  6  1  6  0  0  0
  5  7  1  0  0  0  0
  7  8  1  0  0  0  0
  8  4  1  1  0  0  0
  8 19  1  0  0  0  0
  9 15  1  0  0  0  0
  9 10  1  0  0  0  0
 10 11  1  6  0  0  0
 10 12  1  0  0  0  0
 13 12  1  6  0  0  0
 13 14  1  0  0  0  0
 13 19  1  0  0  0  0
 14 15  1  6  0  0  0
 14 17  1  0  0  0  0
 15 16  2  0  0  0  0
 17 18  1  0  0  0  0
 19 18  1  6  0  0  0
M  END
>  <CHROM.1>
61.36914038,-166.12245764,19.89759744,27.81748372,31.94226732,-1.00959551
-0.33005160,-2.49270089

>  <Name>
ligand

>  <RI>
0

>  <Rbt.Current_Directory>
/home/itssahil/PROJECTS/Mol_Feturizer/New_Systems/rnas/3SKL

>  <Rbt.Executable>
rbdock ($Id: //depot/dev/client3/rdock/2013.1/src/exe/rbdock.cxx#4 $)

>  <Rbt.Library>
libRbt.so (2013.1, Build901 2013/11/27)

>  <Rbt.Parameter_File>
/export/apps/rDock/src/rDock_2013.1_src/data/scripts/dock_solv.prm

>  <Rbt.Receptor>
prm/pocket_docking_7.prm

>  <SCORE>
-12.2639

>  <SCORE.INTER>
-11.7009

>  <SCORE.INTER.CONST>
1

>  <SCORE.INTER.POLAR>
0

>  <SCORE.INTER.ROT>
2

>  <SCORE.INTER.SOLV>
13.5645

>  <SCORE.INTER.VDW>
-17.2555

>  <SCORE.INTER.norm>
-0.615838

>  <SCORE.INTRA>
-0.563004

>  <SCORE.INTRA.DIHEDRAL>
-0.274846

>  <SCORE.INTRA.DIHEDRAL.0>
1.50031

>  <SCORE.INTRA.POLAR>
0

>  <SCORE.INTRA.POLAR.0>
0

>  <SCORE.INTRA.REPUL>
0

>  <SCORE.INTRA.REPUL.0>
0

>  <SCORE.INTRA.SOLV>
-0.563121

>  <SCORE.INTRA.SOLV.lig_0>
-37.9941

>  <SCORE.INTRA.VDW>
-0.144021

>  <SCORE.INTRA.VDW.0>
-0.964461

>  <SCORE.INTRA.norm>
-0.0296318

>  <SCORE.RESTR>
0

>  <SCORE.RESTR.CAVITY>
0

>  <SCORE.RESTR.norm>
0

>  <SCORE.SYSTEM>
0

>  <SCORE.SYSTEM.CONST>
0

>  <SCORE.SYSTEM.DIHEDRAL>
0

>  <SCORE.SYSTEM.SOLV>
0

>  <SCORE.SYSTEM.norm>
0

>  <SCORE.heavy>
19

>  <SCORE.norm>
-0.64547

>  <RMSD>
6.581

$$$$
ligand
 OpenBabel11021811483D
libRbt.so/2013.1/901 2013/11/27
 19 21  0  0  0  0  0  0  0  0999 V2000
   22.8970   30.1488   33.3148 C   0  0  0  0  0  0  0  0  0  0  0  0
   23.6976   30.6540   32.2320 O   0  0  0  0  0  0  0  0  0  0  0  0
   21.4406   30.6087   33.1915 C   0  0  1  0  0  0  0  0  0  0  0  0
   20.8620   30.1217   31.9810 O   0  0  0  0  0  0  0  0  0  0  0  0
   20.5853   30.0884   34.3311 C   0  0  1  0  0  0  0  0  0  0  0  0
   19.7643   31.1577   34.8027 O   0  0  0  0  0  0  0  0  0  0  0  0
   19.6992   29.0104   33.7489 C   0  0  0  0  0  0  0  0  0  0  0  0
   19.7918   29.2008   32.2459 C   0  0  2  0  0  0  0  0  0  0  0  0
   17.6488   24.7407   30.7382 N   0  0  0  0  0  0  0  0  0  0  0  0
   17.1345   25.7779   31.4419 C   0  0  2  0  0  0  0  0  0  0  0  0
   15.8517   25.7428   31.8604 N   0  0  0  0  0  0  0  0  0  0  0  0
   17.8754   26.8654   31.7425 N   0  0  0  0  0  0  0  0  0  0  0  0
   19.1632   26.9694   31.3566 C   0  0  1  0  0  0  0  0  0  0  0  0
   19.7539   25.9523   30.6427 C   0  0  1  0  0  0  0  0  0  0  0  0
   18.9293   24.7628   30.3163 C   0  0  0  0  0  0  0  0  0  0  0  0
   19.4103   23.8043   29.6724 O   0  0  0  0  0  0  0  0  0  0  0  0
   21.0237   26.3137   30.3910 N   0  0  0  0  0  0  0  0  0  0  0  0
   21.2052   27.5348   30.9449 C   0  0  0  0  0  0  0  0  0  0  0  0
   20.0616   27.9251   31.5303 N   0  0  1  0  0  0  0  0  0  0  0  0
  1  2  1  0  0  0  0
  3  1  1  1  0  0  0
  3  4  1  0  0  0  0
  3  5  1  0  0  0  0
  5  6  1  6  0  0  0
  5  7  1  0  0  0  0
  7  8  1  0  0  0  0
  8  4  1  1  0  0  0
  8 19  1  0  0  0  0
  9 15  1  0  0  0  0
  9 10  1  0  0  0  0
 10 11  1  6  0  0  0
 10 12  1  0  0  0  0
 13 12  1  6  0  0  0
 13 14  1  0  0  0  0
 13 19  1  0  0  0  0
 14 15  1  6  0  0  0
 14 17  1  0  0  0  0
 15 16  2  0  0  0  0
 17 18  1  0  0  0  0
 19 18  1  6  0  0  0
M  END
>  <CHROM.1>
61.18800606,-166.62382394,19.87912926,27.82748447,31.95047925,-1.01734508
-0.33117041,-2.49002200

>  <Name>
ligand

>  <RI>
0

>  <Rbt.Current_Directory>
/home/itssahil/PROJECTS/Mol_Feturizer/New_Systems/rnas/3SKL

>  <Rbt.Executable>
rbdock ($Id: //depot/dev/client3/rdock/2013.1/src/exe/rbdock.cxx#4 $)

>  <Rbt.Library>
libRbt.so (2013.1, Build901 2013/11/27)

>  <Rbt.Parameter_File>
/export/apps/rDock/src/rDock_2013.1_src/data/scripts/dock_solv.prm

>  <Rbt.Receptor>
prm/pocket_docking_8.prm

>  <SCORE>
-12.285

>  <SCORE.INTER>
-11.7259

>  <SCORE.INTER.CONST>
1

>  <SCORE.INTER.POLAR>
0

>  <SCORE.INTER.ROT>
2

>  <SCORE.INTER.SOLV>
13.4488

>  <SCORE.INTER.VDW>
-17.2335

>  <SCORE.INTER.norm>
-0.617151

>  <SCORE.INTRA>
-0.55917

>  <SCORE.INTRA.DIHEDRAL>
-0.277078

>  <SCORE.INTRA.DIHEDRAL.0>
1.50031

>  <SCORE.INTRA.POLAR>
0

>  <SCORE.INTRA.POLAR.0>
0

>  <SCORE.INTRA.REPUL>
0

>  <SCORE.INTRA.REPUL.0>
0

>  <SCORE.INTRA.SOLV>
-0.562298

>  <SCORE.INTRA.SOLV.lig_0>
-37.9941

>  <SCORE.INTRA.VDW>
-0.139482

>  <SCORE.INTRA.VDW.0>
-0.964461

>  <SCORE.INTRA.norm>
-0.02943

>  <SCORE.RESTR>
0

>  <SCORE.RESTR.CAVITY>
0

>  <SCORE.RESTR.norm>
0

>  <SCORE.SYSTEM>
0

>  <SCORE.SYSTEM.CONST>
0

>  <SCORE.SYSTEM.DIHEDRAL>
0

>  <SCORE.SYSTEM.SOLV>
0

>  <SCORE.SYSTEM.norm>
0

>  <SCORE.heavy>
19

>  <SCORE.norm>
-0.646581

>  <RMSD>
6.581

$$$$
ligand
 OpenBabel11021811483D
libRbt.so/2013.1/901 2013/11/27
 19 21  0  0  0  0  0  0  0  0999 V2000
   21.1276   25.7930   42.7118 C   0  0  0  0  0  0  0  0  0  0  0  0
   20.5608   26.9418   43.3657 O   0  0  0  0  0  0  0  0  0  0  0  0
   20.0758   24.6996   42.4973 C   0  0  1  0  0  0  0  0  0  0  0  0
   19.0221   25.1751   41.6601 O   0  0  0  0  0  0  0  0  0  0  0  0
   20.6624   23.4766   41.8181 C   0  0  1  0  0  0  0  0  0  0  0  0
   20.1849   22.3131   42.4949 O   0  0  0  0  0  0  0  0  0  0  0  0
   20.1317   23.4724   40.4024 C   0  0  0  0  0  0  0  0  0  0  0  0
   18.9754   24.4555   40.4177 C   0  0  2  0  0  0  0  0  0  0  0  0
   17.3951   29.1235   38.8459 N   0  0  0  0  0  0  0  0  0  0  0  0
   17.1438   28.4412   39.9891 C   0  0  2  0  0  0  0  0  0  0  0  0
   16.3669   28.9882   40.9477 N   0  0  0  0  0  0  0  0  0  0  0  0
   17.6551   27.2109   40.2055 N   0  0  0  0  0  0  0  0  0  0  0  0
   18.4397   26.6032   39.2927 C   0  0  1  0  0  0  0  0  0  0  0  0
   18.7338   27.2343   38.1060 C   0  0  1  0  0  0  0  0  0  0  0  0
   18.1679   28.5871   37.8798 C   0  0  0  0  0  0  0  0  0  0  0  0
   18.3967   29.2106   36.8199 O   0  0  0  0  0  0  0  0  0  0  0  0
   19.5248   26.4148   37.3924 N   0  0  0  0  0  0  0  0  0  0  0  0
   19.7100   25.2982   38.1339 C   0  0  0  0  0  0  0  0  0  0  0  0
   19.0436   25.4258   39.2926 N   0  0  1  0  0  0  0  0  0  0  0  0
  1  2  1  0  0  0  0
  3  1  1  6  0  0  0
  3  4  1  0  0  0  0
  3  5  1  0  0  0  0
  5  6  1  1  0  0  0
  5  7  1  0  0  0  0
  7  8  1  0  0  0  0
  8  4  1  1  0  0  0
  8 19  1  0  0  0  0
  9 15  1  0  0  0  0
  9 10  1  0  0  0  0
 10 11  1  1  0  0  0
 10 12  1  0  0  0  0
 13 12  1  1  0  0  0
 13 14  1  0  0  0  0
 13 19  1  0  0  0  0
 14 15  1  1  0  0  0
 14 17  1  0  0  0  0
 15 16  2  0  0  0  0
 17 18  1  0  0  0  0
 19 18  1  1  0  0  0
M  END
>  <CHROM.1>
61.38168943,-38.48849401,19.04499731,26.23113471,40.18779398,0.55214554,-1.10342137
1.47127147

>  <Name>
ligand

>  <RI>
0

>  <Rbt.Current_Directory>
/home/itssahil/PROJECTS/Mol_Feturizer/New_Systems/rnas/3SKL

>  <Rbt.Executable>
rbdock ($Id: //depot/dev/client3/rdock/2013.1/src/exe/rbdock.cxx#4 $)

>  <Rbt.Library>
libRbt.so (2013.1, Build901 2013/11/27)

>  <Rbt.Parameter_File>
/export/apps/rDock/src/rDock_2013.1_src/data/scripts/dock_solv.prm

>  <Rbt.Receptor>
prm/pocket_docking_8.prm

>  <SCORE>
-14.7644

>  <SCORE.INTER>
-14.6283

>  <SCORE.INTER.CONST>
1

>  <SCORE.INTER.POLAR>
0

>  <SCORE.INTER.ROT>
2

>  <SCORE.INTER.SOLV>
22.8528

>  <SCORE.INTER.VDW>
-22.3031

>  <SCORE.INTER.norm>
-0.76991

>  <SCORE.INTRA>
-0.143085

>  <SCORE.INTRA.DIHEDRAL>
-0.268608

>  <SCORE.INTRA.DIHEDRAL.0>
1.50031

>  <SCORE.INTRA.POLAR>
0

>  <SCORE.INTRA.POLAR.0>
0

>  <SCORE.INTRA.REPUL>
0

>  <SCORE.INTRA.REPUL.0>
0

>  <SCORE.INTRA.SOLV>
-0.508549

>  <SCORE.INTRA.SOLV.lig_0>
-37.9941

>  <SCORE.INTRA.VDW>
0.245494

>  <SCORE.INTRA.VDW.0>
-0.964461

>  <SCORE.INTRA.norm>
-0.00753077

>  <SCORE.RESTR>
0.00692475

>  <SCORE.RESTR.CAVITY>
0.00692475

>  <SCORE.RESTR.norm>
0.00036446

>  <SCORE.SYSTEM>
0

>  <SCORE.SYSTEM.CONST>
0

>  <SCORE.SYSTEM.DIHEDRAL>
0

>  <SCORE.SYSTEM.SOLV>
0

>  <SCORE.SYSTEM.norm>
0

>  <SCORE.heavy>
19

>  <SCORE.norm>
-0.777076

>  <RMSD>
6.585

$$$$
ligand
 OpenBabel11021811483D
libRbt.so/2013.1/901 2013/11/27
 19 21  0  0  0  0  0  0  0  0999 V2000
   21.1495   25.7596   42.7299 C   0  0  0  0  0  0  0  0  0  0  0  0
   20.5869   26.9125   43.3802 O   0  0  0  0  0  0  0  0  0  0  0  0
   20.0898   24.6764   42.5027 C   0  0  1  0  0  0  0  0  0  0  0  0
   19.0435   25.1668   41.6648 O   0  0  0  0  0  0  0  0  0  0  0  0
   20.6693   23.4539   41.8168 C   0  0  1  0  0  0  0  0  0  0  0  0
   20.1796   22.2892   42.4827 O   0  0  0  0  0  0  0  0  0  0  0  0
   20.1446   23.4647   40.3988 C   0  0  0  0  0  0  0  0  0  0  0  0
   18.9962   24.4570   40.4168 C   0  0  2  0  0  0  0  0  0  0  0  0
   17.4264   29.1324   38.8564 N   0  0  0  0  0  0  0  0  0  0  0  0
   17.1617   28.4417   39.9915 C   0  0  2  0  0  0  0  0  0  0  0  0
   16.3711   28.9805   40.9436 N   0  0  0  0  0  0  0  0  0  0  0  0
   17.6728   27.2110   40.2062 N   0  0  0  0  0  0  0  0  0  0  0  0
   18.4707   26.6113   39.2996 C   0  0  1  0  0  0  0  0  0  0  0  0
   18.7788   27.2511   38.1212 C   0  0  1  0  0  0  0  0  0  0  0  0
   18.2130   28.6043   37.8970 C   0  0  0  0  0  0  0  0  0  0  0  0
   18.4544   29.2356   36.8444 O   0  0  0  0  0  0  0  0  0  0  0  0
   19.5809   26.4382   37.4125 N   0  0  0  0  0  0  0  0  0  0  0  0
   19.7588   25.3170   38.1487 C   0  0  0  0  0  0  0  0  0  0  0  0
   19.0771   25.4352   39.2994 N   0  0  1  0  0  0  0  0  0  0  0  0
  1  2  1  0  0  0  0
  3  1  1  6  0  0  0
  3  4  1  0  0  0  0
  3  5  1  0  0  0  0
  5  6  1  1  0  0  0
  5  7  1  0  0  0  0
  7  8  1  0  0  0  0
  8  4  1  1  0  0  0
  8 19  1  0  0  0  0
  9 15  1  0  0  0  0
  9 10  1  0  0  0  0
 10 11  1  1  0  0  0
 10 12  1  0  0  0  0
 13 12  1  1  0  0  0
 13 14  1  0  0  0  0
 13 19  1  0  0  0  0
 14 15  1  1  0  0  0
 14 17  1  0  0  0  0
 15 16  2  0  0  0  0
 17 18  1  0  0  0  0
 19 18  1  1  0  0  0
M  END
>  <CHROM.1>
60.90655089,-39.26970008,19.07134646,26.22913754,40.19509341,0.57076436,-1.10302042
1.49663796

>  <Name>
ligand

>  <RI>
0

>  <Rbt.Current_Directory>
/home/itssahil/PROJECTS/Mol_Feturizer/New_Systems/rnas/3SKL

>  <Rbt.Executable>
rbdock ($Id: //depot/dev/client3/rdock/2013.1/src/exe/rbdock.cxx#4 $)

>  <Rbt.Library>
libRbt.so (2013.1, Build901 2013/11/27)

>  <Rbt.Parameter_File>
/export/apps/rDock/src/rDock_2013.1_src/data/scripts/dock_solv.prm

>  <Rbt.Receptor>
prm/blind_docking_60.prm

>  <SCORE>
-14.8644

>  <SCORE.INTER>
-14.7229

>  <SCORE.INTER.CONST>
1

>  <SCORE.INTER.POLAR>
0

>  <SCORE.INTER.ROT>
2

>  <SCORE.INTER.SOLV>
22.8545

>  <SCORE.INTER.VDW>
-22.3668

>  <SCORE.INTER.norm>
-0.774891

>  <SCORE.INTRA>
-0.141432

>  <SCORE.INTRA.DIHEDRAL>
-0.273157

>  <SCORE.INTRA.DIHEDRAL.0>
1.50031

>  <SCORE.INTRA.POLAR>
0

>  <SCORE.INTRA.POLAR.0>
0

>  <SCORE.INTRA.REPUL>
0

>  <SCORE.INTRA.REPUL.0>
0

>  <SCORE.INTRA.SOLV>
-0.507108

>  <SCORE.INTRA.SOLV.lig_0>
-37.9941

>  <SCORE.INTRA.VDW>
0.248701

>  <SCORE.INTRA.VDW.0>
-0.964461

>  <SCORE.INTRA.norm>
-0.00744378

>  <SCORE.RESTR>
0

>  <SCORE.RESTR.CAVITY>
0

>  <SCORE.RESTR.norm>
0

>  <SCORE.SYSTEM>
0

>  <SCORE.SYSTEM.CONST>
0

>  <SCORE.SYSTEM.DIHEDRAL>
0

>  <SCORE.SYSTEM.SOLV>
0

>  <SCORE.SYSTEM.norm>
0

>  <SCORE.heavy>
19

>  <SCORE.norm>
-0.782335

>  <RMSD>
6.594

$$$$
ligand
 OpenBabel11021811483D
libRbt.so/2013.1/901 2013/11/27
 19 21  0  0  0  0  0  0  0  0999 V2000
   18.2231   29.0309   31.9858 C   0  0  0  0  0  0  0  0  0  0  0  0
   18.1556   29.1474   33.4178 O   0  0  0  0  0  0  0  0  0  0  0  0
   19.6706   28.8756   31.5078 C   0  0  1  0  0  0  0  0  0  0  0  0
   20.4646   29.9773   31.9477 O   0  0  0  0  0  0  0  0  0  0  0  0
   20.3157   27.6180   32.0584 C   0  0  1  0  0  0  0  0  0  0  0  0
   21.0219   26.9726   30.9979 O   0  0  0  0  0  0  0  0  0  0  0  0
   21.3086   28.0653   33.1072 C   0  0  0  0  0  0  0  0  0  0  0  0
   21.4841   29.5537   32.8667 C   0  0  2  0  0  0  0  0  0  0  0  0
   23.0968   33.8622   35.2319 N   0  0  0  0  0  0  0  0  0  0  0  0
   23.4067   33.3490   34.0169 C   0  0  2  0  0  0  0  0  0  0  0  0
   24.2668   34.0002   33.2058 N   0  0  0  0  0  0  0  0  0  0  0  0
   22.8731   32.1878   33.5824 N   0  0  0  0  0  0  0  0  0  0  0  0
   22.0067   31.4838   34.3386 C   0  0  1  0  0  0  0  0  0  0  0  0
   21.6494   31.9417   35.5859 C   0  0  1  0  0  0  0  0  0  0  0  0
   22.2406   33.2202   36.0522 C   0  0  0  0  0  0  0  0  0  0  0  0
   21.9570   33.6868   37.1776 O   0  0  0  0  0  0  0  0  0  0  0  0
   20.7840   31.0586   36.1129 N   0  0  0  0  0  0  0  0  0  0  0  0
   20.6164   30.0747   35.1993 C   0  0  0  0  0  0  0  0  0  0  0  0
   21.3671   30.3463   34.1197 N   0  0  1  0  0  0  0  0  0  0  0  0
  1  2  1  0  0  0  0
  3  1  1  1  0  0  0
  3  4  1  0  0  0  0
  3  5  1  0  0  0  0
  5  6  1  6  0  0  0
  5  7  1  0  0  0  0
  7  8  1  0  0  0  0
  8  4  1  6  0  0  0
  8 19  1  0  0  0  0
  9 15  1  0  0  0  0
  9 10  1  0  0  0  0
 10 11  1  6  0  0  0
 10 12  1  0  0  0  0
 13 12  1  6  0  0  0
 13 14  1  0  0  0  0
 13 19  1  0  0  0  0
 14 15  1  6  0  0  0
 14 17  1  0  0  0  0
 15 16  2  0  0  0  0
 17 18  1  0  0  0  0
 19 18  1  6  0  0  0
M  END
>  <CHROM.1>
-57.34809602,-90.95631303,21.26653965,30.71113073,33.77536991,2.12873338
-0.62783207,-2.21068865

>  <Name>
ligand

>  <RI>
0

>  <Rbt.Current_Directory>
/home/itssahil/PROJECTS/Mol_Feturizer/New_Systems/rnas/3SKL

>  <Rbt.Executable>
rbdock ($Id: //depot/dev/client3/rdock/2013.1/src/exe/rbdock.cxx#4 $)

>  <Rbt.Library>
libRbt.so (2013.1, Build901 2013/11/27)

>  <Rbt.Parameter_File>
/export/apps/rDock/src/rDock_2013.1_src/data/scripts/dock_solv.prm

>  <Rbt.Receptor>
prm/pocket_docking_7.prm

>  <SCORE>
-10.8388

>  <SCORE.INTER>
-10.5434

>  <SCORE.INTER.CONST>
1

>  <SCORE.INTER.POLAR>
0

>  <SCORE.INTER.ROT>
2

>  <SCORE.INTER.SOLV>
11.2762

>  <SCORE.INTER.VDW>
-15.721

>  <SCORE.INTER.norm>
-0.554917

>  <SCORE.INTRA>
-0.295419

>  <SCORE.INTRA.DIHEDRAL>
-0.296889

>  <SCORE.INTRA.DIHEDRAL.0>
1.50031

>  <SCORE.INTRA.POLAR>
0

>  <SCORE.INTRA.POLAR.0>
0

>  <SCORE.INTRA.REPUL>
0

>  <SCORE.INTRA.REPUL.0>
0

>  <SCORE.INTRA.SOLV>
0.0316647

>  <SCORE.INTRA.SOLV.lig_0>
-37.9941

>  <SCORE.INTRA.VDW>
-0.162807

>  <SCORE.INTRA.VDW.0>
-0.964461

>  <SCORE.INTRA.norm>
-0.0155484

>  <SCORE.RESTR>
0

>  <SCORE.RESTR.CAVITY>
0

>  <SCORE.RESTR.norm>
0

>  <SCORE.SYSTEM>
0

>  <SCORE.SYSTEM.CONST>
0

>  <SCORE.SYSTEM.DIHEDRAL>
0

>  <SCORE.SYSTEM.SOLV>
0

>  <SCORE.SYSTEM.norm>
0

>  <SCORE.heavy>
19

>  <SCORE.norm>
-0.570465

>  <RMSD>
6.604

$$$$
ligand
 OpenBabel11021811483D
libRbt.so/2013.1/901 2013/11/27
 19 21  0  0  0  0  0  0  0  0999 V2000
   20.3811   30.4639   34.7198 C   0  0  0  0  0  0  0  0  0  0  0  0
   19.0729   30.4870   34.1226 O   0  0  0  0  0  0  0  0  0  0  0  0
   21.3655   29.6513   33.8720 C   0  0  1  0  0  0  0  0  0  0  0  0
   20.9292   28.2970   33.7577 O   0  0  0  0  0  0  0  0  0  0  0  0
   21.4826   30.1985   32.4621 C   0  0  1  0  0  0  0  0  0  0  0  0
   22.8656   30.2383   32.1079 O   0  0  0  0  0  0  0  0  0  0  0  0
   20.7731   29.2168   31.5573 C   0  0  0  0  0  0  0  0  0  0  0  0
   20.6042   27.9647   32.3985 C   0  0  2  0  0  0  0  0  0  0  0  0
   17.6181   24.3217   30.2610 N   0  0  0  0  0  0  0  0  0  0  0  0
   18.9337   24.5994   30.0946 C   0  0  2  0  0  0  0  0  0  0  0  0
   19.6831   23.8525   29.2567 N   0  0  0  0  0  0  0  0  0  0  0  0
   19.5307   25.6159   30.7522 N   0  0  0  0  0  0  0  0  0  0  0  0
   18.8444   26.4031   31.6051 C   0  0  1  0  0  0  0  0  0  0  0  0
   17.5034   26.1830   31.8201 C   0  0  1  0  0  0  0  0  0  0  0  0
   16.8582   25.0617   31.0935 C   0  0  0  0  0  0  0  0  0  0  0  0
   15.6417   24.8132   31.2447 O   0  0  0  0  0  0  0  0  0  0  0  0
   17.0757   27.0996   32.7052 N   0  0  0  0  0  0  0  0  0  0  0  0
   18.1417   27.8690   33.0251 C   0  0  0  0  0  0  0  0  0  0  0  0
   19.2161   27.4330   32.3481 N   0  0  1  0  0  0  0  0  0  0  0  0
  1  2  1  0  0  0  0
  3  1  1  1  0  0  0
  3  4  1  0  0  0  0
  3  5  1  0  0  0  0
  5  6  1  6  0  0  0
  5  7  1  0  0  0  0
  7  8  1  0  0  0  0
  8  4  1  1  0  0  0
  8 19  1  0  0  0  0
  9 15  1  0  0  0  0
  9 10  1  0  0  0  0
 10 11  1  1  0  0  0
 10 12  1  0  0  0  0
 13 12  1  1  0  0  0
 13 14  1  0  0  0  0
 13 19  1  0  0  0  0
 14 15  1  1  0  0  0
 14 17  1  0  0  0  0
 15 16  2  0  0  0  0
 17 18  1  0  0  0  0
 19 18  1  1  0  0  0
M  END
>  <CHROM.1>
-60.96069631,-139.12843236,19.32711413,27.41952782,32.09713909,0.99876531
0.34035910,0.69022533

>  <Name>
ligand

>  <RI>
0

>  <Rbt.Current_Directory>
/home/itssahil/PROJECTS/Mol_Feturizer/New_Systems/rnas/3SKL

>  <Rbt.Executable>
rbdock ($Id: //depot/dev/client3/rdock/2013.1/src/exe/rbdock.cxx#4 $)

>  <Rbt.Library>
libRbt.so (2013.1, Build901 2013/11/27)

>  <Rbt.Parameter_File>
/export/apps/rDock/src/rDock_2013.1_src/data/scripts/dock_solv.prm

>  <Rbt.Receptor>
prm/pocket_docking_6.prm

>  <SCORE>
-11.2719

>  <SCORE.INTER>
-10.6823

>  <SCORE.INTER.CONST>
1

>  <SCORE.INTER.POLAR>
0

>  <SCORE.INTER.ROT>
2

>  <SCORE.INTER.SOLV>
12.0549

>  <SCORE.INTER.VDW>
-16.0732

>  <SCORE.INTER.norm>
-0.562225

>  <SCORE.INTRA>
-0.58966

>  <SCORE.INTRA.DIHEDRAL>
-0.273889

>  <SCORE.INTRA.DIHEDRAL.0>
1.50031

>  <SCORE.INTRA.POLAR>
0

>  <SCORE.INTRA.POLAR.0>
0

>  <SCORE.INTRA.REPUL>
0

>  <SCORE.INTRA.REPUL.0>
0

>  <SCORE.INTRA.SOLV>
0.0348642

>  <SCORE.INTRA.SOLV.lig_0>
-37.9941

>  <SCORE.INTRA.VDW>
-0.470147

>  <SCORE.INTRA.VDW.0>
-0.964461

>  <SCORE.INTRA.norm>
-0.0310347

>  <SCORE.RESTR>
0

>  <SCORE.RESTR.CAVITY>
0

>  <SCORE.RESTR.norm>
0

>  <SCORE.SYSTEM>
0

>  <SCORE.SYSTEM.CONST>
0

>  <SCORE.SYSTEM.DIHEDRAL>
0

>  <SCORE.SYSTEM.SOLV>
0

>  <SCORE.SYSTEM.norm>
0

>  <SCORE.heavy>
19

>  <SCORE.norm>
-0.59326

>  <RMSD>
6.637

$$$$
ligand
 OpenBabel11021811483D
libRbt.so/2013.1/901 2013/11/27
 19 21  0  0  0  0  0  0  0  0999 V2000
   19.5008   27.5502   36.0178 C   0  0  0  0  0  0  0  0  0  0  0  0
   20.3835   27.1884   34.9414 O   0  0  0  0  0  0  0  0  0  0  0  0
   18.5403   28.6677   35.5979 C   0  0  1  0  0  0  0  0  0  0  0  0
   19.2650   29.7839   35.0819 O   0  0  0  0  0  0  0  0  0  0  0  0
   17.5894   28.2150   34.5062 C   0  0  1  0  0  0  0  0  0  0  0  0
   16.2758   28.6680   34.8365 O   0  0  0  0  0  0  0  0  0  0  0  0
   18.0371   28.8968   33.2331 C   0  0  0  0  0  0  0  0  0  0  0  0
   18.9750   29.9987   33.6914 C   0  0  2  0  0  0  0  0  0  0  0  0
   23.6894   32.1181   33.4902 N   0  0  0  0  0  0  0  0  0  0  0  0
   22.6591   32.3278   34.3447 C   0  0  2  0  0  0  0  0  0  0  0  0
   22.7860   33.2145   35.3543 N   0  0  0  0  0  0  0  0  0  0  0  0
   21.4894   31.6662   34.2182 N   0  0  0  0  0  0  0  0  0  0  0  0
   21.2918   30.7658   33.2341 C   0  0  1  0  0  0  0  0  0  0  0  0
   22.2923   30.5050   32.3263 C   0  0  1  0  0  0  0  0  0  0  0  0
   23.5744   31.2366   32.4764 C   0  0  0  0  0  0  0  0  0  0  0  0
   24.5206   31.0451   31.6810 O   0  0  0  0  0  0  0  0  0  0  0  0
   21.8332   29.5790   31.4672 N   0  0  0  0  0  0  0  0  0  0  0  0
   20.5691   29.2797   31.8455 C   0  0  0  0  0  0  0  0  0  0  0  0
   20.2504   30.0098   32.9263 N   0  0  1  0  0  0  0  0  0  0  0  0
  1  2  1  0  0  0  0
  3  1  1  6  0  0  0
  3  4  1  0  0  0  0
  3  5  1  0  0  0  0
  5  6  1  1  0  0  0
  5  7  1  0  0  0  0
  7  8  1  0  0  0  0
  8  4  1  1  0  0  0
  8 19  1  0  0  0  0
  9 15  1  0  0  0  0
  9 10  1  0  0  0  0
 10 11  1  1  0  0  0
 10 12  1  0  0  0  0
 13 12  1  1  0  0  0
 13 14  1  0  0  0  0
 13 19  1  0  0  0  0
 14 15  1  1  0  0  0
 14 17  1  0  0  0  0
 15 16  2  0  0  0  0
 17 18  1  0  0  0  0
 19 18  1  1  0  0  0
M  END
>  <CHROM.1>
-53.99240688,-52.13654410,20.66750093,29.99318008,33.78791905,3.09446000
-0.61196221,-2.16264875

>  <Name>
ligand

>  <RI>
0

>  <Rbt.Current_Directory>
/home/itssahil/PROJECTS/Mol_Feturizer/New_Systems/rnas/3SKL

>  <Rbt.Executable>
rbdock ($Id: //depot/dev/client3/rdock/2013.1/src/exe/rbdock.cxx#4 $)

>  <Rbt.Library>
libRbt.so (2013.1, Build901 2013/11/27)

>  <Rbt.Parameter_File>
/export/apps/rDock/src/rDock_2013.1_src/data/scripts/dock_solv.prm

>  <Rbt.Receptor>
prm/pocket_docking_7.prm

>  <SCORE>
-13.1688

>  <SCORE.INTER>
-13.1305

>  <SCORE.INTER.CONST>
1

>  <SCORE.INTER.POLAR>
0

>  <SCORE.INTER.ROT>
2

>  <SCORE.INTER.SOLV>
15.1191

>  <SCORE.INTER.VDW>
-18.7267

>  <SCORE.INTER.norm>
-0.69108

>  <SCORE.INTRA>
-0.0383235

>  <SCORE.INTRA.DIHEDRAL>
-0.157483

>  <SCORE.INTRA.DIHEDRAL.0>
1.50031

>  <SCORE.INTRA.POLAR>
0

>  <SCORE.INTRA.POLAR.0>
0

>  <SCORE.INTRA.REPUL>
0

>  <SCORE.INTRA.REPUL.0>
0

>  <SCORE.INTRA.SOLV>
0.0026277

>  <SCORE.INTRA.SOLV.lig_0>
-37.9941

>  <SCORE.INTRA.VDW>
0.0391041

>  <SCORE.INTRA.VDW.0>
-0.964461

>  <SCORE.INTRA.norm>
-0.00201703

>  <SCORE.RESTR>
0

>  <SCORE.RESTR.CAVITY>
0

>  <SCORE.RESTR.norm>
0

>  <SCORE.SYSTEM>
0

>  <SCORE.SYSTEM.CONST>
0

>  <SCORE.SYSTEM.DIHEDRAL>
0

>  <SCORE.SYSTEM.SOLV>
0

>  <SCORE.SYSTEM.norm>
0

>  <SCORE.heavy>
19

>  <SCORE.norm>
-0.693097

>  <RMSD>
6.664

$$$$
ligand
 OpenBabel11021811483D
libRbt.so/2013.1/901 2013/11/27
 19 21  0  0  0  0  0  0  0  0999 V2000
   19.9163   26.5508   36.8515 C   0  0  0  0  0  0  0  0  0  0  0  0
   19.0248   25.5466   37.3665 O   0  0  0  0  0  0  0  0  0  0  0  0
   19.5364   27.9455   37.3596 C   0  0  1  0  0  0  0  0  0  0  0  0
   20.5311   28.9010   36.9922 O   0  0  0  0  0  0  0  0  0  0  0  0
   18.2239   28.4241   36.7687 C   0  0  1  0  0  0  0  0  0  0  0  0
   17.4405   28.9971   37.8164 O   0  0  0  0  0  0  0  0  0  0  0  0
   18.5688   29.5039   35.7681 C   0  0  0  0  0  0  0  0  0  0  0  0
   20.0055   29.8800   36.0818 C   0  0  2  0  0  0  0  0  0  0  0  0
   23.6066   32.6473   33.6056 N   0  0  0  0  0  0  0  0  0  0  0  0
   22.9497   32.8843   34.7666 C   0  0  2  0  0  0  0  0  0  0  0  0
   23.2127   34.0006   35.4782 N   0  0  0  0  0  0  0  0  0  0  0  0
   22.0251   32.0247   35.2443 N   0  0  0  0  0  0  0  0  0  0  0  0
   21.7118   30.8897   34.5872 C   0  0  1  0  0  0  0  0  0  0  0  0
   22.3354   30.5858   33.3990 C   0  0  1  0  0  0  0  0  0  0  0  0
   23.3514   31.5369   32.8845 C   0  0  0  0  0  0  0  0  0  0  0  0
   23.9505   31.3177   31.8086 O   0  0  0  0  0  0  0  0  0  0  0  0
   21.8413   29.4131   32.9665 N   0  0  0  0  0  0  0  0  0  0  0  0
   20.9278   29.0076   33.8786 C   0  0  0  0  0  0  0  0  0  0  0  0
   20.8587   29.9170   34.8641 N   0  0  1  0  0  0  0  0  0  0  0  0
  1  2  1  0  0  0  0
  3  1  1  6  0  0  0
  3  4  1  0  0  0  0
  3  5  1  0  0  0  0
  5  6  1  1  0  0  0
  5  7  1  0  0  0  0
  7  8  1  0  0  0  0
  8  4  1  1  0  0  0
  8 19  1  0  0  0  0
  9 15  1  0  0  0  0
  9 10  1  0  0  0  0
 10 11  1  1  0  0  0
 10 12  1  0  0  0  0
 13 12  1  1  0  0  0
 13 14  1  0  0  0  0
 13 19  1  0  0  0  0
 14 15  1  1  0  0  0
 14 17  1  0  0  0  0
 15 16  2  0  0  0  0
 17 18  1  0  0  0  0
 19 18  1  1  0  0  0
M  END
>  <CHROM.1>
172.05997634,-105.95560528,21.00288976,29.93503544,35.23982984,-2.76900166
0.86288779,0.42568225

>  <Name>
ligand

>  <RI>
0

>  <Rbt.Current_Directory>
/home/itssahil/PROJECTS/Mol_Feturizer/New_Systems/rnas/3SKL

>  <Rbt.Executable>
rbdock ($Id: //depot/dev/client3/rdock/2013.1/src/exe/rbdock.cxx#4 $)

>  <Rbt.Library>
libRbt.so (2013.1, Build901 2013/11/27)

>  <Rbt.Parameter_File>
/export/apps/rDock/src/rDock_2013.1_src/data/scripts/dock_solv.prm

>  <Rbt.Receptor>
prm/pocket_docking_7.prm

>  <SCORE>
-14.7953

>  <SCORE.INTER>
-14.5229

>  <SCORE.INTER.CONST>
1

>  <SCORE.INTER.POLAR>
0

>  <SCORE.INTER.ROT>
2

>  <SCORE.INTER.SOLV>
16.5483

>  <SCORE.INTER.VDW>
-20.1314

>  <SCORE.INTER.norm>
-0.764363

>  <SCORE.INTRA>
-0.29701

>  <SCORE.INTRA.DIHEDRAL>
-0.0921901

>  <SCORE.INTRA.DIHEDRAL.0>
1.50031

>  <SCORE.INTRA.POLAR>
0

>  <SCORE.INTRA.POLAR.0>
0

>  <SCORE.INTRA.REPUL>
0

>  <SCORE.INTRA.REPUL.0>
0

>  <SCORE.INTRA.SOLV>
-0.495928

>  <SCORE.INTRA.SOLV.lig_0>
-37.9941

>  <SCORE.INTRA.VDW>
-0.00295086

>  <SCORE.INTRA.VDW.0>
-0.964461

>  <SCORE.INTRA.norm>
-0.0156321

>  <SCORE.RESTR>
0.024582

>  <SCORE.RESTR.CAVITY>
0.024582

>  <SCORE.RESTR.norm>
0.00129379

>  <SCORE.SYSTEM>
0

>  <SCORE.SYSTEM.CONST>
0

>  <SCORE.SYSTEM.DIHEDRAL>
0

>  <SCORE.SYSTEM.SOLV>
0

>  <SCORE.SYSTEM.norm>
0

>  <SCORE.heavy>
19

>  <SCORE.norm>
-0.778701

>  <RMSD>
6.665

$$$$
ligand
 OpenBabel11021811483D
libRbt.so/2013.1/901 2013/11/27
 19 21  0  0  0  0  0  0  0  0999 V2000
   17.5956   28.2901   33.5135 C   0  0  0  0  0  0  0  0  0  0  0  0
   17.6828   27.1538   32.6361 O   0  0  0  0  0  0  0  0  0  0  0  0
   18.4463   28.0880   34.7718 C   0  0  1  0  0  0  0  0  0  0  0  0
   19.8195   27.9104   34.4251 O   0  0  0  0  0  0  0  0  0  0  0  0
   18.3759   29.2856   35.7000 C   0  0  1  0  0  0  0  0  0  0  0  0
   18.2026   28.8107   37.0357 O   0  0  0  0  0  0  0  0  0  0  0  0
   19.7103   29.9893   35.5994 C   0  0  0  0  0  0  0  0  0  0  0  0
   20.6292   28.9858   34.9266 C   0  0  2  0  0  0  0  0  0  0  0  0
   23.5679   33.0204   33.5686 N   0  0  0  0  0  0  0  0  0  0  0  0
   22.9497   32.7280   34.7382 C   0  0  2  0  0  0  0  0  0  0  0  0
   23.0643   33.5630   35.7924 N   0  0  0  0  0  0  0  0  0  0  0  0
   22.2109   31.6082   34.8871 N   0  0  0  0  0  0  0  0  0  0  0  0
   22.0531   30.7285   33.8775 C   0  0  1  0  0  0  0  0  0  0  0  0
   22.6480   30.9624   32.6591 C   0  0  1  0  0  0  0  0  0  0  0  0
   23.4595   32.1954   32.5076 C   0  0  0  0  0  0  0  0  0  0  0  0
   24.0228   32.4650   31.4239 O   0  0  0  0  0  0  0  0  0  0  0  0
   22.3317   29.9394   31.8468 N   0  0  0  0  0  0  0  0  0  0  0  0
   21.5534   29.0932   32.5602 C   0  0  0  0  0  0  0  0  0  0  0  0
   21.3916   29.5852   33.7990 N   0  0  1  0  0  0  0  0  0  0  0  0
  1  2  1  0  0  0  0
  3  1  1  6  0  0  0
  3  4  1  0  0  0  0
  3  5  1  0  0  0  0
  5  6  1  1  0  0  0
  5  7  1  0  0  0  0
  7  8  1  0  0  0  0
  8  4  1  6  0  0  0
  8 19  1  0  0  0  0
  9 15  1  0  0  0  0
  9 10  1  0  0  0  0
 10 11  1  1  0  0  0
 10 12  1  0  0  0  0
 13 12  1  1  0  0  0
 13 14  1  0  0  0  0
 13 19  1  0  0  0  0
 14 15  1  1  0  0  0
 14 17  1  0  0  0  0
 15 16  2  0  0  0  0
 17 18  1  0  0  0  0
 19 18  1  1  0  0  0
M  END
>  <CHROM.1>
60.30282647,168.18114504,20.96781308,30.17818477,34.02592306,-3.03492664
0.71513684,1.09464546

>  <Name>
ligand

>  <RI>
0

>  <Rbt.Current_Directory>
/home/itssahil/PROJECTS/Mol_Feturizer/New_Systems/rnas/3SKL

>  <Rbt.Executable>
rbdock ($Id: //depot/dev/client3/rdock/2013.1/src/exe/rbdock.cxx#4 $)

>  <Rbt.Library>
libRbt.so (2013.1, Build901 2013/11/27)

>  <Rbt.Parameter_File>
/export/apps/rDock/src/rDock_2013.1_src/data/scripts/dock_solv.prm

>  <Rbt.Receptor>
prm/pocket_docking_6.prm

>  <SCORE>
-12.5466

>  <SCORE.INTER>
-12.3451

>  <SCORE.INTER.CONST>
1

>  <SCORE.INTER.POLAR>
0

>  <SCORE.INTER.ROT>
2

>  <SCORE.INTER.SOLV>
13.9992

>  <SCORE.INTER.VDW>
-17.8298

>  <SCORE.INTER.norm>
-0.649745

>  <SCORE.INTRA>
-0.20143

>  <SCORE.INTRA.DIHEDRAL>
-0.312669

>  <SCORE.INTRA.DIHEDRAL.0>
1.50031

>  <SCORE.INTRA.POLAR>
0

>  <SCORE.INTRA.POLAR.0>
0

>  <SCORE.INTRA.REPUL>
0

>  <SCORE.INTRA.REPUL.0>
0

>  <SCORE.INTRA.SOLV>
-0.562982

>  <SCORE.INTRA.SOLV.lig_0>
-37.9941

>  <SCORE.INTRA.VDW>
0.236395

>  <SCORE.INTRA.VDW.0>
-0.964461

>  <SCORE.INTRA.norm>
-0.0106016

>  <SCORE.RESTR>
0

>  <SCORE.RESTR.CAVITY>
0

>  <SCORE.RESTR.norm>
0

>  <SCORE.SYSTEM>
0

>  <SCORE.SYSTEM.CONST>
0

>  <SCORE.SYSTEM.DIHEDRAL>
0

>  <SCORE.SYSTEM.SOLV>
0

>  <SCORE.SYSTEM.norm>
0

>  <SCORE.heavy>
19

>  <SCORE.norm>
-0.660346

>  <RMSD>
6.702

$$$$
ligand
 OpenBabel11021811483D
libRbt.so/2013.1/901 2013/11/27
 19 21  0  0  0  0  0  0  0  0999 V2000
   20.8568   30.1004   34.8567 C   0  0  0  0  0  0  0  0  0  0  0  0
   21.3536   31.4085   35.1891 O   0  0  0  0  0  0  0  0  0  0  0  0
   21.7350   29.4241   33.7987 C   0  0  1  0  0  0  0  0  0  0  0  0
   21.2560   28.1096   33.5155 O   0  0  0  0  0  0  0  0  0  0  0  0
   21.7306   30.1881   32.4883 C   0  0  1  0  0  0  0  0  0  0  0  0
   23.0740   30.2707   32.0105 O   0  0  0  0  0  0  0  0  0  0  0  0
   20.9135   29.3702   31.5140 C   0  0  0  0  0  0  0  0  0  0  0  0
   20.7944   28.0016   32.1595 C   0  0  2  0  0  0  0  0  0  0  0  0
   17.7005   24.2966   30.2997 N   0  0  0  0  0  0  0  0  0  0  0  0
   19.0189   24.5346   30.0976 C   0  0  2  0  0  0  0  0  0  0  0  0
   19.7397   23.7201   29.2983 N   0  0  0  0  0  0  0  0  0  0  0  0
   19.6470   25.5774   30.6808 N   0  0  0  0  0  0  0  0  0  0  0  0
   18.9905   26.4316   31.4916 C   0  0  1  0  0  0  0  0  0  0  0  0
   17.6486   26.2548   31.7389 C   0  0  1  0  0  0  0  0  0  0  0  0
   16.9692   25.1041   31.0941 C   0  0  0  0  0  0  0  0  0  0  0  0
   15.7502   24.8921   31.2779 O   0  0  0  0  0  0  0  0  0  0  0  0
   17.2538   27.2345   32.5700 N   0  0  0  0  0  0  0  0  0  0  0  0
   18.3404   27.9992   32.8254 C   0  0  0  0  0  0  0  0  0  0  0  0
   19.3949   27.4981   32.1624 N   0  0  1  0  0  0  0  0  0  0  0  0
  1  2  1  0  0  0  0
  3  1  1  1  0  0  0
  3  4  1  0  0  0  0
  3  5  1  0  0  0  0
  5  6  1  6  0  0  0
  5  7  1  0  0  0  0
  7  8  1  0  0  0  0
  8  4  1  1  0  0  0
  8 19  1  0  0  0  0
  9 15  1  0  0  0  0
  9 10  1  0  0  0  0
 10 11  1  1  0  0  0
 10 12  1  0  0  0  0
 13 12  1  1  0  0  0
 13 14  1  0  0  0  0
 13 19  1  0  0  0  0
 14 15  1  1  0  0  0
 14 17  1  0  0  0  0
 15 16  2  0  0  0  0
 17 18  1  0  0  0  0
 19 18  1  1  0  0  0
M  END
>  <CHROM.1>
177.93682752,-125.49656684,19.64396013,27.45981779,32.09974413,0.95863476
0.35260612,0.74308662

>  <Name>
ligand

>  <RI>
0

>  <Rbt.Current_Directory>
/home/itssahil/PROJECTS/Mol_Feturizer/New_Systems/rnas/3SKL

>  <Rbt.Executable>
rbdock ($Id: //depot/dev/client3/rdock/2013.1/src/exe/rbdock.cxx#4 $)

>  <Rbt.Library>
libRbt.so (2013.1, Build901 2013/11/27)

>  <Rbt.Parameter_File>
/export/apps/rDock/src/rDock_2013.1_src/data/scripts/dock_solv.prm

>  <Rbt.Receptor>
prm/pocket_docking_8.prm

>  <SCORE>
-11.3729

>  <SCORE.INTER>
-10.8511

>  <SCORE.INTER.CONST>
1

>  <SCORE.INTER.POLAR>
0

>  <SCORE.INTER.ROT>
2

>  <SCORE.INTER.SOLV>
12.6003

>  <SCORE.INTER.VDW>
-16.3675

>  <SCORE.INTER.norm>
-0.571111

>  <SCORE.INTRA>
-0.521765

>  <SCORE.INTRA.DIHEDRAL>
-0.275886

>  <SCORE.INTRA.DIHEDRAL.0>
1.50031

>  <SCORE.INTRA.POLAR>
0

>  <SCORE.INTRA.POLAR.0>
0

>  <SCORE.INTRA.REPUL>
0

>  <SCORE.INTRA.REPUL.0>
0

>  <SCORE.INTRA.SOLV>
-0.468543

>  <SCORE.INTRA.SOLV.lig_0>
-37.9941

>  <SCORE.INTRA.VDW>
-0.149551

>  <SCORE.INTRA.VDW.0>
-0.964461

>  <SCORE.INTRA.norm>
-0.0274613

>  <SCORE.RESTR>
0

>  <SCORE.RESTR.CAVITY>
0

>  <SCORE.RESTR.norm>
0

>  <SCORE.SYSTEM>
0

>  <SCORE.SYSTEM.CONST>
0

>  <SCORE.SYSTEM.DIHEDRAL>
0

>  <SCORE.SYSTEM.SOLV>
0

>  <SCORE.SYSTEM.norm>
0

>  <SCORE.heavy>
19

>  <SCORE.norm>
-0.598572

>  <RMSD>
6.779

$$$$
ligand
 OpenBabel11021811483D
libRbt.so/2013.1/901 2013/11/27
 19 21  0  0  0  0  0  0  0  0999 V2000
   22.6165   30.2415   32.3628 C   0  0  0  0  0  0  0  0  0  0  0  0
   23.4823   30.9524   33.2647 O   0  0  0  0  0  0  0  0  0  0  0  0
   21.1801   30.1913   32.8941 C   0  0  1  0  0  0  0  0  0  0  0  0
   20.3186   29.5551   31.9504 O   0  0  0  0  0  0  0  0  0  0  0  0
   21.0823   29.4009   34.1850 C   0  0  1  0  0  0  0  0  0  0  0  0
   20.2602   30.1293   35.0980 O   0  0  0  0  0  0  0  0  0  0  0  0
   20.3979   28.0970   33.8424 C   0  0  0  0  0  0  0  0  0  0  0  0
   19.7870   28.3269   32.4721 C   0  0  2  0  0  0  0  0  0  0  0  0
   17.7750   24.1939   30.0998 N   0  0  0  0  0  0  0  0  0  0  0  0
   17.2288   25.0595   30.9875 C   0  0  2  0  0  0  0  0  0  0  0  0
   15.9456   24.9097   31.3781 N   0  0  0  0  0  0  0  0  0  0  0  0
   17.9381   26.0860   31.5024 N   0  0  0  0  0  0  0  0  0  0  0  0
   19.2243   26.2972   31.1573 C   0  0  1  0  0  0  0  0  0  0  0  0
   19.8463   25.4553   30.2643 C   0  0  1  0  0  0  0  0  0  0  0  0
   19.0564   24.3316   29.7033 C   0  0  0  0  0  0  0  0  0  0  0  0
   19.5666   23.5306   28.8892 O   0  0  0  0  0  0  0  0  0  0  0  0
   21.1068   25.8920   30.1010 N   0  0  0  0  0  0  0  0  0  0  0  0
   21.2520   26.9854   30.8848 C   0  0  0  0  0  0  0  0  0  0  0  0
   20.0952   27.2235   31.5237 N   0  0  1  0  0  0  0  0  0  0  0  0
  1  2  1  0  0  0  0
  3  1  1  6  0  0  0
  3  4  1  0  0  0  0
  3  5  1  0  0  0  0
  5  6  1  1  0  0  0
  5  7  1  0  0  0  0
  7  8  1  0  0  0  0
  8  4  1  6  0  0  0
  8 19  1  0  0  0  0
  9 15  1  0  0  0  0
  9 10  1  0  0  0  0
 10 11  1  6  0  0  0
 10 12  1  0  0  0  0
 13 12  1  6  0  0  0
 13 14  1  0  0  0  0
 13 19  1  0  0  0  0
 14 15  1  6  0  0  0
 14 17  1  0  0  0  0
 15 16  2  0  0  0  0
 17 18  1  0  0  0  0
 19 18  1  6  0  0  0
M  END
>  <CHROM.1>
176.44551852,-135.54127278,19.94741044,27.28066604,31.75775113,-1.03866238
-0.40757247,-2.37805146

>  <Name>
ligand

>  <RI>
0

>  <Rbt.Current_Directory>
/home/itssahil/PROJECTS/Mol_Feturizer/New_Systems/rnas/3SKL

>  <Rbt.Executable>
rbdock ($Id: //depot/dev/client3/rdock/2013.1/src/exe/rbdock.cxx#4 $)

>  <Rbt.Library>
libRbt.so (2013.1, Build901 2013/11/27)

>  <Rbt.Parameter_File>
/export/apps/rDock/src/rDock_2013.1_src/data/scripts/dock_solv.prm

>  <Rbt.Receptor>
prm/pocket_docking_6.prm

>  <SCORE>
-12.2701

>  <SCORE.INTER>
-11.7373

>  <SCORE.INTER.CONST>
1

>  <SCORE.INTER.POLAR>
0

>  <SCORE.INTER.ROT>
2

>  <SCORE.INTER.SOLV>
11.6039

>  <SCORE.INTER.VDW>
-16.6262

>  <SCORE.INTER.norm>
-0.617754

>  <SCORE.INTRA>
-0.532739

>  <SCORE.INTRA.DIHEDRAL>
-0.235255

>  <SCORE.INTRA.DIHEDRAL.0>
1.50031

>  <SCORE.INTRA.POLAR>
0

>  <SCORE.INTRA.POLAR.0>
0

>  <SCORE.INTRA.REPUL>
0

>  <SCORE.INTRA.REPUL.0>
0

>  <SCORE.INTRA.SOLV>
-0.476093

>  <SCORE.INTRA.SOLV.lig_0>
-37.9941

>  <SCORE.INTRA.VDW>
-0.177065

>  <SCORE.INTRA.VDW.0>
-0.964461

>  <SCORE.INTRA.norm>
-0.0280389

>  <SCORE.RESTR>
0

>  <SCORE.RESTR.CAVITY>
0

>  <SCORE.RESTR.norm>
0

>  <SCORE.SYSTEM>
0

>  <SCORE.SYSTEM.CONST>
0

>  <SCORE.SYSTEM.DIHEDRAL>
0

>  <SCORE.SYSTEM.SOLV>
0

>  <SCORE.SYSTEM.norm>
0

>  <SCORE.heavy>
19

>  <SCORE.norm>
-0.645793

>  <RMSD>
6.912

$$$$
ligand
 OpenBabel11021811483D
libRbt.so/2013.1/901 2013/11/27
 19 21  0  0  0  0  0  0  0  0999 V2000
   18.2080   27.7611   33.5130 C   0  0  0  0  0  0  0  0  0  0  0  0
   16.7772   27.6962   33.6442 O   0  0  0  0  0  0  0  0  0  0  0  0
   18.8736   28.1134   34.8475 C   0  0  1  0  0  0  0  0  0  0  0  0
   20.2915   28.1810   34.6979 O   0  0  0  0  0  0  0  0  0  0  0  0
   18.4189   29.4642   35.3666 C   0  0  1  0  0  0  0  0  0  0  0  0
   18.1370   29.3392   36.7611 O   0  0  0  0  0  0  0  0  0  0  0  0
   19.5834   30.4112   35.1850 C   0  0  0  0  0  0  0  0  0  0  0  0
   20.7793   29.5121   34.9293 C   0  0  2  0  0  0  0  0  0  0  0  0
   23.9377   33.2164   33.1797 N   0  0  0  0  0  0  0  0  0  0  0  0
   23.3051   33.0803   34.3701 C   0  0  2  0  0  0  0  0  0  0  0  0
   23.4671   34.0113   35.3337 N   0  0  0  0  0  0  0  0  0  0  0  0
   22.5050   32.0246   34.6292 N   0  0  0  0  0  0  0  0  0  0  0  0
   22.2975   31.0561   33.7142 C   0  0  1  0  0  0  0  0  0  0  0  0
   22.9035   31.1305   32.4812 C   0  0  1  0  0  0  0  0  0  0  0  0
   23.7824   32.2943   32.2083 C   0  0  0  0  0  0  0  0  0  0  0  0
   24.3590   32.4196   31.1054 O   0  0  0  0  0  0  0  0  0  0  0  0
   22.5299   30.0488   31.7764 N   0  0  0  0  0  0  0  0  0  0  0  0
   21.7061   29.3248   32.5689 C   0  0  0  0  0  0  0  0  0  0  0  0
   21.5731   29.9494   33.7500 N   0  0  1  0  0  0  0  0  0  0  0  0
  1  2  1  0  0  0  0
  3  1  1  6  0  0  0
  3  4  1  0  0  0  0
  3  5  1  0  0  0  0
  5  6  1  1  0  0  0
  5  7  1  0  0  0  0
  7  8  1  0  0  0  0
  8  4  1  6  0  0  0
  8 19  1  0  0  0  0
  9 15  1  0  0  0  0
  9 10  1  0  0  0  0
 10 11  1  1  0  0  0
 10 12  1  0  0  0  0
 13 12  1  1  0  0  0
 13 14  1  0  0  0  0
 13 19  1  0  0  0  0
 14 15  1  1  0  0  0
 14 17  1  0  0  0  0
 15 16  2  0  0  0  0
 17 18  1  0  0  0  0
 19 18  1  1  0  0  0
M  END
>  <CHROM.1>
-179.67169623,-171.16112854,21.15359514,30.42467621,33.92139640,-3.01383863
0.68764653,0.96819438

>  <Name>
ligand

>  <RI>
0

>  <Rbt.Current_Directory>
/home/itssahil/PROJECTS/Mol_Feturizer/New_Systems/rnas/3SKL

>  <Rbt.Executable>
rbdock ($Id: //depot/dev/client3/rdock/2013.1/src/exe/rbdock.cxx#4 $)

>  <Rbt.Library>
libRbt.so (2013.1, Build901 2013/11/27)

>  <Rbt.Parameter_File>
/export/apps/rDock/src/rDock_2013.1_src/data/scripts/dock_solv.prm

>  <Rbt.Receptor>
prm/pocket_docking_7.prm

>  <SCORE>
-13.145

>  <SCORE.INTER>
-12.8105

>  <SCORE.INTER.CONST>
1

>  <SCORE.INTER.POLAR>
0

>  <SCORE.INTER.ROT>
2

>  <SCORE.INTER.SOLV>
13.9755

>  <SCORE.INTER.VDW>
-18.1322

>  <SCORE.INTER.norm>
-0.674236

>  <SCORE.INTRA>
-0.334533

>  <SCORE.INTRA.DIHEDRAL>
-0.287056

>  <SCORE.INTRA.DIHEDRAL.0>
1.50031

>  <SCORE.INTRA.POLAR>
0

>  <SCORE.INTRA.POLAR.0>
0

>  <SCORE.INTRA.REPUL>
0

>  <SCORE.INTRA.REPUL.0>
0

>  <SCORE.INTRA.SOLV>
-0.46151

>  <SCORE.INTRA.SOLV.lig_0>
-37.9941

>  <SCORE.INTRA.VDW>
0.0397496

>  <SCORE.INTRA.VDW.0>
-0.964461

>  <SCORE.INTRA.norm>
-0.017607

>  <SCORE.RESTR>
0

>  <SCORE.RESTR.CAVITY>
0

>  <SCORE.RESTR.norm>
0

>  <SCORE.SYSTEM>
0

>  <SCORE.SYSTEM.CONST>
0

>  <SCORE.SYSTEM.DIHEDRAL>
0

>  <SCORE.SYSTEM.SOLV>
0

>  <SCORE.SYSTEM.norm>
0

>  <SCORE.heavy>
19

>  <SCORE.norm>
-0.691843

>  <RMSD>
7.021

$$$$
ligand
 OpenBabel11021811483D
libRbt.so/2013.1/901 2013/11/27
 19 21  0  0  0  0  0  0  0  0999 V2000
   20.3735   28.7403   31.0907 C   0  0  0  0  0  0  0  0  0  0  0  0
   21.6507   29.3080   31.4300 O   0  0  0  0  0  0  0  0  0  0  0  0
   19.3025   29.1281   32.1156 C   0  0  1  0  0  0  0  0  0  0  0  0
   18.0220   28.6457   31.7094 O   0  0  0  0  0  0  0  0  0  0  0  0
   19.5860   28.5331   33.4818 C   0  0  1  0  0  0  0  0  0  0  0  0
   19.3738   29.5454   34.4668 O   0  0  0  0  0  0  0  0  0  0  0  0
   18.5757   27.4276   33.6898 C   0  0  0  0  0  0  0  0  0  0  0  0
   17.5168   27.6641   32.6284 C   0  0  2  0  0  0  0  0  0  0  0  0
   19.5169   23.9225   29.6690 N   0  0  0  0  0  0  0  0  0  0  0  0
   20.0946   25.0102   30.2335 C   0  0  2  0  0  0  0  0  0  0  0  0
   21.4128   25.2433   30.0611 N   0  0  0  0  0  0  0  0  0  0  0  0
   19.3829   25.8834   30.9771 N   0  0  0  0  0  0  0  0  0  0  0  0
   18.0627   25.7136   31.1921 C   0  0  1  0  0  0  0  0  0  0  0  0
   17.4078   24.6339   30.6459 C   0  0  1  0  0  0  0  0  0  0  0  0
   18.2006   23.6796   29.8320 C   0  0  0  0  0  0  0  0  0  0  0  0
   17.6617   22.6804   29.3069 O   0  0  0  0  0  0  0  0  0  0  0  0
   16.1178   24.7087   31.0155 N   0  0  0  0  0  0  0  0  0  0  0  0
   15.9874   25.8200   31.7763 C   0  0  0  0  0  0  0  0  0  0  0  0
   17.1821   26.4243   31.8780 N   0  0  1  0  0  0  0  0  0  0  0  0
  1  2  1  0  0  0  0
  3  1  1  6  0  0  0
  3  4  1  0  0  0  0
  3  5  1  0  0  0  0
  5  6  1  1  0  0  0
  5  7  1  0  0  0  0
  7  8  1  0  0  0  0
  8  4  1  6  0  0  0
  8 19  1  0  0  0  0
  9 15  1  0  0  0  0
  9 10  1  0  0  0  0
 10 11  1  1  0  0  0
 10 12  1  0  0  0  0
 13 12  1  1  0  0  0
 13 14  1  0  0  0  0
 13 19  1  0  0  0  0
 14 15  1  1  0  0  0
 14 17  1  0  0  0  0
 15 16  2  0  0  0  0
 17 18  1  0  0  0  0
 19 18  1  1  0  0  0
M  END
>  <CHROM.1>
175.44517999,60.90218748,18.74903750,26.52625594,31.45247693,-1.28175028
-0.34320531,-2.54264653

>  <Name>
ligand

>  <RI>
0

>  <Rbt.Current_Directory>
/home/itssahil/PROJECTS/Mol_Feturizer/New_Systems/rnas/3SKL

>  <Rbt.Executable>
rbdock ($Id: //depot/dev/client3/rdock/2013.1/src/exe/rbdock.cxx#4 $)

>  <Rbt.Library>
libRbt.so (2013.1, Build901 2013/11/27)

>  <Rbt.Parameter_File>
/export/apps/rDock/src/rDock_2013.1_src/data/scripts/dock_solv.prm

>  <Rbt.Receptor>
prm/pocket_docking_7.prm

>  <SCORE>
-10.9582

>  <SCORE.INTER>
-10.4482

>  <SCORE.INTER.CONST>
1

>  <SCORE.INTER.POLAR>
0

>  <SCORE.INTER.ROT>
2

>  <SCORE.INTER.SOLV>
13.1898

>  <SCORE.INTER.VDW>
-16.2954

>  <SCORE.INTER.norm>
-0.549903

>  <SCORE.INTRA>
-0.51007

>  <SCORE.INTRA.DIHEDRAL>
-0.224257

>  <SCORE.INTRA.DIHEDRAL.0>
1.50031

>  <SCORE.INTRA.POLAR>
0

>  <SCORE.INTRA.POLAR.0>
0

>  <SCORE.INTRA.REPUL>
0

>  <SCORE.INTRA.REPUL.0>
0

>  <SCORE.INTRA.SOLV>
0.683993

>  <SCORE.INTRA.SOLV.lig_0>
-37.9941

>  <SCORE.INTRA.VDW>
-0.739938

>  <SCORE.INTRA.VDW.0>
-0.964461

>  <SCORE.INTRA.norm>
-0.0268458

>  <SCORE.RESTR>
0

>  <SCORE.RESTR.CAVITY>
0

>  <SCORE.RESTR.norm>
0

>  <SCORE.SYSTEM>
0

>  <SCORE.SYSTEM.CONST>
0

>  <SCORE.SYSTEM.DIHEDRAL>
0

>  <SCORE.SYSTEM.SOLV>
0

>  <SCORE.SYSTEM.norm>
0

>  <SCORE.heavy>
19

>  <SCORE.norm>
-0.576749

>  <RMSD>
7.052

$$$$
ligand
 OpenBabel11021811483D
libRbt.so/2013.1/901 2013/11/27
 19 21  0  0  0  0  0  0  0  0999 V2000
   18.5650   27.4500   33.6810 C   0  0  0  0  0  0  0  0  0  0  0  0
   18.8293   28.3256   32.5711 O   0  0  0  0  0  0  0  0  0  0  0  0
   19.1221   28.0245   34.9878 C   0  0  1  0  0  0  0  0  0  0  0  0
   20.5281   28.2451   34.8791 O   0  0  0  0  0  0  0  0  0  0  0  0
   18.4904   29.3598   35.3326 C   0  0  1  0  0  0  0  0  0  0  0  0
   18.1597   29.3562   36.7220 O   0  0  0  0  0  0  0  0  0  0  0  0
   19.5449   30.4140   35.0826 C   0  0  0  0  0  0  0  0  0  0  0  0
   20.8474   29.6425   34.9722 C   0  0  2  0  0  0  0  0  0  0  0  0
   23.9810   33.2993   33.0837 N   0  0  0  0  0  0  0  0  0  0  0  0
   23.3475   33.2050   34.2776 C   0  0  2  0  0  0  0  0  0  0  0  0
   23.5010   34.1741   35.2044 N   0  0  0  0  0  0  0  0  0  0  0  0
   22.5548   32.1542   34.5767 N   0  0  0  0  0  0  0  0  0  0  0  0
   22.3560   31.1493   33.6998 C   0  0  1  0  0  0  0  0  0  0  0  0
   22.9634   31.1801   32.4657 C   0  0  1  0  0  0  0  0  0  0  0  0
   23.8341   32.3389   32.1487 C   0  0  0  0  0  0  0  0  0  0  0  0
   24.4115   32.4254   31.0425 O   0  0  0  0  0  0  0  0  0  0  0  0
   22.5990   30.0689   31.8031 N   0  0  0  0  0  0  0  0  0  0  0  0
   21.7793   29.3702   32.6221 C   0  0  0  0  0  0  0  0  0  0  0  0
   21.6398   30.0394   33.7778 N   0  0  1  0  0  0  0  0  0  0  0  0
  1  2  1  0  0  0  0
  3  1  1  6  0  0  0
  3  4  1  0  0  0  0
  3  5  1  0  0  0  0
  5  6  1  1  0  0  0
  5  7  1  0  0  0  0
  7  8  1  0  0  0  0
  8  4  1  6  0  0  0
  8 19  1  0  0  0  0
  9 15  1  0  0  0  0
  9 10  1  0  0  0  0
 10 11  1  1  0  0  0
 10 12  1  0  0  0  0
 13 12  1  1  0  0  0
 13 14  1  0  0  0  0
 13 19  1  0  0  0  0
 14 15  1  1  0  0  0
 14 17  1  0  0  0  0
 15 16  2  0  0  0  0
 17 18  1  0  0  0  0
 19 18  1  1  0  0  0
M  END
>  <CHROM.1>
-58.07668941,-163.19867538,21.36206543,30.49135256,33.85359611,-2.98692661
0.74363461,0.92114823

>  <Name>
ligand

>  <RI>
0

>  <Rbt.Current_Directory>
/home/itssahil/PROJECTS/Mol_Feturizer/New_Systems/rnas/3SKL

>  <Rbt.Executable>
rbdock ($Id: //depot/dev/client3/rdock/2013.1/src/exe/rbdock.cxx#4 $)

>  <Rbt.Library>
libRbt.so (2013.1, Build901 2013/11/27)

>  <Rbt.Parameter_File>
/export/apps/rDock/src/rDock_2013.1_src/data/scripts/dock_solv.prm

>  <Rbt.Receptor>
prm/pocket_docking_7.prm

>  <SCORE>
-13.4173

>  <SCORE.INTER>
-12.8682

>  <SCORE.INTER.CONST>
1

>  <SCORE.INTER.POLAR>
0

>  <SCORE.INTER.ROT>
2

>  <SCORE.INTER.SOLV>
12.9132

>  <SCORE.INTER.VDW>
-17.8165

>  <SCORE.INTER.norm>
-0.677274

>  <SCORE.INTRA>
-0.549048

>  <SCORE.INTRA.DIHEDRAL>
-0.265385

>  <SCORE.INTRA.DIHEDRAL.0>
1.50031

>  <SCORE.INTRA.POLAR>
0

>  <SCORE.INTRA.POLAR.0>
0

>  <SCORE.INTRA.REPUL>
0

>  <SCORE.INTRA.REPUL.0>
0

>  <SCORE.INTRA.SOLV>
0.0213561

>  <SCORE.INTRA.SOLV.lig_0>
-37.9941

>  <SCORE.INTRA.VDW>
-0.427033

>  <SCORE.INTRA.VDW.0>
-0.964461

>  <SCORE.INTRA.norm>
-0.0288972

>  <SCORE.RESTR>
0

>  <SCORE.RESTR.CAVITY>
0

>  <SCORE.RESTR.norm>
0

>  <SCORE.SYSTEM>
0

>  <SCORE.SYSTEM.CONST>
0

>  <SCORE.SYSTEM.DIHEDRAL>
0

>  <SCORE.SYSTEM.SOLV>
0

>  <SCORE.SYSTEM.norm>
0

>  <SCORE.heavy>
19

>  <SCORE.norm>
-0.706171

>  <RMSD>
7.090

$$$$
ligand
 OpenBabel11021811483D
libRbt.so/2013.1/901 2013/11/27
 19 21  0  0  0  0  0  0  0  0999 V2000
   18.5789   27.4447   33.6694 C   0  0  0  0  0  0  0  0  0  0  0  0
   18.8302   28.3314   32.5653 O   0  0  0  0  0  0  0  0  0  0  0  0
   19.1357   28.0144   34.9784 C   0  0  1  0  0  0  0  0  0  0  0  0
   20.5408   28.2402   34.8692 O   0  0  0  0  0  0  0  0  0  0  0  0
   18.5000   29.3458   35.3308 C   0  0  1  0  0  0  0  0  0  0  0  0
   18.1710   29.3340   36.7206 O   0  0  0  0  0  0  0  0  0  0  0  0
   19.5507   30.4048   35.0849 C   0  0  0  0  0  0  0  0  0  0  0  0
   20.8556   29.6382   34.9690 C   0  0  2  0  0  0  0  0  0  0  0  0
   23.9841   33.3091   33.0996 N   0  0  0  0  0  0  0  0  0  0  0  0
   23.3533   33.2061   34.2942 C   0  0  2  0  0  0  0  0  0  0  0  0
   23.5087   34.1686   35.2276 N   0  0  0  0  0  0  0  0  0  0  0  0
   22.5616   32.1530   34.5875 N   0  0  0  0  0  0  0  0  0  0  0  0
   22.3609   31.1544   33.7040 C   0  0  1  0  0  0  0  0  0  0  0  0
   22.9656   31.1941   32.4687 C   0  0  1  0  0  0  0  0  0  0  0  0
   23.8353   32.3554   32.1581 C   0  0  0  0  0  0  0  0  0  0  0  0
   24.4102   32.4500   31.0512 O   0  0  0  0  0  0  0  0  0  0  0  0
   22.5999   30.0877   31.7991 N   0  0  0  0  0  0  0  0  0  0  0  0
   21.7822   29.3829   32.6149 C   0  0  0  0  0  0  0  0  0  0  0  0
   21.6452   30.0438   33.7756 N   0  0  1  0  0  0  0  0  0  0  0  0
  1  2  1  0  0  0  0
  3  1  1  6  0  0  0
  3  4  1  0  0  0  0
  3  5  1  0  0  0  0
  5  6  1  1  0  0  0
  5  7  1  0  0  0  0
  7  8  1  0  0  0  0
  8  4  1  6  0  0  0
  8 19  1  0  0  0  0
  9 15  1  0  0  0  0
  9 10  1  0  0  0  0
 10 11  1  1  0  0  0
 10 12  1  0  0  0  0
 13 12  1  1  0  0  0
 13 14  1  0  0  0  0
 13 19  1  0  0  0  0
 14 15  1  1  0  0  0
 14 17  1  0  0  0  0
 15 16  2  0  0  0  0
 17 18  1  0  0  0  0
 19 18  1  1  0  0  0
M  END
>  <CHROM.1>
-58.50386024,-162.97612724,21.36819921,30.49303403,33.85538795,-2.98821369
0.74577651,0.92924891

>  <Name>
ligand

>  <RI>
0

>  <Rbt.Current_Directory>
/home/itssahil/PROJECTS/Mol_Feturizer/New_Systems/rnas/3SKL

>  <Rbt.Executable>
rbdock ($Id: //depot/dev/client3/rdock/2013.1/src/exe/rbdock.cxx#4 $)

>  <Rbt.Library>
libRbt.so (2013.1, Build901 2013/11/27)

>  <Rbt.Parameter_File>
/export/apps/rDock/src/rDock_2013.1_src/data/scripts/dock_solv.prm

>  <Rbt.Receptor>
prm/pocket_docking_7.prm

>  <SCORE>
-13.4257

>  <SCORE.INTER>
-12.8747

>  <SCORE.INTER.CONST>
1

>  <SCORE.INTER.POLAR>
0

>  <SCORE.INTER.ROT>
2

>  <SCORE.INTER.SOLV>
12.9215

>  <SCORE.INTER.VDW>
-17.8236

>  <SCORE.INTER.norm>
-0.677614

>  <SCORE.INTRA>
-0.551068

>  <SCORE.INTRA.DIHEDRAL>
-0.2706

>  <SCORE.INTRA.DIHEDRAL.0>
1.50031

>  <SCORE.INTRA.POLAR>
0

>  <SCORE.INTRA.POLAR.0>
0

>  <SCORE.INTRA.REPUL>
0

>  <SCORE.INTRA.REPUL.0>
0

>  <SCORE.INTRA.SOLV>
0.0204171

>  <SCORE.INTRA.SOLV.lig_0>
-37.9941

>  <SCORE.INTRA.VDW>
-0.425977

>  <SCORE.INTRA.VDW.0>
-0.964461

>  <SCORE.INTRA.norm>
-0.0290036

>  <SCORE.RESTR>
0

>  <SCORE.RESTR.CAVITY>
0

>  <SCORE.RESTR.norm>
0

>  <SCORE.SYSTEM>
0

>  <SCORE.SYSTEM.CONST>
0

>  <SCORE.SYSTEM.DIHEDRAL>
0

>  <SCORE.SYSTEM.SOLV>
0

>  <SCORE.SYSTEM.norm>
0

>  <SCORE.heavy>
19

>  <SCORE.norm>
-0.706617

>  <RMSD>
7.092

$$$$
ligand
 OpenBabel11021811483D
libRbt.so/2013.1/901 2013/11/27
 19 21  0  0  0  0  0  0  0  0999 V2000
   17.3673   28.7596   35.2996 C   0  0  0  0  0  0  0  0  0  0  0  0
   16.1627   28.5558   34.5406 O   0  0  0  0  0  0  0  0  0  0  0  0
   18.6114   28.6255   34.4153 C   0  0  1  0  0  0  0  0  0  0  0  0
   18.6946   27.3119   33.8632 O   0  0  0  0  0  0  0  0  0  0  0  0
   18.5826   29.5945   33.2487 C   0  0  1  0  0  0  0  0  0  0  0  0
   19.8728   30.1955   33.1303 O   0  0  0  0  0  0  0  0  0  0  0  0
   18.3099   28.7714   32.0100 C   0  0  0  0  0  0  0  0  0  0  0  0
   18.5666   27.3364   32.4326 C   0  0  2  0  0  0  0  0  0  0  0  0
   17.4428   23.1900   29.5511 N   0  0  0  0  0  0  0  0  0  0  0  0
   18.6072   23.8614   29.7221 C   0  0  2  0  0  0  0  0  0  0  0  0
   19.7239   23.4547   29.0824 N   0  0  0  0  0  0  0  0  0  0  0  0
   18.6889   24.9422   30.5266 N   0  0  0  0  0  0  0  0  0  0  0  0
   17.6144   25.4044   31.1973 C   0  0  1  0  0  0  0  0  0  0  0  0
   16.3974   24.7756   31.0682 C   0  0  1  0  0  0  0  0  0  0  0  0
   16.3199   23.5875   30.1828 C   0  0  0  0  0  0  0  0  0  0  0  0
   15.2413   22.9748   30.0224 O   0  0  0  0  0  0  0  0  0  0  0  0
   15.5134   25.4347   31.8367 N   0  0  0  0  0  0  0  0  0  0  0  0
   16.1823   26.4526   32.4260 C   0  0  0  0  0  0  0  0  0  0  0  0
   17.4646   26.4227   32.0288 N   0  0  1  0  0  0  0  0  0  0  0  0
  1  2  1  0  0  0  0
  3  1  1  6  0  0  0
  3  4  1  0  0  0  0
  3  5  1  0  0  0  0
  5  6  1  6  0  0  0
  5  7  1  0  0  0  0
  7  8  1  0  0  0  0
  8  4  1  1  0  0  0
  8 19  1  0  0  0  0
  9 15  1  0  0  0  0
  9 10  1  0  0  0  0
 10 11  1  1  0  0  0
 10 12  1  0  0  0  0
 13 12  1  1  0  0  0
 13 14  1  0  0  0  0
 13 19  1  0  0  0  0
 14 15  1  1  0  0  0
 14 17  1  0  0  0  0
 15 16  2  0  0  0  0
 17 18  1  0  0  0  0
 19 18  1  1  0  0  0
M  END
>  <CHROM.1>
-61.73001175,-122.43535270,17.65926510,26.35855464,31.97729197,1.40529881
0.36833715,0.69436468

>  <Name>
ligand

>  <RI>
0

>  <Rbt.Current_Directory>
/home/itssahil/PROJECTS/Mol_Feturizer/New_Systems/rnas/3SKL

>  <Rbt.Executable>
rbdock ($Id: //depot/dev/client3/rdock/2013.1/src/exe/rbdock.cxx#4 $)

>  <Rbt.Library>
libRbt.so (2013.1, Build901 2013/11/27)

>  <Rbt.Parameter_File>
/export/apps/rDock/src/rDock_2013.1_src/data/scripts/dock_solv.prm

>  <Rbt.Receptor>
prm/pocket_docking_8.prm

>  <SCORE>
-10.96

>  <SCORE.INTER>
-10.4222

>  <SCORE.INTER.CONST>
1

>  <SCORE.INTER.POLAR>
0

>  <SCORE.INTER.ROT>
2

>  <SCORE.INTER.SOLV>
11.2497

>  <SCORE.INTER.VDW>
-15.6314

>  <SCORE.INTER.norm>
-0.548538

>  <SCORE.INTRA>
-0.537749

>  <SCORE.INTRA.DIHEDRAL>
-0.284236

>  <SCORE.INTRA.DIHEDRAL.0>
1.50031

>  <SCORE.INTRA.POLAR>
0

>  <SCORE.INTRA.POLAR.0>
0

>  <SCORE.INTRA.REPUL>
0

>  <SCORE.INTRA.REPUL.0>
0

>  <SCORE.INTRA.SOLV>
0.0346595

>  <SCORE.INTRA.SOLV.lig_0>
-37.9941

>  <SCORE.INTRA.VDW>
-0.412961

>  <SCORE.INTRA.VDW.0>
-0.964461

>  <SCORE.INTRA.norm>
-0.0283026

>  <SCORE.RESTR>
0

>  <SCORE.RESTR.CAVITY>
0

>  <SCORE.RESTR.norm>
0

>  <SCORE.SYSTEM>
0

>  <SCORE.SYSTEM.CONST>
0

>  <SCORE.SYSTEM.DIHEDRAL>
0

>  <SCORE.SYSTEM.SOLV>
0

>  <SCORE.SYSTEM.norm>
0

>  <SCORE.heavy>
19

>  <SCORE.norm>
-0.576841

>  <RMSD>
7.097

$$$$
ligand
 OpenBabel11021811483D
libRbt.so/2013.1/901 2013/11/27
 19 21  0  0  0  0  0  0  0  0999 V2000
   19.0598   30.0603   34.5886 C   0  0  0  0  0  0  0  0  0  0  0  0
   19.6275   31.2998   34.1304 O   0  0  0  0  0  0  0  0  0  0  0  0
   17.8395   29.6640   33.7508 C   0  0  1  0  0  0  0  0  0  0  0  0
   18.2137   29.4505   32.3900 O   0  0  0  0  0  0  0  0  0  0  0  0
   17.2101   28.3749   34.2438 C   0  0  1  0  0  0  0  0  0  0  0  0
   15.7932   28.5505   34.2798 O   0  0  0  0  0  0  0  0  0  0  0  0
   17.5463   27.3119   33.2226 C   0  0  0  0  0  0  0  0  0  0  0  0
   18.0209   28.0807   32.0029 C   0  0  2  0  0  0  0  0  0  0  0  0
   20.1557   24.0056   29.6376 N   0  0  0  0  0  0  0  0  0  0  0  0
   18.8862   24.2211   30.0590 C   0  0  2  0  0  0  0  0  0  0  0  0
   17.9401   23.2773   29.8696 N   0  0  0  0  0  0  0  0  0  0  0  0
   18.5296   25.3698   30.6716 N   0  0  0  0  0  0  0  0  0  0  0  0
   19.4214   26.3565   30.8935 C   0  0  1  0  0  0  0  0  0  0  0  0
   20.7302   26.2056   30.4969 C   0  0  1  0  0  0  0  0  0  0  0  0
   21.1103   24.9397   29.8227 C   0  0  0  0  0  0  0  0  0  0  0  0
   22.2851   24.7421   29.4415 O   0  0  0  0  0  0  0  0  0  0  0  0
   21.3914   27.3258   30.8354 N   0  0  0  0  0  0  0  0  0  0  0  0
   20.4977   28.1485   31.4313 C   0  0  0  0  0  0  0  0  0  0  0  0
   19.2980   27.5461   31.4596 N   0  0  1  0  0  0  0  0  0  0  0  0
  1  2  1  0  0  0  0
  3  1  1  1  0  0  0
  3  4  1  0  0  0  0
  3  5  1  0  0  0  0
  5  6  1  6  0  0  0
  5  7  1  0  0  0  0
  7  8  1  0  0  0  0
  8  4  1  1  0  0  0
  8 19  1  0  0  0  0
  9 15  1  0  0  0  0
  9 10  1  0  0  0  0
 10 11  1  6  0  0  0
 10 12  1  0  0  0  0
 13 12  1  6  0  0  0
 13 14  1  0  0  0  0
 13 19  1  0  0  0  0
 14 15  1  6  0  0  0
 14 17  1  0  0  0  0
 15 16  2  0  0  0  0
 17 18  1  0  0  0  0
 19 18  1  6  0  0  0
M  END
>  <CHROM.1>
62.28509160,-173.00689397,19.10809389,27.16973280,31.80211419,-1.93666467
-0.36559408,-2.59256002

>  <Name>
ligand

>  <RI>
0

>  <Rbt.Current_Directory>
/home/itssahil/PROJECTS/Mol_Feturizer/New_Systems/rnas/3SKL

>  <Rbt.Executable>
rbdock ($Id: //depot/dev/client3/rdock/2013.1/src/exe/rbdock.cxx#4 $)

>  <Rbt.Library>
libRbt.so (2013.1, Build901 2013/11/27)

>  <Rbt.Parameter_File>
/export/apps/rDock/src/rDock_2013.1_src/data/scripts/dock_solv.prm

>  <Rbt.Receptor>
prm/pocket_docking_6.prm

>  <SCORE>
-12.2494

>  <SCORE.INTER>
-11.7918

>  <SCORE.INTER.CONST>
1

>  <SCORE.INTER.POLAR>
0

>  <SCORE.INTER.ROT>
2

>  <SCORE.INTER.SOLV>
14.9908

>  <SCORE.INTER.VDW>
-17.7915

>  <SCORE.INTER.norm>
-0.62062

>  <SCORE.INTRA>
-0.457639

>  <SCORE.INTRA.DIHEDRAL>
-0.270218

>  <SCORE.INTRA.DIHEDRAL.0>
1.50031

>  <SCORE.INTRA.POLAR>
0

>  <SCORE.INTRA.POLAR.0>
0

>  <SCORE.INTRA.REPUL>
0

>  <SCORE.INTRA.REPUL.0>
0

>  <SCORE.INTRA.SOLV>
-0.568668

>  <SCORE.INTRA.SOLV.lig_0>
-37.9941

>  <SCORE.INTRA.VDW>
-0.0381955

>  <SCORE.INTRA.VDW.0>
-0.964461

>  <SCORE.INTRA.norm>
-0.0240862

>  <SCORE.RESTR>
0

>  <SCORE.RESTR.CAVITY>
0

>  <SCORE.RESTR.norm>
0

>  <SCORE.SYSTEM>
0

>  <SCORE.SYSTEM.CONST>
0

>  <SCORE.SYSTEM.DIHEDRAL>
0

>  <SCORE.SYSTEM.SOLV>
0

>  <SCORE.SYSTEM.norm>
0

>  <SCORE.heavy>
19

>  <SCORE.norm>
-0.644707

>  <RMSD>
7.247

$$$$
ligand
 OpenBabel11021811483D
libRbt.so/2013.1/901 2013/11/27
 19 21  0  0  0  0  0  0  0  0999 V2000
   16.3248   27.2377   31.8851 C   0  0  0  0  0  0  0  0  0  0  0  0
   15.9095   25.9442   32.3576 O   0  0  0  0  0  0  0  0  0  0  0  0
   17.4030   27.8412   32.7912 C   0  0  1  0  0  0  0  0  0  0  0  0
   18.5284   26.9678   32.8813 O   0  0  0  0  0  0  0  0  0  0  0  0
   17.9133   29.1661   32.2571 C   0  0  1  0  0  0  0  0  0  0  0  0
   17.9943   30.0888   33.3442 O   0  0  0  0  0  0  0  0  0  0  0  0
   19.3058   28.9106   31.7264 C   0  0  0  0  0  0  0  0  0  0  0  0
   19.7013   27.5642   32.3049 C   0  0  2  0  0  0  0  0  0  0  0  0
   18.5009   23.6561   29.1358 N   0  0  0  0  0  0  0  0  0  0  0  0
   17.7481   24.3262   30.0412 C   0  0  2  0  0  0  0  0  0  0  0  0
   16.4499   24.0008   30.2165 N   0  0  0  0  0  0  0  0  0  0  0  0
   18.2623   25.3275   30.7861 N   0  0  0  0  0  0  0  0  0  0  0  0
   19.5505   25.7069   30.6640 C   0  0  1  0  0  0  0  0  0  0  0  0
   20.3760   25.0679   29.7677 C   0  0  1  0  0  0  0  0  0  0  0  0
   19.7993   23.9702   28.9528 C   0  0  0  0  0  0  0  0  0  0  0  0
   20.4998   23.3494   28.1230 O   0  0  0  0  0  0  0  0  0  0  0  0
   21.5893   25.6402   29.8500 N   0  0  0  0  0  0  0  0  0  0  0  0
   21.5050   26.6147   30.7849 C   0  0  0  0  0  0  0  0  0  0  0  0
   20.2548   26.6466   31.2736 N   0  0  1  0  0  0  0  0  0  0  0  0
  1  2  1  0  0  0  0
  3  1  1  6  0  0  0
  3  4  1  0  0  0  0
  3  5  1  0  0  0  0
  5  6  1  1  0  0  0
  5  7  1  0  0  0  0
  7  8  1  0  0  0  0
  8  4  1  6  0  0  0
  8 19  1  0  0  0  0
  9 15  1  0  0  0  0
  9 10  1  0  0  0  0
 10 11  1  6  0  0  0
 10 12  1  0  0  0  0
 13 12  1  6  0  0  0
 13 14  1  0  0  0  0
 13 19  1  0  0  0  0
 14 15  1  6  0  0  0
 14 17  1  0  0  0  0
 15 16  2  0  0  0  0
 17 18  1  0  0  0  0
 19 18  1  6  0  0  0
M  END
>  <CHROM.1>
57.33397750,21.90030221,18.77204481,26.24230787,31.04858350,1.89943287,0.26117648
0.58128267

>  <Name>
ligand

>  <RI>
0

>  <Rbt.Current_Directory>
/home/itssahil/PROJECTS/Mol_Feturizer/New_Systems/rnas/3SKL

>  <Rbt.Executable>
rbdock ($Id: //depot/dev/client3/rdock/2013.1/src/exe/rbdock.cxx#4 $)

>  <Rbt.Library>
libRbt.so (2013.1, Build901 2013/11/27)

>  <Rbt.Parameter_File>
/export/apps/rDock/src/rDock_2013.1_src/data/scripts/dock_solv.prm

>  <Rbt.Receptor>
prm/pocket_docking_7.prm

>  <SCORE>
-11.7749

>  <SCORE.INTER>
-12.2705

>  <SCORE.INTER.CONST>
1

>  <SCORE.INTER.POLAR>
0

>  <SCORE.INTER.ROT>
2

>  <SCORE.INTER.SOLV>
11.9484

>  <SCORE.INTER.VDW>
-17.0964

>  <SCORE.INTER.norm>
-0.645813

>  <SCORE.INTRA>
0.481922

>  <SCORE.INTRA.DIHEDRAL>
-0.295864

>  <SCORE.INTRA.DIHEDRAL.0>
1.50031

>  <SCORE.INTRA.POLAR>
0

>  <SCORE.INTRA.POLAR.0>
0

>  <SCORE.INTRA.REPUL>
0

>  <SCORE.INTRA.REPUL.0>
0

>  <SCORE.INTRA.SOLV>
2.53842

>  <SCORE.INTRA.SOLV.lig_0>
-37.9941

>  <SCORE.INTRA.VDW>
-0.639356

>  <SCORE.INTRA.VDW.0>
-0.964461

>  <SCORE.INTRA.norm>
0.0253643

>  <SCORE.RESTR>
0.0136242

>  <SCORE.RESTR.CAVITY>
0.0136242

>  <SCORE.RESTR.norm>
0.000717064

>  <SCORE.SYSTEM>
0

>  <SCORE.SYSTEM.CONST>
0

>  <SCORE.SYSTEM.DIHEDRAL>
0

>  <SCORE.SYSTEM.SOLV>
0

>  <SCORE.SYSTEM.norm>
0

>  <SCORE.heavy>
19

>  <SCORE.norm>
-0.619732

>  <RMSD>
7.334

$$$$
ligand
 OpenBabel11021811483D
libRbt.so/2013.1/901 2013/11/27
 19 21  0  0  0  0  0  0  0  0999 V2000
   19.3668   29.8364   34.3038 C   0  0  0  0  0  0  0  0  0  0  0  0
   20.0508   30.9643   33.7305 O   0  0  0  0  0  0  0  0  0  0  0  0
   18.1121   29.4793   33.4999 C   0  0  1  0  0  0  0  0  0  0  0  0
   18.4579   29.1309   32.1596 O   0  0  0  0  0  0  0  0  0  0  0  0
   17.3816   28.2889   34.0917 C   0  0  1  0  0  0  0  0  0  0  0  0
   15.9843   28.5838   34.1148 O   0  0  0  0  0  0  0  0  0  0  0  0
   17.6215   27.1259   33.1559 C   0  0  0  0  0  0  0  0  0  0  0  0
   18.1496   27.7561   31.8801 C   0  0  2  0  0  0  0  0  0  0  0  0
   19.8582   23.5424   29.4135 N   0  0  0  0  0  0  0  0  0  0  0  0
   18.6056   23.9107   29.7755 C   0  0  2  0  0  0  0  0  0  0  0  0
   17.5545   23.1164   29.4822 N   0  0  0  0  0  0  0  0  0  0  0  0
   18.3698   25.0672   30.4304 N   0  0  0  0  0  0  0  0  0  0  0  0
   19.3710   25.9098   30.7556 C   0  0  1  0  0  0  0  0  0  0  0  0
   20.6697   25.5988   30.4241 C   0  0  1  0  0  0  0  0  0  0  0  0
   20.9167   24.3261   29.7026 C   0  0  0  0  0  0  0  0  0  0  0  0
   22.0756   23.9866   29.3764 O   0  0  0  0  0  0  0  0  0  0  0  0
   21.4535   26.5998   30.8602 N   0  0  0  0  0  0  0  0  0  0  0  0
   20.6436   27.5087   31.4506 C   0  0  0  0  0  0  0  0  0  0  0  0
   19.3743   27.0768   31.3792 N   0  0  1  0  0  0  0  0  0  0  0  0
  1  2  1  0  0  0  0
  3  1  1  1  0  0  0
  3  4  1  0  0  0  0
  3  5  1  0  0  0  0
  5  6  1  6  0  0  0
  5  7  1  0  0  0  0
  7  8  1  0  0  0  0
  8  4  1  1  0  0  0
  8 19  1  0  0  0  0
  9 15  1  0  0  0  0
  9 10  1  0  0  0  0
 10 11  1  6  0  0  0
 10 12  1  0  0  0  0
 13 12  1  6  0  0  0
 13 14  1  0  0  0  0
 13 19  1  0  0  0  0
 14 15  1  6  0  0  0
 14 17  1  0  0  0  0
 15 16  2  0  0  0  0
 17 18  1  0  0  0  0
 19 18  1  6  0  0  0
M  END
>  <CHROM.1>
60.80693251,-164.21755860,19.13896211,26.79952443,31.62826037,-1.84105611
-0.27158430,-2.56591540

>  <Name>
ligand

>  <RI>
0

>  <Rbt.Current_Directory>
/home/itssahil/PROJECTS/Mol_Feturizer/New_Systems/rnas/3SKL

>  <Rbt.Executable>
rbdock ($Id: //depot/dev/client3/rdock/2013.1/src/exe/rbdock.cxx#4 $)

>  <Rbt.Library>
libRbt.so (2013.1, Build901 2013/11/27)

>  <Rbt.Parameter_File>
/export/apps/rDock/src/rDock_2013.1_src/data/scripts/dock_solv.prm

>  <Rbt.Receptor>
prm/blind_docking_80.prm

>  <SCORE>
-12.4377

>  <SCORE.INTER>
-11.8578

>  <SCORE.INTER.CONST>
1

>  <SCORE.INTER.POLAR>
0

>  <SCORE.INTER.ROT>
2

>  <SCORE.INTER.SOLV>
12.2068

>  <SCORE.INTER.VDW>
-16.9075

>  <SCORE.INTER.norm>
-0.624095

>  <SCORE.INTRA>
-0.57985

>  <SCORE.INTRA.DIHEDRAL>
-0.277629

>  <SCORE.INTRA.DIHEDRAL.0>
1.50031

>  <SCORE.INTRA.POLAR>
0

>  <SCORE.INTRA.POLAR.0>
0

>  <SCORE.INTRA.REPUL>
0

>  <SCORE.INTRA.REPUL.0>
0

>  <SCORE.INTRA.SOLV>
-0.560096

>  <SCORE.INTRA.SOLV.lig_0>
-37.9941

>  <SCORE.INTRA.VDW>
-0.160987

>  <SCORE.INTRA.VDW.0>
-0.964461

>  <SCORE.INTRA.norm>
-0.0305184

>  <SCORE.RESTR>
0

>  <SCORE.RESTR.CAVITY>
0

>  <SCORE.RESTR.norm>
0

>  <SCORE.SYSTEM>
0

>  <SCORE.SYSTEM.CONST>
0

>  <SCORE.SYSTEM.DIHEDRAL>
0

>  <SCORE.SYSTEM.SOLV>
0

>  <SCORE.SYSTEM.norm>
0

>  <SCORE.heavy>
19

>  <SCORE.norm>
-0.654613

>  <RMSD>
7.355

$$$$
ligand
 OpenBabel11021811483D
libRbt.so/2013.1/901 2013/11/27
 19 21  0  0  0  0  0  0  0  0999 V2000
   19.3786   29.8357   34.3173 C   0  0  0  0  0  0  0  0  0  0  0  0
   20.0713   30.9660   33.7594 O   0  0  0  0  0  0  0  0  0  0  0  0
   18.1307   29.4885   33.4987 C   0  0  1  0  0  0  0  0  0  0  0  0
   18.4880   29.1517   32.1585 O   0  0  0  0  0  0  0  0  0  0  0  0
   17.3925   28.2942   34.0729 C   0  0  1  0  0  0  0  0  0  0  0  0
   15.9957   28.5916   34.0859 O   0  0  0  0  0  0  0  0  0  0  0  0
   17.6388   27.1393   33.1286 C   0  0  0  0  0  0  0  0  0  0  0  0
   18.1797   27.7801   31.8635 C   0  0  2  0  0  0  0  0  0  0  0  0
   19.9082   23.5582   29.4252 N   0  0  0  0  0  0  0  0  0  0  0  0
   18.6539   23.9232   29.7842 C   0  0  2  0  0  0  0  0  0  0  0  0
   17.6065   23.1223   29.4956 N   0  0  0  0  0  0  0  0  0  0  0  0
   18.4126   25.0828   30.4315 N   0  0  0  0  0  0  0  0  0  0  0  0
   19.4099   25.9320   30.7516 C   0  0  1  0  0  0  0  0  0  0  0  0
   20.7101   25.6247   30.4227 C   0  0  1  0  0  0  0  0  0  0  0  0
   20.9631   24.3484   29.7096 C   0  0  0  0  0  0  0  0  0  0  0  0
   22.1236   24.0120   29.3862 O   0  0  0  0  0  0  0  0  0  0  0  0
   21.4892   26.6319   30.8526 N   0  0  0  0  0  0  0  0  0  0  0  0
   20.6750   27.5411   31.4368 C   0  0  0  0  0  0  0  0  0  0  0  0
   19.4076   27.1031   31.3676 N   0  0  1  0  0  0  0  0  0  0  0  0
  1  2  1  0  0  0  0
  3  1  1  1  0  0  0
  3  4  1  0  0  0  0
  3  5  1  0  0  0  0
  5  6  1  6  0  0  0
  5  7  1  0  0  0  0
  7  8  1  0  0  0  0
  8  4  1  1  0  0  0
  8 19  1  0  0  0  0
  9 15  1  0  0  0  0
  9 10  1  0  0  0  0
 10 11  1  6  0  0  0
 10 12  1  0  0  0  0
 13 12  1  6  0  0  0
 13 14  1  0  0  0  0
 13 19  1  0  0  0  0
 14 15  1  6  0  0  0
 14 17  1  0  0  0  0
 15 16  2  0  0  0  0
 17 18  1  0  0  0  0
 19 18  1  6  0  0  0
M  END
>  <CHROM.1>
60.70803637,-165.30971278,19.17115150,26.81597004,31.62643999,-1.84616006
-0.26977793,-2.56715914

>  <Name>
ligand

>  <RI>
0

>  <Rbt.Current_Directory>
/home/itssahil/PROJECTS/Mol_Feturizer/New_Systems/rnas/3SKL

>  <Rbt.Executable>
rbdock ($Id: //depot/dev/client3/rdock/2013.1/src/exe/rbdock.cxx#4 $)

>  <Rbt.Library>
libRbt.so (2013.1, Build901 2013/11/27)

>  <Rbt.Parameter_File>
/export/apps/rDock/src/rDock_2013.1_src/data/scripts/dock_solv.prm

>  <Rbt.Receptor>
prm/pocket_docking_7.prm

>  <SCORE>
-12.4467

>  <SCORE.INTER>
-11.8757

>  <SCORE.INTER.CONST>
1

>  <SCORE.INTER.POLAR>
0

>  <SCORE.INTER.ROT>
2

>  <SCORE.INTER.SOLV>
12.2822

>  <SCORE.INTER.VDW>
-16.9445

>  <SCORE.INTER.norm>
-0.625037

>  <SCORE.INTRA>
-0.571046

>  <SCORE.INTRA.DIHEDRAL>
-0.279217

>  <SCORE.INTRA.DIHEDRAL.0>
1.50031

>  <SCORE.INTRA.POLAR>
0

>  <SCORE.INTRA.POLAR.0>
0

>  <SCORE.INTRA.REPUL>
0

>  <SCORE.INTRA.REPUL.0>
0

>  <SCORE.INTRA.SOLV>
-0.559748

>  <SCORE.INTRA.SOLV.lig_0>
-37.9941

>  <SCORE.INTRA.VDW>
-0.151564

>  <SCORE.INTRA.VDW.0>
-0.964461

>  <SCORE.INTRA.norm>
-0.0300551

>  <SCORE.RESTR>
0

>  <SCORE.RESTR.CAVITY>
0

>  <SCORE.RESTR.norm>
0

>  <SCORE.SYSTEM>
0

>  <SCORE.SYSTEM.CONST>
0

>  <SCORE.SYSTEM.DIHEDRAL>
0

>  <SCORE.SYSTEM.SOLV>
0

>  <SCORE.SYSTEM.norm>
0

>  <SCORE.heavy>
19

>  <SCORE.norm>
-0.655092

>  <RMSD>
7.356

$$$$
ligand
 OpenBabel11021811483D
libRbt.so/2013.1/901 2013/11/27
 19 21  0  0  0  0  0  0  0  0999 V2000
   21.7017   29.4276   33.3346 C   0  0  0  0  0  0  0  0  0  0  0  0
   22.0444   28.0552   33.5952 O   0  0  0  0  0  0  0  0  0  0  0  0
   20.2785   29.5500   32.7801 C   0  0  1  0  0  0  0  0  0  0  0  0
   20.1961   28.9695   31.4787 O   0  0  0  0  0  0  0  0  0  0  0  0
   19.2686   28.8275   33.6512 C   0  0  1  0  0  0  0  0  0  0  0  0
   18.1311   29.6747   33.8194 O   0  0  0  0  0  0  0  0  0  0  0  0
   18.8495   27.5896   32.8910 C   0  0  0  0  0  0  0  0  0  0  0  0
   19.3266   27.8261   31.4697 C   0  0  2  0  0  0  0  0  0  0  0  0
   18.7393   23.0872   29.4807 N   0  0  0  0  0  0  0  0  0  0  0  0
   17.8255   23.9726   29.9461 C   0  0  2  0  0  0  0  0  0  0  0  0
   16.5115   23.6649   29.9237 N   0  0  0  0  0  0  0  0  0  0  0  0
   18.1922   25.1745   30.4391 N   0  0  0  0  0  0  0  0  0  0  0  0
   19.4864   25.5494   30.4918 C   0  0  1  0  0  0  0  0  0  0  0  0
   20.4700   24.6994   30.0412 C   0  0  1  0  0  0  0  0  0  0  0  0
   20.0549   23.3819   29.4996 C   0  0  0  0  0  0  0  0  0  0  0  0
   20.9025   22.5646   29.0773 O   0  0  0  0  0  0  0  0  0  0  0  0
   21.6518   25.3176   30.2071 N   0  0  0  0  0  0  0  0  0  0  0  0
   21.3924   26.5284   30.7526 C   0  0  0  0  0  0  0  0  0  0  0  0
   20.0666   26.6587   30.9204 N   0  0  1  0  0  0  0  0  0  0  0  0
  1  2  1  0  0  0  0
  3  1  1  1  0  0  0
  3  4  1  0  0  0  0
  3  5  1  0  0  0  0
  5  6  1  6  0  0  0
  5  7  1  0  0  0  0
  7  8  1  0  0  0  0
  8  4  1  1  0  0  0
  8 19  1  0  0  0  0
  9 15  1  0  0  0  0
  9 10  1  0  0  0  0
 10 11  1  6  0  0  0
 10 12  1  0  0  0  0
 13 12  1  6  0  0  0
 13 14  1  0  0  0  0
 13 19  1  0  0  0  0
 14 15  1  6  0  0  0
 14 17  1  0  0  0  0
 15 16  2  0  0  0  0
 17 18  1  0  0  0  0
 19 18  1  6  0  0  0
M  END
>  <CHROM.1>
-67.31054363,-163.77950349,19.75657612,26.40396783,31.30207475,-1.42967331
-0.06442663,-2.56087901

>  <Name>
ligand

>  <RI>
0

>  <Rbt.Current_Directory>
/home/itssahil/PROJECTS/Mol_Feturizer/New_Systems/rnas/3SKL

>  <Rbt.Executable>
rbdock ($Id: //depot/dev/client3/rdock/2013.1/src/exe/rbdock.cxx#4 $)

>  <Rbt.Library>
libRbt.so (2013.1, Build901 2013/11/27)

>  <Rbt.Parameter_File>
/export/apps/rDock/src/rDock_2013.1_src/data/scripts/dock_solv.prm

>  <Rbt.Receptor>
prm/pocket_docking_7.prm

>  <SCORE>
-11.267

>  <SCORE.INTER>
-10.891

>  <SCORE.INTER.CONST>
1

>  <SCORE.INTER.POLAR>
0

>  <SCORE.INTER.ROT>
2

>  <SCORE.INTER.SOLV>
9.84323

>  <SCORE.INTER.VDW>
-15.4751

>  <SCORE.INTER.norm>
-0.573213

>  <SCORE.INTRA>
-0.375994

>  <SCORE.INTRA.DIHEDRAL>
-0.0910983

>  <SCORE.INTRA.DIHEDRAL.0>
1.50031

>  <SCORE.INTRA.POLAR>
0

>  <SCORE.INTRA.POLAR.0>
0

>  <SCORE.INTRA.REPUL>
0

>  <SCORE.INTRA.REPUL.0>
0

>  <SCORE.INTRA.SOLV>
-0.0121881

>  <SCORE.INTRA.SOLV.lig_0>
-37.9941

>  <SCORE.INTRA.VDW>
-0.324351

>  <SCORE.INTRA.VDW.0>
-0.964461

>  <SCORE.INTRA.norm>
-0.0197892

>  <SCORE.RESTR>
0

>  <SCORE.RESTR.CAVITY>
0

>  <SCORE.RESTR.norm>
0

>  <SCORE.SYSTEM>
0

>  <SCORE.SYSTEM.CONST>
0

>  <SCORE.SYSTEM.DIHEDRAL>
0

>  <SCORE.SYSTEM.SOLV>
0

>  <SCORE.SYSTEM.norm>
0

>  <SCORE.heavy>
19

>  <SCORE.norm>
-0.593002

>  <RMSD>
7.385

$$$$
ligand
 OpenBabel11021811483D
libRbt.so/2013.1/901 2013/11/27
 19 21  0  0  0  0  0  0  0  0999 V2000
   19.5565   29.0269   31.7871 C   0  0  0  0  0  0  0  0  0  0  0  0
   18.1918   28.8750   31.3591 O   0  0  0  0  0  0  0  0  0  0  0  0
   19.6645   29.0169   33.3156 C   0  0  1  0  0  0  0  0  0  0  0  0
   21.0163   29.2248   33.7239 O   0  0  0  0  0  0  0  0  0  0  0  0
   18.8371   30.1199   33.9478 C   0  0  1  0  0  0  0  0  0  0  0  0
   18.1293   29.5709   35.0602 O   0  0  0  0  0  0  0  0  0  0  0  0
   19.8141   31.1576   34.4525 C   0  0  0  0  0  0  0  0  0  0  0  0
   21.1619   30.4597   34.4430 C   0  0  2  0  0  0  0  0  0  0  0  0
   24.0556   34.7136   34.9808 N   0  0  0  0  0  0  0  0  0  0  0  0
   23.0952   34.1882   35.7790 C   0  0  2  0  0  0  0  0  0  0  0  0
   22.7690   34.7982   36.9380 N   0  0  0  0  0  0  0  0  0  0  0  0
   22.4430   33.0537   35.4481 N   0  0  0  0  0  0  0  0  0  0  0  0
   22.7169   32.3907   34.3065 C   0  0  1  0  0  0  0  0  0  0  0  0
   23.6772   32.8682   33.4446 C   0  0  1  0  0  0  0  0  0  0  0  0
   24.3891   34.1149   33.8196 C   0  0  0  0  0  0  0  0  0  0  0  0
   25.2703   34.6002   33.0763 O   0  0  0  0  0  0  0  0  0  0  0  0
   23.7460   32.0238   32.4012 N   0  0  0  0  0  0  0  0  0  0  0  0
   22.8389   31.0448   32.6233 C   0  0  0  0  0  0  0  0  0  0  0  0
   22.2179   31.2791   33.7905 N   0  0  1  0  0  0  0  0  0  0  0  0
  1  2  1  0  0  0  0
  3  1  1  6  0  0  0
  3  4  1  0  0  0  0
  3  5  1  0  0  0  0
  5  6  1  1  0  0  0
  5  7  1  0  0  0  0
  7  8  1  0  0  0  0
  8  4  1  6  0  0  0
  8 19  1  0  0  0  0
  9 15  1  0  0  0  0
  9 10  1  0  0  0  0
 10 11  1  1  0  0  0
 10 12  1  0  0  0  0
 13 12  1  1  0  0  0
 13 14  1  0  0  0  0
 13 19  1  0  0  0  0
 14 15  1  1  0  0  0
 14 17  1  0  0  0  0
 15 16  2  0  0  0  0
 17 18  1  0  0  0  0
 19 18  1  1  0  0  0
M  END
>  <CHROM.1>
-177.56557079,-170.70586640,21.69467863,31.65152737,33.91009664,-2.55508510
0.58277464,0.98351723

>  <Name>
ligand

>  <RI>
0

>  <Rbt.Current_Directory>
/home/itssahil/PROJECTS/Mol_Feturizer/New_Systems/rnas/3SKL

>  <Rbt.Executable>
rbdock ($Id: //depot/dev/client3/rdock/2013.1/src/exe/rbdock.cxx#4 $)

>  <Rbt.Library>
libRbt.so (2013.1, Build901 2013/11/27)

>  <Rbt.Parameter_File>
/export/apps/rDock/src/rDock_2013.1_src/data/scripts/dock_solv.prm

>  <Rbt.Receptor>
prm/pocket_docking_7.prm

>  <SCORE>
-11.7378

>  <SCORE.INTER>
-11.4306

>  <SCORE.INTER.CONST>
1

>  <SCORE.INTER.POLAR>
0

>  <SCORE.INTER.ROT>
2

>  <SCORE.INTER.SOLV>
8.74039

>  <SCORE.INTER.VDW>
-15.4672

>  <SCORE.INTER.norm>
-0.60161

>  <SCORE.INTRA>
-0.307412

>  <SCORE.INTRA.DIHEDRAL>
-0.264873

>  <SCORE.INTRA.DIHEDRAL.0>
1.50031

>  <SCORE.INTRA.POLAR>
0

>  <SCORE.INTRA.POLAR.0>
0

>  <SCORE.INTRA.REPUL>
0

>  <SCORE.INTRA.REPUL.0>
0

>  <SCORE.INTRA.SOLV>
-0.451311

>  <SCORE.INTRA.SOLV.lig_0>
-37.9941

>  <SCORE.INTRA.VDW>
0.0506802

>  <SCORE.INTRA.VDW.0>
-0.964461

>  <SCORE.INTRA.norm>
-0.0161796

>  <SCORE.RESTR>
0.000225531

>  <SCORE.RESTR.CAVITY>
0.000225531

>  <SCORE.RESTR.norm>
1.18701e-05

>  <SCORE.SYSTEM>
0

>  <SCORE.SYSTEM.CONST>
0

>  <SCORE.SYSTEM.DIHEDRAL>
0

>  <SCORE.SYSTEM.SOLV>
0

>  <SCORE.SYSTEM.norm>
0

>  <SCORE.heavy>
19

>  <SCORE.norm>
-0.617777

>  <RMSD>
7.401

$$$$
ligand
 OpenBabel11021811483D
libRbt.so/2013.1/901 2013/11/27
 19 21  0  0  0  0  0  0  0  0999 V2000
   20.8245   27.9369   30.9595 C   0  0  0  0  0  0  0  0  0  0  0  0
   21.1569   29.2375   30.4431 O   0  0  0  0  0  0  0  0  0  0  0  0
   20.6788   27.9643   32.4846 C   0  0  1  0  0  0  0  0  0  0  0  0
   21.8619   28.4829   33.0918 O   0  0  0  0  0  0  0  0  0  0  0  0
   19.5299   28.8507   32.9266 C   0  0  1  0  0  0  0  0  0  0  0  0
   18.7922   28.1616   33.9368 O   0  0  0  0  0  0  0  0  0  0  0  0
   20.1488   30.0905   33.5315 C   0  0  0  0  0  0  0  0  0  0  0  0
   21.6026   29.7238   33.7675 C   0  0  2  0  0  0  0  0  0  0  0  0
   23.7061   34.3277   34.8338 N   0  0  0  0  0  0  0  0  0  0  0  0
   22.8083   33.5826   35.5224 C   0  0  2  0  0  0  0  0  0  0  0  0
   22.3248   34.0242   36.7027 N   0  0  0  0  0  0  0  0  0  0  0  0
   22.3746   32.3912   35.0595 N   0  0  0  0  0  0  0  0  0  0  0  0
   22.8147   31.8874   33.8888 C   0  0  1  0  0  0  0  0  0  0  0  0
   23.7238   32.5912   33.1330 C   0  0  1  0  0  0  0  0  0  0  0  0
   24.1950   33.8986   33.6527 C   0  0  0  0  0  0  0  0  0  0  0  0
   25.0188   34.5865   33.0102 O   0  0  0  0  0  0  0  0  0  0  0  0
   23.9875   31.8669   32.0320 N   0  0  0  0  0  0  0  0  0  0  0  0
   23.2483   30.7367   32.1148 C   0  0  0  0  0  0  0  0  0  0  0  0
   22.5375   30.7602   33.2537 N   0  0  1  0  0  0  0  0  0  0  0  0
  1  2  1  0  0  0  0
  3  1  1  6  0  0  0
  3  4  1  0  0  0  0
  3  5  1  0  0  0  0
  5  6  1  1  0  0  0
  5  7  1  0  0  0  0
  7  8  1  0  0  0  0
  8  4  1  6  0  0  0
  8 19  1  0  0  0  0
  9 15  1  0  0  0  0
  9 10  1  0  0  0  0
 10 11  1  1  0  0  0
 10 12  1  0  0  0  0
 13 12  1  1  0  0  0
 13 14  1  0  0  0  0
 13 19  1  0  0  0  0
 14 15  1  1  0  0  0
 14 17  1  0  0  0  0
 15 16  2  0  0  0  0
 17 18  1  0  0  0  0
 19 18  1  1  0  0  0
M  END
>  <CHROM.1>
-55.44357301,-161.13068222,22.13363093,31.05105609,33.35620881,-2.31615487
0.72685908,0.90477914

>  <Name>
ligand

>  <RI>
0

>  <Rbt.Current_Directory>
/home/itssahil/PROJECTS/Mol_Feturizer/New_Systems/rnas/3SKL

>  <Rbt.Executable>
rbdock ($Id: //depot/dev/client3/rdock/2013.1/src/exe/rbdock.cxx#4 $)

>  <Rbt.Library>
libRbt.so (2013.1, Build901 2013/11/27)

>  <Rbt.Parameter_File>
/export/apps/rDock/src/rDock_2013.1_src/data/scripts/dock_solv.prm

>  <Rbt.Receptor>
prm/pocket_docking_7.prm

>  <SCORE>
-14.0273

>  <SCORE.INTER>
-13.4906

>  <SCORE.INTER.CONST>
1

>  <SCORE.INTER.POLAR>
0

>  <SCORE.INTER.ROT>
2

>  <SCORE.INTER.SOLV>
12.3096

>  <SCORE.INTER.VDW>
-18.0302

>  <SCORE.INTER.norm>
-0.71003

>  <SCORE.INTRA>
-0.536712

>  <SCORE.INTRA.DIHEDRAL>
-0.201597

>  <SCORE.INTRA.DIHEDRAL.0>
1.50031

>  <SCORE.INTRA.POLAR>
0

>  <SCORE.INTRA.POLAR.0>
0

>  <SCORE.INTRA.REPUL>
0

>  <SCORE.INTRA.REPUL.0>
0

>  <SCORE.INTRA.SOLV>
0.0307524

>  <SCORE.INTRA.SOLV.lig_0>
-37.9941

>  <SCORE.INTRA.VDW>
-0.45129

>  <SCORE.INTRA.VDW.0>
-0.964461

>  <SCORE.INTRA.norm>
-0.028248

>  <SCORE.RESTR>
0

>  <SCORE.RESTR.CAVITY>
0

>  <SCORE.RESTR.norm>
0

>  <SCORE.SYSTEM>
0

>  <SCORE.SYSTEM.CONST>
0

>  <SCORE.SYSTEM.DIHEDRAL>
0

>  <SCORE.SYSTEM.SOLV>
0

>  <SCORE.SYSTEM.norm>
0

>  <SCORE.heavy>
19

>  <SCORE.norm>
-0.738278

>  <RMSD>
7.422

$$$$
ligand
 OpenBabel11021811483D
libRbt.so/2013.1/901 2013/11/27
 19 21  0  0  0  0  0  0  0  0999 V2000
   19.9492   28.4303   31.5799 C   0  0  0  0  0  0  0  0  0  0  0  0
   20.6999   27.7082   30.5881 O   0  0  0  0  0  0  0  0  0  0  0  0
   20.4643   28.1339   32.9923 C   0  0  1  0  0  0  0  0  0  0  0  0
   21.8434   28.4837   33.1066 O   0  0  0  0  0  0  0  0  0  0  0  0
   19.7174   28.9307   34.0450 C   0  0  1  0  0  0  0  0  0  0  0  0
   19.4016   28.0581   35.1306 O   0  0  0  0  0  0  0  0  0  0  0  0
   20.6695   29.9980   34.5352 C   0  0  0  0  0  0  0  0  0  0  0  0
   22.0354   29.5566   34.0422 C   0  0  2  0  0  0  0  0  0  0  0  0
   23.6461   34.4394   34.6100 N   0  0  0  0  0  0  0  0  0  0  0  0
   22.9223   33.6434   35.4335 C   0  0  2  0  0  0  0  0  0  0  0  0
   22.5094   34.1060   36.6324 N   0  0  0  0  0  0  0  0  0  0  0  0
   22.5958   32.3799   35.0889 N   0  0  0  0  0  0  0  0  0  0  0  0
   22.9746   31.8512   33.9078 C   0  0  1  0  0  0  0  0  0  0  0  0
   23.7078   32.6029   33.0187 C   0  0  1  0  0  0  0  0  0  0  0  0
   24.0626   33.9898   33.4090 C   0  0  0  0  0  0  0  0  0  0  0  0
   24.7251   34.7236   32.6427 O   0  0  0  0  0  0  0  0  0  0  0  0
   23.9470   31.8399   31.9385 N   0  0  0  0  0  0  0  0  0  0  0  0
   23.3665   30.6390   32.1653 C   0  0  0  0  0  0  0  0  0  0  0  0
   22.7771   30.6577   33.3717 N   0  0  1  0  0  0  0  0  0  0  0  0
  1  2  1  0  0  0  0
  3  1  1  6  0  0  0
  3  4  1  0  0  0  0
  3  5  1  0  0  0  0
  5  6  1  1  0  0  0
  5  7  1  0  0  0  0
  7  8  1  0  0  0  0
  8  4  1  6  0  0  0
  8 19  1  0  0  0  0
  9 15  1  0  0  0  0
  9 10  1  0  0  0  0
 10 11  1  1  0  0  0
 10 12  1  0  0  0  0
 13 12  1  1  0  0  0
 13 14  1  0  0  0  0
 13 19  1  0  0  0  0
 14 15  1  1  0  0  0
 14 17  1  0  0  0  0
 15 16  2  0  0  0  0
 17 18  1  0  0  0  0
 19 18  1  1  0  0  0
M  END
>  <CHROM.1>
58.67764893,171.61136096,22.16545092,30.98932863,33.56832597,-2.43328868
0.85017157,0.94495560

>  <Name>
ligand

>  <RI>
0

>  <Rbt.Current_Directory>
/home/itssahil/PROJECTS/Mol_Feturizer/New_Systems/rnas/3SKL

>  <Rbt.Executable>
rbdock ($Id: //depot/dev/client3/rdock/2013.1/src/exe/rbdock.cxx#4 $)

>  <Rbt.Library>
libRbt.so (2013.1, Build901 2013/11/27)

>  <Rbt.Parameter_File>
/export/apps/rDock/src/rDock_2013.1_src/data/scripts/dock_solv.prm

>  <Rbt.Receptor>
prm/pocket_docking_7.prm

>  <SCORE>
-14.1446

>  <SCORE.INTER>
-13.8721

>  <SCORE.INTER.CONST>
1

>  <SCORE.INTER.POLAR>
0

>  <SCORE.INTER.ROT>
2

>  <SCORE.INTER.SOLV>
11.1991

>  <SCORE.INTER.VDW>
-17.9145

>  <SCORE.INTER.norm>
-0.730112

>  <SCORE.INTRA>
-0.273109

>  <SCORE.INTRA.DIHEDRAL>
-0.30336

>  <SCORE.INTRA.DIHEDRAL.0>
1.50031

>  <SCORE.INTRA.POLAR>
0

>  <SCORE.INTRA.POLAR.0>
0

>  <SCORE.INTRA.REPUL>
0

>  <SCORE.INTRA.REPUL.0>
0

>  <SCORE.INTRA.SOLV>
-0.553984

>  <SCORE.INTRA.SOLV.lig_0>
-37.9941

>  <SCORE.INTRA.VDW>
0.155563

>  <SCORE.INTRA.VDW.0>
-0.964461

>  <SCORE.INTRA.norm>
-0.0143742

>  <SCORE.RESTR>
0.000652925

>  <SCORE.RESTR.CAVITY>
0.000652925

>  <SCORE.RESTR.norm>
3.43645e-05

>  <SCORE.SYSTEM>
0

>  <SCORE.SYSTEM.CONST>
0

>  <SCORE.SYSTEM.DIHEDRAL>
0

>  <SCORE.SYSTEM.SOLV>
0

>  <SCORE.SYSTEM.norm>
0

>  <SCORE.heavy>
19

>  <SCORE.norm>
-0.744452

>  <RMSD>
7.439

$$$$
ligand
 OpenBabel11021811483D
libRbt.so/2013.1/901 2013/11/27
 19 21  0  0  0  0  0  0  0  0999 V2000
   20.1091   30.1085   33.3871 C   0  0  0  0  0  0  0  0  0  0  0  0
   20.0314   28.7664   32.8757 O   0  0  0  0  0  0  0  0  0  0  0  0
   21.4148   30.7901   32.9644 C   0  0  1  0  0  0  0  0  0  0  0  0
   21.4509   32.1380   33.4329 O   0  0  0  0  0  0  0  0  0  0  0  0
   22.6304   30.0891   33.5404 C   0  0  1  0  0  0  0  0  0  0  0  0
   23.6094   29.9640   32.5081 O   0  0  0  0  0  0  0  0  0  0  0  0
   23.1749   30.9901   34.6256 C   0  0  0  0  0  0  0  0  0  0  0  0
   22.5043   32.3312   34.3902 C   0  0  2  0  0  0  0  0  0  0  0  0
   23.1281   36.0296   37.9527 N   0  0  0  0  0  0  0  0  0  0  0  0
   23.8705   35.7128   36.8646 C   0  0  2  0  0  0  0  0  0  0  0  0
   24.9761   36.4277   36.5673 N   0  0  0  0  0  0  0  0  0  0  0  0
   23.5342   34.6883   36.0526 N   0  0  0  0  0  0  0  0  0  0  0  0
   22.4432   33.9317   36.2876 C   0  0  1  0  0  0  0  0  0  0  0  0
   21.6444   34.1921   37.3772 C   0  0  1  0  0  0  0  0  0  0  0  0
   22.0227   35.3219   38.2616 C   0  0  0  0  0  0  0  0  0  0  0  0
   21.3383   35.6065   39.2691 O   0  0  0  0  0  0  0  0  0  0  0  0
   20.6398   33.2993   37.3701 N   0  0  0  0  0  0  0  0  0  0  0  0
   20.8240   32.5043   36.2909 C   0  0  0  0  0  0  0  0  0  0  0  0
   21.9276   32.9012   35.6371 N   0  0  1  0  0  0  0  0  0  0  0  0
  1  2  1  0  0  0  0
  3  1  1  1  0  0  0
  3  4  1  0  0  0  0
  3  5  1  0  0  0  0
  5  6  1  6  0  0  0
  5  7  1  0  0  0  0
  7  8  1  0  0  0  0
  8  4  1  6  0  0  0
  8 19  1  0  0  0  0
  9 15  1  0  0  0  0
  9 10  1  0  0  0  0
 10 11  1  6  0  0  0
 10 12  1  0  0  0  0
 13 12  1  6  0  0  0
 13 14  1  0  0  0  0
 13 19  1  0  0  0  0
 14 15  1  6  0  0  0
 14 17  1  0  0  0  0
 15 16  2  0  0  0  0
 17 18  1  0  0  0  0
 19 18  1  6  0  0  0
M  END
>  <CHROM.1>
177.59738936,-133.14100468,22.15532783,32.86371196,35.49512336,1.75970786
-0.44639336,-2.35904315

>  <Name>
ligand

>  <RI>
0

>  <Rbt.Current_Directory>
/home/itssahil/PROJECTS/Mol_Feturizer/New_Systems/rnas/3SKL

>  <Rbt.Executable>
rbdock ($Id: //depot/dev/client3/rdock/2013.1/src/exe/rbdock.cxx#4 $)

>  <Rbt.Library>
libRbt.so (2013.1, Build901 2013/11/27)

>  <Rbt.Parameter_File>
/export/apps/rDock/src/rDock_2013.1_src/data/scripts/dock_solv.prm

>  <Rbt.Receptor>
prm/blind_docking_100.prm

>  <SCORE>
-11.6307

>  <SCORE.INTER>
-11.0952

>  <SCORE.INTER.CONST>
1

>  <SCORE.INTER.POLAR>
0

>  <SCORE.INTER.ROT>
2

>  <SCORE.INTER.SOLV>
7.73328

>  <SCORE.INTER.VDW>
-14.9079

>  <SCORE.INTER.norm>
-0.583955

>  <SCORE.INTRA>
-0.535528

>  <SCORE.INTRA.DIHEDRAL>
-0.261862

>  <SCORE.INTRA.DIHEDRAL.0>
1.50031

>  <SCORE.INTRA.POLAR>
0

>  <SCORE.INTRA.POLAR.0>
0

>  <SCORE.INTRA.REPUL>
0

>  <SCORE.INTRA.REPUL.0>
0

>  <SCORE.INTRA.SOLV>
-0.470364

>  <SCORE.INTRA.SOLV.lig_0>
-37.9941

>  <SCORE.INTRA.VDW>
-0.169415

>  <SCORE.INTRA.VDW.0>
-0.964461

>  <SCORE.INTRA.norm>
-0.0281857

>  <SCORE.RESTR>
0

>  <SCORE.RESTR.CAVITY>
0

>  <SCORE.RESTR.norm>
0

>  <SCORE.SYSTEM>
0

>  <SCORE.SYSTEM.CONST>
0

>  <SCORE.SYSTEM.DIHEDRAL>
0

>  <SCORE.SYSTEM.SOLV>
0

>  <SCORE.SYSTEM.norm>
0

>  <SCORE.heavy>
19

>  <SCORE.norm>
-0.612141

>  <RMSD>
7.494

$$$$
ligand
 OpenBabel11021811483D
libRbt.so/2013.1/901 2013/11/27
 19 21  0  0  0  0  0  0  0  0999 V2000
   19.9480   28.4480   31.6770 C   0  0  0  0  0  0  0  0  0  0  0  0
   20.6742   27.7302   30.6640 O   0  0  0  0  0  0  0  0  0  0  0  0
   20.5167   28.1690   33.0722 C   0  0  1  0  0  0  0  0  0  0  0  0
   21.8921   28.5453   33.1373 O   0  0  0  0  0  0  0  0  0  0  0  0
   19.7914   28.9574   34.1461 C   0  0  1  0  0  0  0  0  0  0  0  0
   19.5296   28.0850   35.2461 O   0  0  0  0  0  0  0  0  0  0  0  0
   20.7394   30.0451   34.5981 C   0  0  0  0  0  0  0  0  0  0  0  0
   22.0958   29.6267   34.0606 C   0  0  2  0  0  0  0  0  0  0  0  0
   23.6578   34.5326   34.5600 N   0  0  0  0  0  0  0  0  0  0  0  0
   22.9804   33.7270   35.4130 C   0  0  2  0  0  0  0  0  0  0  0  0
   22.6109   34.1845   36.6278 N   0  0  0  0  0  0  0  0  0  0  0  0
   22.6582   32.4586   35.0825 N   0  0  0  0  0  0  0  0  0  0  0  0
   22.9953   31.9345   33.8868 C   0  0  1  0  0  0  0  0  0  0  0  0
   23.6801   32.6959   32.9680 C   0  0  1  0  0  0  0  0  0  0  0  0
   24.0307   34.0881   33.3429 C   0  0  0  0  0  0  0  0  0  0  0  0
   24.6502   34.8307   32.5496 O   0  0  0  0  0  0  0  0  0  0  0  0
   23.8853   31.9356   31.8789 N   0  0  0  0  0  0  0  0  0  0  0  0
   23.3321   30.7265   32.1299 C   0  0  0  0  0  0  0  0  0  0  0  0
   22.7930   30.7378   33.3596 N   0  0  1  0  0  0  0  0  0  0  0  0
  1  2  1  0  0  0  0
  3  1  1  6  0  0  0
  3  4  1  0  0  0  0
  3  5  1  0  0  0  0
  5  6  1  1  0  0  0
  5  7  1  0  0  0  0
  7  8  1  0  0  0  0
  8  4  1  6  0  0  0
  8 19  1  0  0  0  0
  9 15  1  0  0  0  0
  9 10  1  0  0  0  0
 10 11  1  1  0  0  0
 10 12  1  0  0  0  0
 13 12  1  1  0  0  0
 13 14  1  0  0  0  0
 13 19  1  0  0  0  0
 14 15  1  1  0  0  0
 14 17  1  0  0  0  0
 15 16  2  0  0  0  0
 17 18  1  0  0  0  0
 19 18  1  1  0  0  0
M  END
>  <CHROM.1>
58.92174990,172.15835468,22.18937081,31.05606330,33.57872987,-2.46666868
0.88579926,0.96945002

>  <Name>
ligand

>  <RI>
0

>  <Rbt.Current_Directory>
/home/itssahil/PROJECTS/Mol_Feturizer/New_Systems/rnas/3SKL

>  <Rbt.Executable>
rbdock ($Id: //depot/dev/client3/rdock/2013.1/src/exe/rbdock.cxx#4 $)

>  <Rbt.Library>
libRbt.so (2013.1, Build901 2013/11/27)

>  <Rbt.Parameter_File>
/export/apps/rDock/src/rDock_2013.1_src/data/scripts/dock_solv.prm

>  <Rbt.Receptor>
prm/pocket_docking_7.prm

>  <SCORE>
-14.1175

>  <SCORE.INTER>
-13.8313

>  <SCORE.INTER.CONST>
1

>  <SCORE.INTER.POLAR>
0

>  <SCORE.INTER.ROT>
2

>  <SCORE.INTER.SOLV>
10.8248

>  <SCORE.INTER.VDW>
-17.7625

>  <SCORE.INTER.norm>
-0.727964

>  <SCORE.INTRA>
-0.28617

>  <SCORE.INTRA.DIHEDRAL>
-0.304759

>  <SCORE.INTRA.DIHEDRAL.0>
1.50031

>  <SCORE.INTRA.POLAR>
0

>  <SCORE.INTRA.POLAR.0>
0

>  <SCORE.INTRA.REPUL>
0

>  <SCORE.INTRA.REPUL.0>
0

>  <SCORE.INTRA.SOLV>
-0.555078

>  <SCORE.INTRA.SOLV.lig_0>
-37.9941

>  <SCORE.INTRA.VDW>
0.143749

>  <SCORE.INTRA.VDW.0>
-0.964461

>  <SCORE.INTRA.norm>
-0.0150616

>  <SCORE.RESTR>
0

>  <SCORE.RESTR.CAVITY>
0

>  <SCORE.RESTR.norm>
0

>  <SCORE.SYSTEM>
0

>  <SCORE.SYSTEM.CONST>
0

>  <SCORE.SYSTEM.DIHEDRAL>
0

>  <SCORE.SYSTEM.SOLV>
0

>  <SCORE.SYSTEM.norm>
0

>  <SCORE.heavy>
19

>  <SCORE.norm>
-0.743026

>  <RMSD>
7.500

$$$$
ligand
 OpenBabel11021811483D
libRbt.so/2013.1/901 2013/11/27
 19 21  0  0  0  0  0  0  0  0999 V2000
   19.7701   28.6902   31.7888 C   0  0  0  0  0  0  0  0  0  0  0  0
   18.3787   28.3275   31.8230 O   0  0  0  0  0  0  0  0  0  0  0  0
   20.4869   28.2676   33.0755 C   0  0  1  0  0  0  0  0  0  0  0  0
   21.8771   28.5824   33.0012 O   0  0  0  0  0  0  0  0  0  0  0  0
   19.9352   28.9865   34.2919 C   0  0  1  0  0  0  0  0  0  0  0  0
   19.7637   28.0317   35.3402 O   0  0  0  0  0  0  0  0  0  0  0  0
   20.9833   29.9921   34.7117 C   0  0  0  0  0  0  0  0  0  0  0  0
   22.2432   29.5696   33.9784 C   0  0  2  0  0  0  0  0  0  0  0  0
   23.6416   34.5191   34.5309 N   0  0  0  0  0  0  0  0  0  0  0  0
   22.9880   33.6834   35.3735 C   0  0  2  0  0  0  0  0  0  0  0  0
   22.5996   34.1167   36.5913 N   0  0  0  0  0  0  0  0  0  0  0  0
   22.7088   32.4083   35.0296 N   0  0  0  0  0  0  0  0  0  0  0  0
   23.0671   31.9073   33.8302 C   0  0  1  0  0  0  0  0  0  0  0  0
   23.7297   32.6997   32.9213 C   0  0  1  0  0  0  0  0  0  0  0  0
   24.0331   34.0989   33.3109 C   0  0  0  0  0  0  0  0  0  0  0  0
   24.6306   34.8691   32.5272 O   0  0  0  0  0  0  0  0  0  0  0  0
   23.9635   31.9571   31.8257 N   0  0  0  0  0  0  0  0  0  0  0  0
   23.4494   30.7282   32.0630 C   0  0  0  0  0  0  0  0  0  0  0  0
   22.9060   30.7098   33.2907 N   0  0  1  0  0  0  0  0  0  0  0  0
  1  2  1  0  0  0  0
  3  1  1  6  0  0  0
  3  4  1  0  0  0  0
  3  5  1  0  0  0  0
  5  6  1  1  0  0  0
  5  7  1  0  0  0  0
  7  8  1  0  0  0  0
  8  4  1  6  0  0  0
  8 19  1  0  0  0  0
  9 15  1  0  0  0  0
  9 10  1  0  0  0  0
 10 11  1  1  0  0  0
 10 12  1  0  0  0  0
 13 12  1  1  0  0  0
 13 14  1  0  0  0  0
 13 19  1  0  0  0  0
 14 15  1  1  0  0  0
 14 17  1  0  0  0  0
 15 16  2  0  0  0  0
 17 18  1  0  0  0  0
 19 18  1  1  0  0  0
M  END
>  <CHROM.1>
177.48639246,162.65666507,22.10048652,31.09777876,33.63721410,-2.63427525
0.85799396,1.06933325

>  <Name>
ligand

>  <RI>
0

>  <Rbt.Current_Directory>
/home/itssahil/PROJECTS/Mol_Feturizer/New_Systems/rnas/3SKL

>  <Rbt.Executable>
rbdock ($Id: //depot/dev/client3/rdock/2013.1/src/exe/rbdock.cxx#4 $)

>  <Rbt.Library>
libRbt.so (2013.1, Build901 2013/11/27)

>  <Rbt.Parameter_File>
/export/apps/rDock/src/rDock_2013.1_src/data/scripts/dock_solv.prm

>  <Rbt.Receptor>
prm/pocket_docking_7.prm

>  <SCORE>
-13.8476

>  <SCORE.INTER>
-13.9431

>  <SCORE.INTER.CONST>
1

>  <SCORE.INTER.POLAR>
0

>  <SCORE.INTER.ROT>
2

>  <SCORE.INTER.SOLV>
10.545

>  <SCORE.INTER.VDW>
-17.7438

>  <SCORE.INTER.norm>
-0.733848

>  <SCORE.INTRA>
0.0955343

>  <SCORE.INTRA.DIHEDRAL>
-0.296128

>  <SCORE.INTRA.DIHEDRAL.0>
1.50031

>  <SCORE.INTRA.POLAR>
0

>  <SCORE.INTRA.POLAR.0>
0

>  <SCORE.INTRA.REPUL>
0

>  <SCORE.INTRA.REPUL.0>
0

>  <SCORE.INTRA.SOLV>
-0.481276

>  <SCORE.INTRA.SOLV.lig_0>
-37.9941

>  <SCORE.INTRA.VDW>
0.484236

>  <SCORE.INTRA.VDW.0>
-0.964461

>  <SCORE.INTRA.norm>
0.00502812

>  <SCORE.RESTR>
0

>  <SCORE.RESTR.CAVITY>
0

>  <SCORE.RESTR.norm>
0

>  <SCORE.SYSTEM>
0

>  <SCORE.SYSTEM.CONST>
0

>  <SCORE.SYSTEM.DIHEDRAL>
0

>  <SCORE.SYSTEM.SOLV>
0

>  <SCORE.SYSTEM.norm>
0

>  <SCORE.heavy>
19

>  <SCORE.norm>
-0.72882

>  <RMSD>
7.506

$$$$
ligand
 OpenBabel11021811483D
libRbt.so/2013.1/901 2013/11/27
 19 21  0  0  0  0  0  0  0  0999 V2000
   19.8812   28.5579   31.7322 C   0  0  0  0  0  0  0  0  0  0  0  0
   20.5120   27.8927   30.6240 O   0  0  0  0  0  0  0  0  0  0  0  0
   20.5511   28.1856   33.0591 C   0  0  1  0  0  0  0  0  0  0  0  0
   21.9343   28.5373   33.0381 O   0  0  0  0  0  0  0  0  0  0  0  0
   19.9267   28.9170   34.2322 C   0  0  1  0  0  0  0  0  0  0  0  0
   19.7345   27.9824   35.2949 O   0  0  0  0  0  0  0  0  0  0  0  0
   20.9277   29.9610   34.6727 C   0  0  0  0  0  0  0  0  0  0  0  0
   22.2299   29.5569   34.0058 C   0  0  2  0  0  0  0  0  0  0  0  0
   23.6454   34.4995   34.5757 N   0  0  0  0  0  0  0  0  0  0  0  0
   22.9946   33.6612   35.4179 C   0  0  2  0  0  0  0  0  0  0  0  0
   22.6146   34.0892   36.6402 N   0  0  0  0  0  0  0  0  0  0  0  0
   22.7097   32.3887   35.0691 N   0  0  0  0  0  0  0  0  0  0  0  0
   23.0594   31.8930   33.8649 C   0  0  1  0  0  0  0  0  0  0  0  0
   23.7188   32.6883   32.9562 C   0  0  1  0  0  0  0  0  0  0  0  0
   24.0284   34.0846   33.3513 C   0  0  0  0  0  0  0  0  0  0  0  0
   24.6233   34.8573   32.5680 O   0  0  0  0  0  0  0  0  0  0  0  0
   23.9439   31.9508   31.8554 N   0  0  0  0  0  0  0  0  0  0  0  0
   23.4278   30.7221   32.0894 C   0  0  0  0  0  0  0  0  0  0  0  0
   22.8918   30.6988   33.3202 N   0  0  1  0  0  0  0  0  0  0  0  0
  1  2  1  0  0  0  0
  3  1  1  6  0  0  0
  3  4  1  0  0  0  0
  3  5  1  0  0  0  0
  5  6  1  1  0  0  0
  5  7  1  0  0  0  0
  7  8  1  0  0  0  0
  8  4  1  6  0  0  0
  8 19  1  0  0  0  0
  9 15  1  0  0  0  0
  9 10  1  0  0  0  0
 10 11  1  1  0  0  0
 10 12  1  0  0  0  0
 13 12  1  1  0  0  0
 13 14  1  0  0  0  0
 13 19  1  0  0  0  0
 14 15  1  1  0  0  0
 14 17  1  0  0  0  0
 15 16  2  0  0  0  0
 17 18  1  0  0  0  0
 19 18  1  1  0  0  0
M  END
>  <CHROM.1>
58.95665001,166.40498929,22.23501007,31.04002597,33.57681709,-2.51148350
0.91131576,1.02235146

>  <Name>
ligand

>  <RI>
0

>  <Rbt.Current_Directory>
/home/itssahil/PROJECTS/Mol_Feturizer/New_Systems/rnas/3SKL

>  <Rbt.Executable>
rbdock ($Id: //depot/dev/client3/rdock/2013.1/src/exe/rbdock.cxx#4 $)

>  <Rbt.Library>
libRbt.so (2013.1, Build901 2013/11/27)

>  <Rbt.Parameter_File>
/export/apps/rDock/src/rDock_2013.1_src/data/scripts/dock_solv.prm

>  <Rbt.Receptor>
prm/pocket_docking_7.prm

>  <SCORE>
-14.1514

>  <SCORE.INTER>
-14.0007

>  <SCORE.INTER.CONST>
1

>  <SCORE.INTER.POLAR>
0

>  <SCORE.INTER.ROT>
2

>  <SCORE.INTER.SOLV>
11.3388

>  <SCORE.INTER.VDW>
-18.0467

>  <SCORE.INTER.norm>
-0.73688

>  <SCORE.INTRA>
-0.150686

>  <SCORE.INTRA.DIHEDRAL>
-0.311267

>  <SCORE.INTRA.DIHEDRAL.0>
1.50031

>  <SCORE.INTRA.POLAR>
0

>  <SCORE.INTRA.POLAR.0>
0

>  <SCORE.INTRA.REPUL>
0

>  <SCORE.INTRA.REPUL.0>
0

>  <SCORE.INTRA.SOLV>
-0.556716

>  <SCORE.INTRA.SOLV.lig_0>
-37.9941

>  <SCORE.INTRA.VDW>
0.283305

>  <SCORE.INTRA.VDW.0>
-0.964461

>  <SCORE.INTRA.norm>
-0.00793086

>  <SCORE.RESTR>
0

>  <SCORE.RESTR.CAVITY>
0

>  <SCORE.RESTR.norm>
0

>  <SCORE.SYSTEM>
0

>  <SCORE.SYSTEM.CONST>
0

>  <SCORE.SYSTEM.DIHEDRAL>
0

>  <SCORE.SYSTEM.SOLV>
0

>  <SCORE.SYSTEM.norm>
0

>  <SCORE.heavy>
19

>  <SCORE.norm>
-0.744811

>  <RMSD>
7.510

$$$$
ligand
 OpenBabel11021811483D
libRbt.so/2013.1/901 2013/11/27
 19 21  0  0  0  0  0  0  0  0999 V2000
   20.4675   28.7956   34.6517 C   0  0  0  0  0  0  0  0  0  0  0  0
   19.1300   28.5984   34.1608 O   0  0  0  0  0  0  0  0  0  0  0  0
   21.4927   28.7302   33.5148 C   0  0  1  0  0  0  0  0  0  0  0  0
   21.4353   27.4630   32.8605 O   0  0  0  0  0  0  0  0  0  0  0  0
   21.2320   29.7860   32.4574 C   0  0  1  0  0  0  0  0  0  0  0  0
   22.4771   30.3947   32.1120 O   0  0  0  0  0  0  0  0  0  0  0  0
   20.6889   29.0606   31.2472 C   0  0  0  0  0  0  0  0  0  0  0  0
   21.0063   27.5973   31.4962 C   0  0  2  0  0  0  0  0  0  0  0  0
   19.4553   23.2326   29.1937 N   0  0  0  0  0  0  0  0  0  0  0  0
   20.6651   23.8421   29.2145 C   0  0  2  0  0  0  0  0  0  0  0  0
   21.7113   23.2940   28.5611 N   0  0  0  0  0  0  0  0  0  0  0  0
   20.8627   24.9996   29.8803 N   0  0  0  0  0  0  0  0  0  0  0  0
   19.8639   25.6036   30.5554 C   0  0  1  0  0  0  0  0  0  0  0  0
   18.6069   25.0444   30.5743 C   0  0  1  0  0  0  0  0  0  0  0  0
   18.4020   23.7711   29.8407 C   0  0  0  0  0  0  0  0  0  0  0  0
   17.2816   23.2154   29.8183 O   0  0  0  0  0  0  0  0  0  0  0  0
   17.8159   25.8423   31.3119 N   0  0  0  0  0  0  0  0  0  0  0  0
   18.5802   26.8749   31.7365 C   0  0  0  0  0  0  0  0  0  0  0  0
   19.8291   26.7172   31.2692 N   0  0  1  0  0  0  0  0  0  0  0  0
  1  2  1  0  0  0  0
  3  1  1  1  0  0  0
  3  4  1  0  0  0  0
  3  5  1  0  0  0  0
  5  6  1  6  0  0  0
  5  7  1  0  0  0  0
  7  8  1  0  0  0  0
  8  4  1  1  0  0  0
  8 19  1  0  0  0  0
  9 15  1  0  0  0  0
  9 10  1  0  0  0  0
 10 11  1  1  0  0  0
 10 12  1  0  0  0  0
 13 12  1  1  0  0  0
 13 14  1  0  0  0  0
 13 19  1  0  0  0  0
 14 15  1  1  0  0  0
 14 17  1  0  0  0  0
 15 16  2  0  0  0  0
 17 18  1  0  0  0  0
 19 18  1  1  0  0  0
M  END
>  <CHROM.1>
-59.47655952,-108.09861527,20.07194574,26.52548526,31.33729468,1.27859937
0.39654590,0.69076717

>  <Name>
ligand

>  <RI>
0

>  <Rbt.Current_Directory>
/home/itssahil/PROJECTS/Mol_Feturizer/New_Systems/rnas/3SKL

>  <Rbt.Executable>
rbdock ($Id: //depot/dev/client3/rdock/2013.1/src/exe/rbdock.cxx#4 $)

>  <Rbt.Library>
libRbt.so (2013.1, Build901 2013/11/27)

>  <Rbt.Parameter_File>
/export/apps/rDock/src/rDock_2013.1_src/data/scripts/dock_solv.prm

>  <Rbt.Receptor>
prm/pocket_docking_8.prm

>  <SCORE>
-12.4631

>  <SCORE.INTER>
-11.998

>  <SCORE.INTER.CONST>
1

>  <SCORE.INTER.POLAR>
0

>  <SCORE.INTER.ROT>
2

>  <SCORE.INTER.SOLV>
9.59016

>  <SCORE.INTER.VDW>
-16.1287

>  <SCORE.INTER.norm>
-0.631473

>  <SCORE.INTRA>
-0.465074

>  <SCORE.INTRA.DIHEDRAL>
-0.311188

>  <SCORE.INTRA.DIHEDRAL.0>
1.50031

>  <SCORE.INTRA.POLAR>
0

>  <SCORE.INTRA.POLAR.0>
0

>  <SCORE.INTRA.REPUL>
0

>  <SCORE.INTRA.REPUL.0>
0

>  <SCORE.INTRA.SOLV>
0.0335511

>  <SCORE.INTRA.SOLV.lig_0>
-37.9941

>  <SCORE.INTRA.VDW>
-0.326255

>  <SCORE.INTRA.VDW.0>
-0.964461

>  <SCORE.INTRA.norm>
-0.0244776

>  <SCORE.RESTR>
0

>  <SCORE.RESTR.CAVITY>
0

>  <SCORE.RESTR.norm>
0

>  <SCORE.SYSTEM>
0

>  <SCORE.SYSTEM.CONST>
0

>  <SCORE.SYSTEM.DIHEDRAL>
0

>  <SCORE.SYSTEM.SOLV>
0

>  <SCORE.SYSTEM.norm>
0

>  <SCORE.heavy>
19

>  <SCORE.norm>
-0.655951

>  <RMSD>
7.527

$$$$
ligand
 OpenBabel11021811483D
libRbt.so/2013.1/901 2013/11/27
 19 21  0  0  0  0  0  0  0  0999 V2000
   20.4270   28.0644   31.7064 C   0  0  0  0  0  0  0  0  0  0  0  0
   20.4994   29.4141   31.2148 O   0  0  0  0  0  0  0  0  0  0  0  0
   20.8261   27.9882   33.1838 C   0  0  1  0  0  0  0  0  0  0  0  0
   22.1437   28.5032   33.3742 O   0  0  0  0  0  0  0  0  0  0  0  0
   19.8999   28.8076   34.0623 C   0  0  1  0  0  0  0  0  0  0  0  0
   19.5686   28.0316   35.2146 O   0  0  0  0  0  0  0  0  0  0  0  0
   20.6837   30.0244   34.4997 C   0  0  0  0  0  0  0  0  0  0  0  0
   22.1302   29.6888   34.1851 C   0  0  2  0  0  0  0  0  0  0  0  0
   23.6240   34.6291   34.5316 N   0  0  0  0  0  0  0  0  0  0  0  0
   22.9506   33.8433   35.4061 C   0  0  2  0  0  0  0  0  0  0  0  0
   22.5659   34.3361   36.6023 N   0  0  0  0  0  0  0  0  0  0  0  0
   22.6476   32.5604   35.1159 N   0  0  0  0  0  0  0  0  0  0  0  0
   23.0007   32.0013   33.9408 C   0  0  1  0  0  0  0  0  0  0  0  0
   23.6824   32.7408   33.0020 C   0  0  1  0  0  0  0  0  0  0  0  0
   24.0119   34.1492   33.3327 C   0  0  0  0  0  0  0  0  0  0  0  0
   24.6276   34.8732   32.5195 O   0  0  0  0  0  0  0  0  0  0  0  0
   23.9059   31.9474   31.9404 N   0  0  0  0  0  0  0  0  0  0  0  0
   23.3666   30.7401   32.2277 C   0  0  0  0  0  0  0  0  0  0  0  0
   22.8181   30.7851   33.4525 N   0  0  1  0  0  0  0  0  0  0  0  0
  1  2  1  0  0  0  0
  3  1  1  6  0  0  0
  3  4  1  0  0  0  0
  3  5  1  0  0  0  0
  5  6  1  1  0  0  0
  5  7  1  0  0  0  0
  7  8  1  0  0  0  0
  8  4  1  6  0  0  0
  8 19  1  0  0  0  0
  9 15  1  0  0  0  0
  9 10  1  0  0  0  0
 10 11  1  1  0  0  0
 10 12  1  0  0  0  0
 13 12  1  1  0  0  0
 13 14  1  0  0  0  0
 13 19  1  0  0  0  0
 14 15  1  1  0  0  0
 14 17  1  0  0  0  0
 15 16  2  0  0  0  0
 17 18  1  0  0  0  0
 19 18  1  1  0  0  0
M  END
>  <CHROM.1>
-57.64500469,-178.44713801,22.23773028,31.15671966,33.64204083,-2.50128867
0.91754414,0.95720270

>  <Name>
ligand

>  <RI>
0

>  <Rbt.Current_Directory>
/home/itssahil/PROJECTS/Mol_Feturizer/New_Systems/rnas/3SKL

>  <Rbt.Executable>
rbdock ($Id: //depot/dev/client3/rdock/2013.1/src/exe/rbdock.cxx#4 $)

>  <Rbt.Library>
libRbt.so (2013.1, Build901 2013/11/27)

>  <Rbt.Parameter_File>
/export/apps/rDock/src/rDock_2013.1_src/data/scripts/dock_solv.prm

>  <Rbt.Receptor>
prm/pocket_docking_7.prm

>  <SCORE>
-13.9511

>  <SCORE.INTER>
-13.5454

>  <SCORE.INTER.CONST>
1

>  <SCORE.INTER.POLAR>
0

>  <SCORE.INTER.ROT>
2

>  <SCORE.INTER.SOLV>
10.0888

>  <SCORE.INTER.VDW>
-17.3265

>  <SCORE.INTER.norm>
-0.712915

>  <SCORE.INTRA>
-0.405736

>  <SCORE.INTRA.DIHEDRAL>
-0.27596

>  <SCORE.INTRA.DIHEDRAL.0>
1.50031

>  <SCORE.INTRA.POLAR>
0

>  <SCORE.INTRA.POLAR.0>
0

>  <SCORE.INTRA.REPUL>
0

>  <SCORE.INTRA.REPUL.0>
0

>  <SCORE.INTRA.SOLV>
-0.000169256

>  <SCORE.INTRA.SOLV.lig_0>
-37.9941

>  <SCORE.INTRA.VDW>
-0.267672

>  <SCORE.INTRA.VDW.0>
-0.964461

>  <SCORE.INTRA.norm>
-0.0213545

>  <SCORE.RESTR>
0

>  <SCORE.RESTR.CAVITY>
0

>  <SCORE.RESTR.norm>
0

>  <SCORE.SYSTEM>
0

>  <SCORE.SYSTEM.CONST>
0

>  <SCORE.SYSTEM.DIHEDRAL>
0

>  <SCORE.SYSTEM.SOLV>
0

>  <SCORE.SYSTEM.norm>
0

>  <SCORE.heavy>
19

>  <SCORE.norm>
-0.73427

>  <RMSD>
7.548

$$$$
ligand
 OpenBabel11021811483D
libRbt.so/2013.1/901 2013/11/27
 19 21  0  0  0  0  0  0  0  0999 V2000
   16.2284   18.9282   39.8254 C   0  0  0  0  0  0  0  0  0  0  0  0
   15.0622   19.3580   40.5491 O   0  0  0  0  0  0  0  0  0  0  0  0
   16.4202   19.7453   38.5434 C   0  0  1  0  0  0  0  0  0  0  0  0
   16.5899   21.1287   38.8515 O   0  0  0  0  0  0  0  0  0  0  0  0
   17.6527   19.3092   37.7743 C   0  0  1  0  0  0  0  0  0  0  0  0
   17.3101   19.2134   36.3911 O   0  0  0  0  0  0  0  0  0  0  0  0
   18.6812   20.4035   37.9498 C   0  0  0  0  0  0  0  0  0  0  0  0
   17.8989   21.5905   38.4817 C   0  0  2  0  0  0  0  0  0  0  0  0
   18.6660   26.0767   40.9400 N   0  0  0  0  0  0  0  0  0  0  0  0
   18.0068   25.7978   39.7897 C   0  0  2  0  0  0  0  0  0  0  0  0
   17.4070   26.7877   39.0955 N   0  0  0  0  0  0  0  0  0  0  0  0
   17.9276   24.5398   39.3070 N   0  0  0  0  0  0  0  0  0  0  0  0
   18.5021   23.5016   39.9476 C   0  0  1  0  0  0  0  0  0  0  0  0
   19.1923   23.7104   41.1194 C   0  0  1  0  0  0  0  0  0  0  0  0
   19.2711   25.0970   41.6415 C   0  0  0  0  0  0  0  0  0  0  0  0
   19.8867   25.3510   42.7004 O   0  0  0  0  0  0  0  0  0  0  0  0
   19.6543   22.5201   41.5391 N   0  0  0  0  0  0  0  0  0  0  0  0
   19.2518   21.5977   40.6346 C   0  0  0  0  0  0  0  0  0  0  0  0
   18.5479   22.2090   39.6684 N   0  0  1  0  0  0  0  0  0  0  0  0
  1  2  1  0  0  0  0
  3  1  1  1  0  0  0
  3  4  1  0  0  0  0
  3  5  1  0  0  0  0
  5  6  1  6  0  0  0
  5  7  1  0  0  0  0
  7  8  1  0  0  0  0
  8  4  1  1  0  0  0
  8 19  1  0  0  0  0
  9 15  1  0  0  0  0
  9 10  1  0  0  0  0
 10 11  1  1  0  0  0
 10 12  1  0  0  0  0
 13 12  1  1  0  0  0
 13 14  1  0  0  0  0
 13 19  1  0  0  0  0
 14 15  1  1  0  0  0
 14 17  1  0  0  0  0
 15 16  2  0  0  0  0
 17 18  1  0  0  0  0
 19 18  1  1  0  0  0
M  END
>  <CHROM.1>
60.52189978,-93.34913621,17.95970304,22.39865601,39.70249087,-2.49126592
-1.17850995,-0.47544994

>  <Name>
ligand

>  <RI>
0

>  <Rbt.Current_Directory>
/home/itssahil/PROJECTS/Mol_Feturizer/New_Systems/rnas/3SKL

>  <Rbt.Executable>
rbdock ($Id: //depot/dev/client3/rdock/2013.1/src/exe/rbdock.cxx#4 $)

>  <Rbt.Library>
libRbt.so (2013.1, Build901 2013/11/27)

>  <Rbt.Parameter_File>
/export/apps/rDock/src/rDock_2013.1_src/data/scripts/dock_solv.prm

>  <Rbt.Receptor>
prm/blind_docking_60.prm

>  <SCORE>
-9.91465

>  <SCORE.INTER>
-9.57578

>  <SCORE.INTER.CONST>
1

>  <SCORE.INTER.POLAR>
0

>  <SCORE.INTER.ROT>
2

>  <SCORE.INTER.SOLV>
14.3986

>  <SCORE.INTER.VDW>
-16.1167

>  <SCORE.INTER.norm>
-0.503988

>  <SCORE.INTRA>
-0.338867

>  <SCORE.INTRA.DIHEDRAL>
-0.321522

>  <SCORE.INTRA.DIHEDRAL.0>
1.50031

>  <SCORE.INTRA.POLAR>
0

>  <SCORE.INTRA.POLAR.0>
0

>  <SCORE.INTRA.REPUL>
0

>  <SCORE.INTRA.REPUL.0>
0

>  <SCORE.INTRA.SOLV>
-0.545622

>  <SCORE.INTRA.SOLV.lig_0>
-37.9941

>  <SCORE.INTRA.VDW>
0.094705

>  <SCORE.INTRA.VDW.0>
-0.964461

>  <SCORE.INTRA.norm>
-0.0178351

>  <SCORE.RESTR>
0

>  <SCORE.RESTR.CAVITY>
0

>  <SCORE.RESTR.norm>
0

>  <SCORE.SYSTEM>
0

>  <SCORE.SYSTEM.CONST>
0

>  <SCORE.SYSTEM.DIHEDRAL>
0

>  <SCORE.SYSTEM.SOLV>
0

>  <SCORE.SYSTEM.norm>
0

>  <SCORE.heavy>
19

>  <SCORE.norm>
-0.521824

>  <RMSD>
7.564

$$$$
ligand
 OpenBabel11021811483D
libRbt.so/2013.1/901 2013/11/27
 19 21  0  0  0  0  0  0  0  0999 V2000
   20.2980   29.0055   34.5038 C   0  0  0  0  0  0  0  0  0  0  0  0
   20.4221   28.0475   35.5694 O   0  0  0  0  0  0  0  0  0  0  0  0
   21.3979   28.8155   33.4540 C   0  0  1  0  0  0  0  0  0  0  0  0
   21.3425   27.5001   32.9025 O   0  0  0  0  0  0  0  0  0  0  0  0
   21.2493   29.7862   32.2979 C   0  0  1  0  0  0  0  0  0  0  0  0
   22.5361   30.3274   31.9960 O   0  0  0  0  0  0  0  0  0  0  0  0
   20.7677   28.9780   31.1143 C   0  0  0  0  0  0  0  0  0  0  0  0
   21.0155   27.5321   31.5041 C   0  0  2  0  0  0  0  0  0  0  0  0
   19.4128   23.2136   29.1505 N   0  0  0  0  0  0  0  0  0  0  0  0
   20.6307   23.8064   29.1815 C   0  0  2  0  0  0  0  0  0  0  0  0
   21.6713   23.2510   28.5255 N   0  0  0  0  0  0  0  0  0  0  0  0
   20.8418   24.9538   29.8602 N   0  0  0  0  0  0  0  0  0  0  0  0
   19.8492   25.5642   30.5387 C   0  0  1  0  0  0  0  0  0  0  0  0
   18.5847   25.0221   30.5478 C   0  0  1  0  0  0  0  0  0  0  0  0
   18.3648   23.7595   29.8000 C   0  0  0  0  0  0  0  0  0  0  0  0
   17.2370   23.2194   29.7682 O   0  0  0  0  0  0  0  0  0  0  0  0
   17.8022   25.8228   31.2914 N   0  0  0  0  0  0  0  0  0  0  0  0
   18.5791   26.8403   31.7293 C   0  0  0  0  0  0  0  0  0  0  0  0
   19.8272   26.6705   31.2642 N   0  0  1  0  0  0  0  0  0  0  0  0
  1  2  1  0  0  0  0
  3  1  1  1  0  0  0
  3  4  1  0  0  0  0
  3  5  1  0  0  0  0
  5  6  1  6  0  0  0
  5  7  1  0  0  0  0
  7  8  1  0  0  0  0
  8  4  1  1  0  0  0
  8 19  1  0  0  0  0
  9 15  1  0  0  0  0
  9 10  1  0  0  0  0
 10 11  1  1  0  0  0
 10 12  1  0  0  0  0
 13 12  1  1  0  0  0
 13 14  1  0  0  0  0
 13 19  1  0  0  0  0
 14 15  1  1  0  0  0
 14 17  1  0  0  0  0
 15 16  2  0  0  0  0
 17 18  1  0  0  0  0
 19 18  1  1  0  0  0
M  END
>  <CHROM.1>
58.81495311,-114.82588211,20.12659509,26.48203964,31.37795509,1.23072387
0.53863800,0.79742619

>  <Name>
ligand

>  <RI>
0

>  <Rbt.Current_Directory>
/home/itssahil/PROJECTS/Mol_Feturizer/New_Systems/rnas/3SKL

>  <Rbt.Executable>
rbdock ($Id: //depot/dev/client3/rdock/2013.1/src/exe/rbdock.cxx#4 $)

>  <Rbt.Library>
libRbt.so (2013.1, Build901 2013/11/27)

>  <Rbt.Parameter_File>
/export/apps/rDock/src/rDock_2013.1_src/data/scripts/dock_solv.prm

>  <Rbt.Receptor>
prm/pocket_docking_8.prm

>  <SCORE>
-12.7738

>  <SCORE.INTER>
-12.1894

>  <SCORE.INTER.CONST>
1

>  <SCORE.INTER.POLAR>
0

>  <SCORE.INTER.ROT>
2

>  <SCORE.INTER.SOLV>
10.5693

>  <SCORE.INTER.VDW>
-16.5827

>  <SCORE.INTER.norm>
-0.641548

>  <SCORE.INTRA>
-0.584438

>  <SCORE.INTRA.DIHEDRAL>
-0.299665

>  <SCORE.INTRA.DIHEDRAL.0>
1.50031

>  <SCORE.INTRA.POLAR>
0

>  <SCORE.INTRA.POLAR.0>
0

>  <SCORE.INTRA.REPUL>
0

>  <SCORE.INTRA.REPUL.0>
0

>  <SCORE.INTRA.SOLV>
-0.546773

>  <SCORE.INTRA.SOLV.lig_0>
-37.9941

>  <SCORE.INTRA.VDW>
-0.161219

>  <SCORE.INTRA.VDW.0>
-0.964461

>  <SCORE.INTRA.norm>
-0.0307599

>  <SCORE.RESTR>
0

>  <SCORE.RESTR.CAVITY>
0

>  <SCORE.RESTR.norm>
0

>  <SCORE.SYSTEM>
0

>  <SCORE.SYSTEM.CONST>
0

>  <SCORE.SYSTEM.DIHEDRAL>
0

>  <SCORE.SYSTEM.SOLV>
0

>  <SCORE.SYSTEM.norm>
0

>  <SCORE.heavy>
19

>  <SCORE.norm>
-0.672308

>  <RMSD>
7.570

$$$$
ligand
 OpenBabel11021811483D
libRbt.so/2013.1/901 2013/11/27
 19 21  0  0  0  0  0  0  0  0999 V2000
   19.9453   28.5587   31.7232 C   0  0  0  0  0  0  0  0  0  0  0  0
   20.5980   27.8423   30.6605 O   0  0  0  0  0  0  0  0  0  0  0  0
   20.5844   28.2451   33.0801 C   0  0  1  0  0  0  0  0  0  0  0  0
   21.9605   28.6241   33.0855 O   0  0  0  0  0  0  0  0  0  0  0  0
   19.9128   29.0027   34.2097 C   0  0  1  0  0  0  0  0  0  0  0  0
   19.7087   28.1008   35.2981 O   0  0  0  0  0  0  0  0  0  0  0  0
   20.8803   30.0812   34.6418 C   0  0  0  0  0  0  0  0  0  0  0  0
   22.2085   29.6815   34.0256 C   0  0  2  0  0  0  0  0  0  0  0  0
   23.6550   34.6227   34.5261 N   0  0  0  0  0  0  0  0  0  0  0  0
   23.0107   33.7965   35.3850 C   0  0  2  0  0  0  0  0  0  0  0  0
   22.6481   34.2391   36.6075 N   0  0  0  0  0  0  0  0  0  0  0  0
   22.7153   32.5219   35.0531 N   0  0  0  0  0  0  0  0  0  0  0  0
   23.0475   32.0119   33.8499 C   0  0  1  0  0  0  0  0  0  0  0  0
   23.6992   32.7945   32.9248 C   0  0  1  0  0  0  0  0  0  0  0  0
   24.0205   34.1932   33.3013 C   0  0  0  0  0  0  0  0  0  0  0  0
   24.6093   34.9548   32.5026 O   0  0  0  0  0  0  0  0  0  0  0  0
   23.9070   32.0445   31.8290 N   0  0  0  0  0  0  0  0  0  0  0  0
   23.3880   30.8208   32.0822 C   0  0  0  0  0  0  0  0  0  0  0  0
   22.8673   30.8130   33.3198 N   0  0  1  0  0  0  0  0  0  0  0  0
  1  2  1  0  0  0  0
  3  1  1  6  0  0  0
  3  4  1  0  0  0  0
  3  5  1  0  0  0  0
  5  6  1  1  0  0  0
  5  7  1  0  0  0  0
  7  8  1  0  0  0  0
  8  4  1  6  0  0  0
  8 19  1  0  0  0  0
  9 15  1  0  0  0  0
  9 10  1  0  0  0  0
 10 11  1  1  0  0  0
 10 12  1  0  0  0  0
 13 12  1  1  0  0  0
 13 14  1  0  0  0  0
 13 19  1  0  0  0  0
 14 15  1  1  0  0  0
 14 17  1  0  0  0  0
 15 16  2  0  0  0  0
 17 18  1  0  0  0  0
 19 18  1  1  0  0  0
M  END
>  <CHROM.1>
60.47212146,169.44929274,22.23666435,31.13446651,33.56394383,-2.49616464
0.91430429,0.99927412

>  <Name>
ligand

>  <RI>
0

>  <Rbt.Current_Directory>
/home/itssahil/PROJECTS/Mol_Feturizer/New_Systems/rnas/3SKL

>  <Rbt.Executable>
rbdock ($Id: //depot/dev/client3/rdock/2013.1/src/exe/rbdock.cxx#4 $)

>  <Rbt.Library>
libRbt.so (2013.1, Build901 2013/11/27)

>  <Rbt.Parameter_File>
/export/apps/rDock/src/rDock_2013.1_src/data/scripts/dock_solv.prm

>  <Rbt.Receptor>
prm/pocket_docking_7.prm

>  <SCORE>
-14.1449

>  <SCORE.INTER>
-13.9129

>  <SCORE.INTER.CONST>
1

>  <SCORE.INTER.POLAR>
0

>  <SCORE.INTER.ROT>
2

>  <SCORE.INTER.SOLV>
10.6045

>  <SCORE.INTER.VDW>
-17.7434

>  <SCORE.INTER.norm>
-0.732258

>  <SCORE.INTRA>
-0.23204

>  <SCORE.INTRA.DIHEDRAL>
-0.310783

>  <SCORE.INTRA.DIHEDRAL.0>
1.50031

>  <SCORE.INTRA.POLAR>
0

>  <SCORE.INTRA.POLAR.0>
0

>  <SCORE.INTRA.REPUL>
0

>  <SCORE.INTRA.REPUL.0>
0

>  <SCORE.INTRA.SOLV>
-0.563498

>  <SCORE.INTRA.SOLV.lig_0>
-37.9941

>  <SCORE.INTRA.VDW>
0.205101

>  <SCORE.INTRA.VDW.0>
-0.964461

>  <SCORE.INTRA.norm>
-0.0122126

>  <SCORE.RESTR>
0

>  <SCORE.RESTR.CAVITY>
0

>  <SCORE.RESTR.norm>
0

>  <SCORE.SYSTEM>
0

>  <SCORE.SYSTEM.CONST>
0

>  <SCORE.SYSTEM.DIHEDRAL>
0

>  <SCORE.SYSTEM.SOLV>
0

>  <SCORE.SYSTEM.norm>
0

>  <SCORE.heavy>
19

>  <SCORE.norm>
-0.744471

>  <RMSD>
7.572

$$$$
ligand
 OpenBabel11021811483D
libRbt.so/2013.1/901 2013/11/27
 19 21  0  0  0  0  0  0  0  0999 V2000
   19.5518   30.7910   34.3453 C   0  0  0  0  0  0  0  0  0  0  0  0
   18.7460   30.1705   35.3623 O   0  0  0  0  0  0  0  0  0  0  0  0
   20.2400   29.7431   33.4643 C   0  0  1  0  0  0  0  0  0  0  0  0
   20.9784   30.3744   32.4185 O   0  0  0  0  0  0  0  0  0  0  0  0
   21.2236   28.8997   34.2531 C   0  0  1  0  0  0  0  0  0  0  0  0
   21.0389   27.5316   33.8867 O   0  0  0  0  0  0  0  0  0  0  0  0
   22.6067   29.3383   33.8283 C   0  0  0  0  0  0  0  0  0  0  0  0
   22.3881   30.1340   32.5544 C   0  0  2  0  0  0  0  0  0  0  0  0
   23.1971   34.3965   35.3712 N   0  0  0  0  0  0  0  0  0  0  0  0
   22.4285   33.3072   35.6127 C   0  0  2  0  0  0  0  0  0  0  0  0
   21.7200   33.2184   36.7580 N   0  0  0  0  0  0  0  0  0  0  0  0
   22.3476   32.2889   34.7304 N   0  0  0  0  0  0  0  0  0  0  0  0
   23.0280   32.3092   33.5664 C   0  0  1  0  0  0  0  0  0  0  0  0
   23.8251   33.3856   33.2517 C   0  0  1  0  0  0  0  0  0  0  0  0
   23.9079   34.4981   34.2300 C   0  0  0  0  0  0  0  0  0  0  0  0
   24.6133   35.5051   33.9999 O   0  0  0  0  0  0  0  0  0  0  0  0
   24.3797   33.1462   32.0511 N   0  0  0  0  0  0  0  0  0  0  0  0
   23.9261   31.9400   31.6387 C   0  0  0  0  0  0  0  0  0  0  0  0
   23.1027   31.4382   32.5731 N   0  0  1  0  0  0  0  0  0  0  0  0
  1  2  1  0  0  0  0
  3  1  1  1  0  0  0
  3  4  1  0  0  0  0
  3  5  1  0  0  0  0
  5  6  1  6  0  0  0
  5  7  1  0  0  0  0
  7  8  1  0  0  0  0
  8  4  1  1  0  0  0
  8 19  1  0  0  0  0
  9 15  1  0  0  0  0
  9 10  1  0  0  0  0
 10 11  1  1  0  0  0
 10 12  1  0  0  0  0
 13 12  1  1  0  0  0
 13 14  1  0  0  0  0
 13 19  1  0  0  0  0
 14 15  1  1  0  0  0
 14 17  1  0  0  0  0
 15 16  2  0  0  0  0
 17 18  1  0  0  0  0
 19 18  1  1  0  0  0
M  END
>  <CHROM.1>
176.96294447,69.30402407,22.21511282,31.65229435,33.90418815,2.42308722,-0.72895834
-2.47901516

>  <Name>
ligand

>  <RI>
0

>  <Rbt.Current_Directory>
/home/itssahil/PROJECTS/Mol_Feturizer/New_Systems/rnas/3SKL

>  <Rbt.Executable>
rbdock ($Id: //depot/dev/client3/rdock/2013.1/src/exe/rbdock.cxx#4 $)

>  <Rbt.Library>
libRbt.so (2013.1, Build901 2013/11/27)

>  <Rbt.Parameter_File>
/export/apps/rDock/src/rDock_2013.1_src/data/scripts/dock_solv.prm

>  <Rbt.Receptor>
prm/pocket_docking_7.prm

>  <SCORE>
-12.0951

>  <SCORE.INTER>
-11.5532

>  <SCORE.INTER.CONST>
1

>  <SCORE.INTER.POLAR>
0

>  <SCORE.INTER.ROT>
2

>  <SCORE.INTER.SOLV>
13.3494

>  <SCORE.INTER.VDW>
-17.0853

>  <SCORE.INTER.norm>
-0.608065

>  <SCORE.INTRA>
-0.5598

>  <SCORE.INTRA.DIHEDRAL>
-0.254635

>  <SCORE.INTRA.DIHEDRAL.0>
1.50031

>  <SCORE.INTRA.POLAR>
0

>  <SCORE.INTRA.POLAR.0>
0

>  <SCORE.INTRA.REPUL>
0

>  <SCORE.INTRA.REPUL.0>
0

>  <SCORE.INTRA.SOLV>
0.343467

>  <SCORE.INTRA.SOLV.lig_0>
-37.9941

>  <SCORE.INTRA.VDW>
-0.604216

>  <SCORE.INTRA.VDW.0>
-0.964461

>  <SCORE.INTRA.norm>
-0.0294632

>  <SCORE.RESTR>
0.0178904

>  <SCORE.RESTR.CAVITY>
0.0178904

>  <SCORE.RESTR.norm>
0.000941599

>  <SCORE.SYSTEM>
0

>  <SCORE.SYSTEM.CONST>
0

>  <SCORE.SYSTEM.DIHEDRAL>
0

>  <SCORE.SYSTEM.SOLV>
0

>  <SCORE.SYSTEM.norm>
0

>  <SCORE.heavy>
19

>  <SCORE.norm>
-0.636586

>  <RMSD>
7.622

$$$$
ligand
 OpenBabel11021811483D
libRbt.so/2013.1/901 2013/11/27
 19 21  0  0  0  0  0  0  0  0999 V2000
   19.0526   25.3055   39.2172 C   0  0  0  0  0  0  0  0  0  0  0  0
   17.8740   26.0354   38.8338 O   0  0  0  0  0  0  0  0  0  0  0  0
   18.8883   24.6716   40.6025 C   0  0  1  0  0  0  0  0  0  0  0  0
   17.8856   23.6562   40.5733 O   0  0  0  0  0  0  0  0  0  0  0  0
   20.1697   24.0141   41.0786 C   0  0  1  0  0  0  0  0  0  0  0  0
   20.3802   24.3743   42.4445 O   0  0  0  0  0  0  0  0  0  0  0  0
   19.9463   22.5211   40.9944 C   0  0  0  0  0  0  0  0  0  0  0  0
   18.4446   22.3607   40.8425 C   0  0  2  0  0  0  0  0  0  0  0  0
   14.5471   19.6586   38.7770 N   0  0  0  0  0  0  0  0  0  0  0  0
   14.5926   20.4496   39.8760 C   0  0  2  0  0  0  0  0  0  0  0  0
   13.4841   20.6358   40.6231 N   0  0  0  0  0  0  0  0  0  0  0  0
   15.7302   21.0699   40.2545 N   0  0  0  0  0  0  0  0  0  0  0  0
   16.8750   20.9301   39.5560 C   0  0  1  0  0  0  0  0  0  0  0  0
   16.9049   20.1382   38.4312 C   0  0  1  0  0  0  0  0  0  0  0  0
   15.6481   19.4630   38.0236 C   0  0  0  0  0  0  0  0  0  0  0  0
   15.6123   18.7280   37.0121 O   0  0  0  0  0  0  0  0  0  0  0  0
   18.1539   20.1781   37.9365 N   0  0  0  0  0  0  0  0  0  0  0  0
   18.8765   20.9829   38.7494 C   0  0  0  0  0  0  0  0  0  0  0  0
   18.0842   21.4372   39.7337 N   0  0  1  0  0  0  0  0  0  0  0  0
  1  2  1  0  0  0  0
  3  1  1  6  0  0  0
  3  4  1  0  0  0  0
  3  5  1  0  0  0  0
  5  6  1  1  0  0  0
  5  7  1  0  0  0  0
  7  8  1  0  0  0  0
  8  4  1  6  0  0  0
  8 19  1  0  0  0  0
  9 15  1  0  0  0  0
  9 10  1  0  0  0  0
 10 11  1  6  0  0  0
 10 12  1  0  0  0  0
 13 12  1  6  0  0  0
 13 14  1  0  0  0  0
 13 19  1  0  0  0  0
 14 15  1  6  0  0  0
 14 17  1  0  0  0  0
 15 16  2  0  0  0  0
 17 18  1  0  0  0  0
 19 18  1  6  0  0  0
M  END
>  <CHROM.1>
66.52050828,-73.87631237,17.45754644,22.00466762,39.67744704,0.88560148,0.19086015
0.56175048

>  <Name>
ligand

>  <RI>
0

>  <Rbt.Current_Directory>
/home/itssahil/PROJECTS/Mol_Feturizer/New_Systems/rnas/3SKL

>  <Rbt.Executable>
rbdock ($Id: //depot/dev/client3/rdock/2013.1/src/exe/rbdock.cxx#4 $)

>  <Rbt.Library>
libRbt.so (2013.1, Build901 2013/11/27)

>  <Rbt.Parameter_File>
/export/apps/rDock/src/rDock_2013.1_src/data/scripts/dock_solv.prm

>  <Rbt.Receptor>
prm/pocket_docking_8.prm

>  <SCORE>
-11.556

>  <SCORE.INTER>
-11.5113

>  <SCORE.INTER.CONST>
1

>  <SCORE.INTER.POLAR>
0

>  <SCORE.INTER.ROT>
2

>  <SCORE.INTER.SOLV>
11.3328

>  <SCORE.INTER.VDW>
-16.3852

>  <SCORE.INTER.norm>
-0.60586

>  <SCORE.INTRA>
-0.0446219

>  <SCORE.INTRA.DIHEDRAL>
-0.160963

>  <SCORE.INTRA.DIHEDRAL.0>
1.50031

>  <SCORE.INTRA.POLAR>
0

>  <SCORE.INTRA.POLAR.0>
0

>  <SCORE.INTRA.REPUL>
0

>  <SCORE.INTRA.REPUL.0>
0

>  <SCORE.INTRA.SOLV>
-0.561506

>  <SCORE.INTRA.SOLV.lig_0>
-37.9941

>  <SCORE.INTRA.VDW>
0.316613

>  <SCORE.INTRA.VDW.0>
-0.964461

>  <SCORE.INTRA.norm>
-0.00234852

>  <SCORE.RESTR>
0

>  <SCORE.RESTR.CAVITY>
0

>  <SCORE.RESTR.norm>
0

>  <SCORE.SYSTEM>
0

>  <SCORE.SYSTEM.CONST>
0

>  <SCORE.SYSTEM.DIHEDRAL>
0

>  <SCORE.SYSTEM.SOLV>
0

>  <SCORE.SYSTEM.norm>
0

>  <SCORE.heavy>
19

>  <SCORE.norm>
-0.608208

>  <RMSD>
7.760

$$$$
ligand
 OpenBabel11021811483D
libRbt.so/2013.1/901 2013/11/27
 19 21  0  0  0  0  0  0  0  0999 V2000
   19.7493   31.0240   34.4995 C   0  0  0  0  0  0  0  0  0  0  0  0
   19.0204   30.3715   35.5539 O   0  0  0  0  0  0  0  0  0  0  0  0
   20.3872   30.0041   33.5504 C   0  0  1  0  0  0  0  0  0  0  0  0
   21.0770   30.6679   32.4916 O   0  0  0  0  0  0  0  0  0  0  0  0
   21.4033   29.1299   34.2604 C   0  0  1  0  0  0  0  0  0  0  0  0
   21.1929   27.7761   33.8571 O   0  0  0  0  0  0  0  0  0  0  0  0
   22.7665   29.5771   33.7832 C   0  0  0  0  0  0  0  0  0  0  0  0
   22.4902   30.4171   32.5495 C   0  0  2  0  0  0  0  0  0  0  0  0
   23.4204   34.6001   35.4469 N   0  0  0  0  0  0  0  0  0  0  0  0
   22.6543   33.5086   35.6863 C   0  0  2  0  0  0  0  0  0  0  0  0
   21.9852   33.3931   36.8528 N   0  0  0  0  0  0  0  0  0  0  0  0
   22.5372   32.5143   34.7810 N   0  0  0  0  0  0  0  0  0  0  0  0
   23.1772   32.5618   33.5951 C   0  0  1  0  0  0  0  0  0  0  0  0
   23.9691   33.6422   33.2812 C   0  0  1  0  0  0  0  0  0  0  0  0
   24.0920   34.7282   34.2847 C   0  0  0  0  0  0  0  0  0  0  0  0
   24.7949   35.7375   34.0567 O   0  0  0  0  0  0  0  0  0  0  0  0
   24.4806   33.4317   32.0563 N   0  0  0  0  0  0  0  0  0  0  0  0
   24.0061   32.2390   31.6285 C   0  0  0  0  0  0  0  0  0  0  0  0
   23.2125   31.7169   32.5774 N   0  0  1  0  0  0  0  0  0  0  0  0
  1  2  1  0  0  0  0
  3  1  1  1  0  0  0
  3  4  1  0  0  0  0
  3  5  1  0  0  0  0
  5  6  1  6  0  0  0
  5  7  1  0  0  0  0
  7  8  1  0  0  0  0
  8  4  1  1  0  0  0
  8 19  1  0  0  0  0
  9 15  1  0  0  0  0
  9 10  1  0  0  0  0
 10 11  1  1  0  0  0
 10 12  1  0  0  0  0
 13 12  1  1  0  0  0
 13 14  1  0  0  0  0
 13 19  1  0  0  0  0
 14 15  1  1  0  0  0
 14 17  1  0  0  0  0
 15 16  2  0  0  0  0
 17 18  1  0  0  0  0
 19 18  1  1  0  0  0
M  END
>  <CHROM.1>
178.50872839,68.34174228,22.38274433,31.89537225,33.95280389,2.45793085,-0.76131024
-2.42959880

>  <Name>
ligand

>  <RI>
0

>  <Rbt.Current_Directory>
/home/itssahil/PROJECTS/Mol_Feturizer/New_Systems/rnas/3SKL

>  <Rbt.Executable>
rbdock ($Id: //depot/dev/client3/rdock/2013.1/src/exe/rbdock.cxx#4 $)

>  <Rbt.Library>
libRbt.so (2013.1, Build901 2013/11/27)

>  <Rbt.Parameter_File>
/export/apps/rDock/src/rDock_2013.1_src/data/scripts/dock_solv.prm

>  <Rbt.Receptor>
prm/blind_docking_80.prm

>  <SCORE>
-12.6672

>  <SCORE.INTER>
-12.0843

>  <SCORE.INTER.CONST>
1

>  <SCORE.INTER.POLAR>
0

>  <SCORE.INTER.ROT>
2

>  <SCORE.INTER.SOLV>
13.2012

>  <SCORE.INTER.VDW>
-17.3899

>  <SCORE.INTER.norm>
-0.636014

>  <SCORE.INTRA>
-0.582891

>  <SCORE.INTRA.DIHEDRAL>
-0.28055

>  <SCORE.INTRA.DIHEDRAL.0>
1.50031

>  <SCORE.INTRA.POLAR>
0

>  <SCORE.INTRA.POLAR.0>
0

>  <SCORE.INTRA.REPUL>
0

>  <SCORE.INTRA.REPUL.0>
0

>  <SCORE.INTRA.SOLV>
0.3909

>  <SCORE.INTRA.SOLV.lig_0>
-37.9941

>  <SCORE.INTRA.VDW>
-0.638066

>  <SCORE.INTRA.VDW.0>
-0.964461

>  <SCORE.INTRA.norm>
-0.0306785

>  <SCORE.RESTR>
0

>  <SCORE.RESTR.CAVITY>
0

>  <SCORE.RESTR.norm>
0

>  <SCORE.SYSTEM>
0

>  <SCORE.SYSTEM.CONST>
0

>  <SCORE.SYSTEM.DIHEDRAL>
0

>  <SCORE.SYSTEM.SOLV>
0

>  <SCORE.SYSTEM.norm>
0

>  <SCORE.heavy>
19

>  <SCORE.norm>
-0.666692

>  <RMSD>
7.817

$$$$
ligand
 OpenBabel11021811483D
libRbt.so/2013.1/901 2013/11/27
 19 21  0  0  0  0  0  0  0  0999 V2000
   19.7031   31.0857   34.5554 C   0  0  0  0  0  0  0  0  0  0  0  0
   18.9661   30.4655   35.6235 O   0  0  0  0  0  0  0  0  0  0  0  0
   20.3172   30.0375   33.6215 C   0  0  1  0  0  0  0  0  0  0  0  0
   21.0024   30.6695   32.5405 O   0  0  0  0  0  0  0  0  0  0  0  0
   21.3310   29.1664   34.3386 C   0  0  1  0  0  0  0  0  0  0  0  0
   21.0993   27.8069   33.9675 O   0  0  0  0  0  0  0  0  0  0  0  0
   22.6937   29.5861   33.8359 C   0  0  0  0  0  0  0  0  0  0  0  0
   22.4130   30.4024   32.5874 C   0  0  2  0  0  0  0  0  0  0  0  0
   23.4559   34.6200   35.3949 N   0  0  0  0  0  0  0  0  0  0  0  0
   22.6820   33.5421   35.6686 C   0  0  2  0  0  0  0  0  0  0  0  0
   22.0369   33.4539   36.8509 N   0  0  0  0  0  0  0  0  0  0  0  0
   22.5334   32.5348   34.7826 N   0  0  0  0  0  0  0  0  0  0  0  0
   23.1482   32.5551   33.5826 C   0  0  1  0  0  0  0  0  0  0  0  0
   23.9461   33.6204   33.2341 C   0  0  1  0  0  0  0  0  0  0  0  0
   24.1038   34.7210   34.2167 C   0  0  0  0  0  0  0  0  0  0  0  0
   24.8136   35.7176   33.9571 O   0  0  0  0  0  0  0  0  0  0  0  0
   24.4285   33.3838   32.0022 N   0  0  0  0  0  0  0  0  0  0  0  0
   23.9306   32.1902   31.6043 C   0  0  0  0  0  0  0  0  0  0  0  0
   23.1514   31.6935   32.5785 N   0  0  1  0  0  0  0  0  0  0  0  0
  1  2  1  0  0  0  0
  3  1  1  1  0  0  0
  3  4  1  0  0  0  0
  3  5  1  0  0  0  0
  5  6  1  6  0  0  0
  5  7  1  0  0  0  0
  7  8  1  0  0  0  0
  8  4  1  1  0  0  0
  8 19  1  0  0  0  0
  9 15  1  0  0  0  0
  9 10  1  0  0  0  0
 10 11  1  1  0  0  0
 10 12  1  0  0  0  0
 13 12  1  1  0  0  0
 13 14  1  0  0  0  0
 13 19  1  0  0  0  0
 14 15  1  1  0  0  0
 14 17  1  0  0  0  0
 15 16  2  0  0  0  0
 17 18  1  0  0  0  0
 19 18  1  1  0  0  0
M  END
>  <CHROM.1>
177.84432230,68.98017538,22.34729676,31.90769441,33.96244738,2.49055545,-0.76409509
-2.42304626

>  <Name>
ligand

>  <RI>
0

>  <Rbt.Current_Directory>
/home/itssahil/PROJECTS/Mol_Feturizer/New_Systems/rnas/3SKL

>  <Rbt.Executable>
rbdock ($Id: //depot/dev/client3/rdock/2013.1/src/exe/rbdock.cxx#4 $)

>  <Rbt.Library>
libRbt.so (2013.1, Build901 2013/11/27)

>  <Rbt.Parameter_File>
/export/apps/rDock/src/rDock_2013.1_src/data/scripts/dock_solv.prm

>  <Rbt.Receptor>
prm/blind_docking_60.prm

>  <SCORE>
-12.654

>  <SCORE.INTER>
-12.0725

>  <SCORE.INTER.CONST>
1

>  <SCORE.INTER.POLAR>
0

>  <SCORE.INTER.ROT>
2

>  <SCORE.INTER.SOLV>
13.0297

>  <SCORE.INTER.VDW>
-17.3249

>  <SCORE.INTER.norm>
-0.635395

>  <SCORE.INTRA>
-0.581515

>  <SCORE.INTRA.DIHEDRAL>
-0.271246

>  <SCORE.INTRA.DIHEDRAL.0>
1.50031

>  <SCORE.INTRA.POLAR>
0

>  <SCORE.INTRA.POLAR.0>
0

>  <SCORE.INTRA.REPUL>
0

>  <SCORE.INTRA.REPUL.0>
0

>  <SCORE.INTRA.SOLV>
0.36127

>  <SCORE.INTRA.SOLV.lig_0>
-37.9941

>  <SCORE.INTRA.VDW>
-0.626527

>  <SCORE.INTRA.VDW.0>
-0.964461

>  <SCORE.INTRA.norm>
-0.030606

>  <SCORE.RESTR>
0

>  <SCORE.RESTR.CAVITY>
0

>  <SCORE.RESTR.norm>
0

>  <SCORE.SYSTEM>
0

>  <SCORE.SYSTEM.CONST>
0

>  <SCORE.SYSTEM.DIHEDRAL>
0

>  <SCORE.SYSTEM.SOLV>
0

>  <SCORE.SYSTEM.norm>
0

>  <SCORE.heavy>
19

>  <SCORE.norm>
-0.666001

>  <RMSD>
7.820

$$$$
ligand
 OpenBabel11021811483D
libRbt.so/2013.1/901 2013/11/27
 19 21  0  0  0  0  0  0  0  0999 V2000
   19.8869   31.0634   34.9226 C   0  0  0  0  0  0  0  0  0  0  0  0
   18.9695   32.0128   34.3517 O   0  0  0  0  0  0  0  0  0  0  0  0
   20.3736   30.0594   33.8723 C   0  0  1  0  0  0  0  0  0  0  0  0
   20.9455   30.7399   32.7555 O   0  0  0  0  0  0  0  0  0  0  0  0
   21.4448   29.1384   34.4248 C   0  0  1  0  0  0  0  0  0  0  0  0
   21.1481   27.8037   34.0119 O   0  0  0  0  0  0  0  0  0  0  0  0
   22.7505   29.5675   33.7946 C   0  0  0  0  0  0  0  0  0  0  0  0
   22.3474   30.4531   32.6297 C   0  0  2  0  0  0  0  0  0  0  0  0
   23.5317   34.6420   35.4239 N   0  0  0  0  0  0  0  0  0  0  0  0
   22.7505   33.5741   35.7152 C   0  0  2  0  0  0  0  0  0  0  0  0
   22.1385   33.4896   36.9152 N   0  0  0  0  0  0  0  0  0  0  0  0
   22.5618   32.5732   34.8295 N   0  0  0  0  0  0  0  0  0  0  0  0
   23.1420   32.5903   33.6125 C   0  0  1  0  0  0  0  0  0  0  0  0
   23.9450   33.6456   33.2456 C   0  0  1  0  0  0  0  0  0  0  0  0
   24.1468   34.7392   34.2280 C   0  0  0  0  0  0  0  0  0  0  0  0
   24.8633   35.7267   33.9523 O   0  0  0  0  0  0  0  0  0  0  0  0
   24.3882   33.4078   31.9993 N   0  0  0  0  0  0  0  0  0  0  0  0
   23.8618   32.2235   31.6109 C   0  0  0  0  0  0  0  0  0  0  0  0
   23.1039   31.7334   32.6050 N   0  0  1  0  0  0  0  0  0  0  0  0
  1  2  1  0  0  0  0
  3  1  1  1  0  0  0
  3  4  1  0  0  0  0
  3  5  1  0  0  0  0
  5  6  1  6  0  0  0
  5  7  1  0  0  0  0
  7  8  1  0  0  0  0
  8  4  1  1  0  0  0
  8 19  1  0  0  0  0
  9 15  1  0  0  0  0
  9 10  1  0  0  0  0
 10 11  1  1  0  0  0
 10 12  1  0  0  0  0
 13 12  1  1  0  0  0
 13 14  1  0  0  0  0
 13 19  1  0  0  0  0
 14 15  1  1  0  0  0
 14 17  1  0  0  0  0
 15 16  2  0  0  0  0
 17 18  1  0  0  0  0
 19 18  1  1  0  0  0
M  END
>  <CHROM.1>
55.26164024,63.45165235,22.37613227,32.02237114,33.95020023,2.38639225,-0.71171463
-2.49126747

>  <Name>
ligand

>  <RI>
0

>  <Rbt.Current_Directory>
/home/itssahil/PROJECTS/Mol_Feturizer/New_Systems/rnas/3SKL

>  <Rbt.Executable>
rbdock ($Id: //depot/dev/client3/rdock/2013.1/src/exe/rbdock.cxx#4 $)

>  <Rbt.Library>
libRbt.so (2013.1, Build901 2013/11/27)

>  <Rbt.Parameter_File>
/export/apps/rDock/src/rDock_2013.1_src/data/scripts/dock_solv.prm

>  <Rbt.Receptor>
prm/blind_docking_60.prm

>  <SCORE>
-13.0154

>  <SCORE.INTER>
-12.3338

>  <SCORE.INTER.CONST>
1

>  <SCORE.INTER.POLAR>
0

>  <SCORE.INTER.ROT>
2

>  <SCORE.INTER.SOLV>
13.9639

>  <SCORE.INTER.VDW>
-17.8105

>  <SCORE.INTER.norm>
-0.649147

>  <SCORE.INTRA>
-0.681626

>  <SCORE.INTRA.DIHEDRAL>
-0.214893

>  <SCORE.INTRA.DIHEDRAL.0>
1.50031

>  <SCORE.INTRA.POLAR>
0

>  <SCORE.INTRA.POLAR.0>
0

>  <SCORE.INTRA.REPUL>
0

>  <SCORE.INTRA.REPUL.0>
0

>  <SCORE.INTRA.SOLV>
0.549079

>  <SCORE.INTRA.SOLV.lig_0>
-37.9941

>  <SCORE.INTRA.VDW>
-0.848719

>  <SCORE.INTRA.VDW.0>
-0.964461

>  <SCORE.INTRA.norm>
-0.035875

>  <SCORE.RESTR>
0

>  <SCORE.RESTR.CAVITY>
0

>  <SCORE.RESTR.norm>
0

>  <SCORE.SYSTEM>
0

>  <SCORE.SYSTEM.CONST>
0

>  <SCORE.SYSTEM.DIHEDRAL>
0

>  <SCORE.SYSTEM.SOLV>
0

>  <SCORE.SYSTEM.norm>
0

>  <SCORE.heavy>
19

>  <SCORE.norm>
-0.685022

>  <RMSD>
7.868

$$$$
ligand
 OpenBabel11021811483D
libRbt.so/2013.1/901 2013/11/27
 19 21  0  0  0  0  0  0  0  0999 V2000
   19.4574   28.7116   34.9477 C   0  0  0  0  0  0  0  0  0  0  0  0
   20.5420   29.0342   35.8355 O   0  0  0  0  0  0  0  0  0  0  0  0
   19.7432   29.1945   33.5218 C   0  0  1  0  0  0  0  0  0  0  0  0
   19.9895   30.6004   33.5087 O   0  0  0  0  0  0  0  0  0  0  0  0
   20.9707   28.5250   32.9338 C   0  0  1  0  0  0  0  0  0  0  0  0
   20.6692   28.1267   31.5958 O   0  0  0  0  0  0  0  0  0  0  0  0
   22.0598   29.5732   32.8994 C   0  0  0  0  0  0  0  0  0  0  0  0
   21.3367   30.8919   33.1043 C   0  0  2  0  0  0  0  0  0  0  0  0
   24.2605   35.0975   33.8272 N   0  0  0  0  0  0  0  0  0  0  0  0
   23.8130   34.5140   32.6892 C   0  0  2  0  0  0  0  0  0  0  0  0
   24.1203   35.0476   31.4882 N   0  0  0  0  0  0  0  0  0  0  0  0
   23.0551   33.3975   32.7176 N   0  0  0  0  0  0  0  0  0  0  0  0
   22.7087   32.8102   33.8809 C   0  0  1  0  0  0  0  0  0  0  0  0
   23.1313   33.3445   35.0763 C   0  0  1  0  0  0  0  0  0  0  0  0
   23.9621   34.5730   35.0330 C   0  0  0  0  0  0  0  0  0  0  0  0
   24.3791   35.1044   36.0858 O   0  0  0  0  0  0  0  0  0  0  0  0
   22.6474   32.5710   36.0633 N   0  0  0  0  0  0  0  0  0  0  0  0
   21.9398   31.5776   35.4774 C   0  0  0  0  0  0  0  0  0  0  0  0
   21.9835   31.7353   34.1447 N   0  0  1  0  0  0  0  0  0  0  0  0
  1  2  1  0  0  0  0
  3  1  1  1  0  0  0
  3  4  1  0  0  0  0
  3  5  1  0  0  0  0
  5  6  1  6  0  0  0
  5  7  1  0  0  0  0
  7  8  1  0  0  0  0
  8  4  1  1  0  0  0
  8 19  1  0  0  0  0
  9 15  1  0  0  0  0
  9 10  1  0  0  0  0
 10 11  1  1  0  0  0
 10 12  1  0  0  0  0
 13 12  1  1  0  0  0
 13 14  1  0  0  0  0
 13 19  1  0  0  0  0
 14 15  1  1  0  0  0
 14 17  1  0  0  0  0
 15 16  2  0  0  0  0
 17 18  1  0  0  0  0
 19 18  1  1  0  0  0
M  END
>  <CHROM.1>
-57.17463265,-134.85196887,22.10235116,31.74478449,33.93784397,2.94255726
-0.99861323,-1.71768239

>  <Name>
ligand

>  <RI>
0

>  <Rbt.Current_Directory>
/home/itssahil/PROJECTS/Mol_Feturizer/New_Systems/rnas/3SKL

>  <Rbt.Executable>
rbdock ($Id: //depot/dev/client3/rdock/2013.1/src/exe/rbdock.cxx#4 $)

>  <Rbt.Library>
libRbt.so (2013.1, Build901 2013/11/27)

>  <Rbt.Parameter_File>
/export/apps/rDock/src/rDock_2013.1_src/data/scripts/dock_solv.prm

>  <Rbt.Receptor>
prm/pocket_docking_8.prm

>  <SCORE>
-10.0602

>  <SCORE.INTER>
-9.48752

>  <SCORE.INTER.CONST>
1

>  <SCORE.INTER.POLAR>
0

>  <SCORE.INTER.ROT>
2

>  <SCORE.INTER.SOLV>
9.58568

>  <SCORE.INTER.VDW>
-14.4536

>  <SCORE.INTER.norm>
-0.499343

>  <SCORE.INTRA>
-0.572676

>  <SCORE.INTRA.DIHEDRAL>
-0.250685

>  <SCORE.INTRA.DIHEDRAL.0>
1.50031

>  <SCORE.INTRA.POLAR>
0

>  <SCORE.INTRA.POLAR.0>
0

>  <SCORE.INTRA.REPUL>
0

>  <SCORE.INTRA.REPUL.0>
0

>  <SCORE.INTRA.SOLV>
0.0467134

>  <SCORE.INTRA.SOLV.lig_0>
-37.9941

>  <SCORE.INTRA.VDW>
-0.470691

>  <SCORE.INTRA.VDW.0>
-0.964461

>  <SCORE.INTRA.norm>
-0.0301409

>  <SCORE.RESTR>
0

>  <SCORE.RESTR.CAVITY>
0

>  <SCORE.RESTR.norm>
0

>  <SCORE.SYSTEM>
0

>  <SCORE.SYSTEM.CONST>
0

>  <SCORE.SYSTEM.DIHEDRAL>
0

>  <SCORE.SYSTEM.SOLV>
0

>  <SCORE.SYSTEM.norm>
0

>  <SCORE.heavy>
19

>  <SCORE.norm>
-0.529484

>  <RMSD>
7.880

$$$$
ligand
 OpenBabel11021811483D
libRbt.so/2013.1/901 2013/11/27
 19 21  0  0  0  0  0  0  0  0999 V2000
   23.7386   32.3228   32.2625 C   0  0  0  0  0  0  0  0  0  0  0  0
   22.8436   33.4095   32.5570 O   0  0  0  0  0  0  0  0  0  0  0  0
   23.3036   31.0361   32.9716 C   0  0  1  0  0  0  0  0  0  0  0  0
   23.3558   31.2023   34.3883 O   0  0  0  0  0  0  0  0  0  0  0  0
   21.8776   30.6534   32.6236 C   0  0  1  0  0  0  0  0  0  0  0  0
   21.8405   29.2513   32.3542 O   0  0  0  0  0  0  0  0  0  0  0  0
   21.0419   30.9389   33.8509 C   0  0  0  0  0  0  0  0  0  0  0  0
   22.0476   31.1109   34.9746 C   0  0  2  0  0  0  0  0  0  0  0  0
   23.9007   35.8014   36.1251 N   0  0  0  0  0  0  0  0  0  0  0  0
   24.3902   34.8280   35.3198 C   0  0  2  0  0  0  0  0  0  0  0  0
   25.5481   35.0191   34.6529 N   0  0  0  0  0  0  0  0  0  0  0  0
   23.7459   33.6530   35.1583 N   0  0  0  0  0  0  0  0  0  0  0  0
   22.5846   33.3931   35.7923 C   0  0  1  0  0  0  0  0  0  0  0  0
   22.0303   34.3333   36.6300 C   0  0  1  0  0  0  0  0  0  0  0  0
   22.7463   35.6220   36.7983 C   0  0  0  0  0  0  0  0  0  0  0  0
   22.2943   36.5152   37.5483 O   0  0  0  0  0  0  0  0  0  0  0  0
   20.8894   33.8205   37.1216 N   0  0  0  0  0  0  0  0  0  0  0  0
   20.7502   32.5835   36.5914 C   0  0  0  0  0  0  0  0  0  0  0  0
   21.7909   32.3345   35.7803 N   0  0  1  0  0  0  0  0  0  0  0  0
  1  2  1  0  0  0  0
  3  1  1  6  0  0  0
  3  4  1  0  0  0  0
  3  5  1  0  0  0  0
  5  6  1  1  0  0  0
  5  7  1  0  0  0  0
  7  8  1  0  0  0  0
  8  4  1  6  0  0  0
  8 19  1  0  0  0  0
  9 15  1  0  0  0  0
  9 10  1  0  0  0  0
 10 11  1  6  0  0  0
 10 12  1  0  0  0  0
 13 12  1  6  0  0  0
 13 14  1  0  0  0  0
 13 19  1  0  0  0  0
 14 15  1  6  0  0  0
 14 17  1  0  0  0  0
 15 16  2  0  0  0  0
 17 18  1  0  0  0  0
 19 18  1  6  0  0  0
M  END
>  <CHROM.1>
-63.00518052,8.01871527,22.67622458,33.01129487,34.86517094,-1.70899648,0.66136491
0.74068168

>  <Name>
ligand

>  <RI>
0

>  <Rbt.Current_Directory>
/home/itssahil/PROJECTS/Mol_Feturizer/New_Systems/rnas/3SKL

>  <Rbt.Executable>
rbdock ($Id: //depot/dev/client3/rdock/2013.1/src/exe/rbdock.cxx#4 $)

>  <Rbt.Library>
libRbt.so (2013.1, Build901 2013/11/27)

>  <Rbt.Parameter_File>
/export/apps/rDock/src/rDock_2013.1_src/data/scripts/dock_solv.prm

>  <Rbt.Receptor>
prm/pocket_docking_8.prm

>  <SCORE>
-14.4309

>  <SCORE.INTER>
-14.4691

>  <SCORE.INTER.CONST>
1

>  <SCORE.INTER.POLAR>
0

>  <SCORE.INTER.ROT>
2

>  <SCORE.INTER.SOLV>
11.6553

>  <SCORE.INTER.VDW>
-18.4645

>  <SCORE.INTER.norm>
-0.761531

>  <SCORE.INTRA>
0.0382023

>  <SCORE.INTRA.DIHEDRAL>
-0.276218

>  <SCORE.INTRA.DIHEDRAL.0>
1.50031

>  <SCORE.INTRA.POLAR>
0

>  <SCORE.INTRA.POLAR.0>
0

>  <SCORE.INTRA.REPUL>
0

>  <SCORE.INTRA.REPUL.0>
0

>  <SCORE.INTRA.SOLV>
1.65052

>  <SCORE.INTRA.SOLV.lig_0>
-37.9941

>  <SCORE.INTRA.VDW>
-0.648948

>  <SCORE.INTRA.VDW.0>
-0.964461

>  <SCORE.INTRA.norm>
0.00201065

>  <SCORE.RESTR>
0

>  <SCORE.RESTR.CAVITY>
0

>  <SCORE.RESTR.norm>
0

>  <SCORE.SYSTEM>
0

>  <SCORE.SYSTEM.CONST>
0

>  <SCORE.SYSTEM.DIHEDRAL>
0

>  <SCORE.SYSTEM.SOLV>
0

>  <SCORE.SYSTEM.norm>
0

>  <SCORE.heavy>
19

>  <SCORE.norm>
-0.759521

>  <RMSD>
8.099

$$$$
ligand
 OpenBabel11021811483D
libRbt.so/2013.1/901 2013/11/27
 19 21  0  0  0  0  0  0  0  0999 V2000
   23.9418   32.3172   32.4645 C   0  0  0  0  0  0  0  0  0  0  0  0
   24.1373   32.1219   31.0530 O   0  0  0  0  0  0  0  0  0  0  0  0
   23.4018   31.0482   33.1322 C   0  0  1  0  0  0  0  0  0  0  0  0
   23.3634   31.2055   34.5503 O   0  0  0  0  0  0  0  0  0  0  0  0
   21.9876   30.7318   32.6839 C   0  0  1  0  0  0  0  0  0  0  0  0
   21.9066   29.3340   32.4019 O   0  0  0  0  0  0  0  0  0  0  0  0
   21.0827   31.0491   33.8529 C   0  0  0  0  0  0  0  0  0  0  0  0
   22.0150   31.1706   35.0445 C   0  0  2  0  0  0  0  0  0  0  0  0
   23.8576   35.8780   36.1410 N   0  0  0  0  0  0  0  0  0  0  0  0
   24.3463   34.8988   35.3423 C   0  0  2  0  0  0  0  0  0  0  0  0
   25.5000   35.0876   34.6677 N   0  0  0  0  0  0  0  0  0  0  0  0
   23.7053   33.7201   35.1953 N   0  0  0  0  0  0  0  0  0  0  0  0
   22.5482   33.4622   35.8378 C   0  0  1  0  0  0  0  0  0  0  0  0
   21.9950   34.4083   36.6694 C   0  0  1  0  0  0  0  0  0  0  0  0
   22.7072   35.7010   36.8218 C   0  0  0  0  0  0  0  0  0  0  0  0
   22.2560   36.5997   37.5657 O   0  0  0  0  0  0  0  0  0  0  0  0
   20.8584   33.8963   37.1718 N   0  0  0  0  0  0  0  0  0  0  0  0
   20.7208   32.6538   36.6540 C   0  0  0  0  0  0  0  0  0  0  0  0
   21.7581   32.4008   35.8399 N   0  0  1  0  0  0  0  0  0  0  0  0
  1  2  1  0  0  0  0
  3  1  1  6  0  0  0
  3  4  1  0  0  0  0
  3  5  1  0  0  0  0
  5  6  1  1  0  0  0
  5  7  1  0  0  0  0
  7  8  1  0  0  0  0
  8  4  1  6  0  0  0
  8 19  1  0  0  0  0
  9 15  1  0  0  0  0
  9 10  1  0  0  0  0
 10 11  1  6  0  0  0
 10 12  1  0  0  0  0
 13 12  1  6  0  0  0
 13 14  1  0  0  0  0
 13 19  1  0  0  0  0
 14 15  1  6  0  0  0
 14 17  1  0  0  0  0
 15 16  2  0  0  0  0
 17 18  1  0  0  0  0
 19 18  1  6  0  0  0
M  END
>  <CHROM.1>
173.13334080,13.17469434,22.76054756,32.99171862,34.83081192,-1.58224104
0.66650816,0.72902149

>  <Name>
ligand

>  <RI>
0

>  <Rbt.Current_Directory>
/home/itssahil/PROJECTS/Mol_Feturizer/New_Systems/rnas/3SKL

>  <Rbt.Executable>
rbdock ($Id: //depot/dev/client3/rdock/2013.1/src/exe/rbdock.cxx#4 $)

>  <Rbt.Library>
libRbt.so (2013.1, Build901 2013/11/27)

>  <Rbt.Parameter_File>
/export/apps/rDock/src/rDock_2013.1_src/data/scripts/dock_solv.prm

>  <Rbt.Receptor>
prm/blind_docking_60.prm

>  <SCORE>
-14.5608

>  <SCORE.INTER>
-14.5388

>  <SCORE.INTER.CONST>
1

>  <SCORE.INTER.POLAR>
0

>  <SCORE.INTER.ROT>
2

>  <SCORE.INTER.SOLV>
12.6979

>  <SCORE.INTER.VDW>
-18.8585

>  <SCORE.INTER.norm>
-0.765199

>  <SCORE.INTRA>
-0.0220474

>  <SCORE.INTRA.DIHEDRAL>
-0.147047

>  <SCORE.INTRA.DIHEDRAL.0>
1.50031

>  <SCORE.INTRA.POLAR>
0

>  <SCORE.INTRA.POLAR.0>
0

>  <SCORE.INTRA.REPUL>
0

>  <SCORE.INTRA.REPUL.0>
0

>  <SCORE.INTRA.SOLV>
0.575906

>  <SCORE.INTRA.SOLV.lig_0>
-37.9941

>  <SCORE.INTRA.VDW>
-0.236477

>  <SCORE.INTRA.VDW.0>
-0.964461

>  <SCORE.INTRA.norm>
-0.00116039

>  <SCORE.RESTR>
0

>  <SCORE.RESTR.CAVITY>
0

>  <SCORE.RESTR.norm>
0

>  <SCORE.SYSTEM>
0

>  <SCORE.SYSTEM.CONST>
0

>  <SCORE.SYSTEM.DIHEDRAL>
0

>  <SCORE.SYSTEM.SOLV>
0

>  <SCORE.SYSTEM.norm>
0

>  <SCORE.heavy>
19

>  <SCORE.norm>
-0.766359

>  <RMSD>
8.138

$$$$
ligand
 OpenBabel11021811483D
libRbt.so/2013.1/901 2013/11/27
 19 21  0  0  0  0  0  0  0  0999 V2000
   20.8316   28.3675   32.1851 C   0  0  0  0  0  0  0  0  0  0  0  0
   20.7211   29.6792   31.6057 O   0  0  0  0  0  0  0  0  0  0  0  0
   21.4510   28.4281   33.5853 C   0  0  1  0  0  0  0  0  0  0  0  0
   22.7406   29.0379   33.5369 O   0  0  0  0  0  0  0  0  0  0  0  0
   20.6082   29.2514   34.5408 C   0  0  1  0  0  0  0  0  0  0  0  0
   20.5104   28.5450   35.7782 O   0  0  0  0  0  0  0  0  0  0  0  0
   21.3565   30.5446   34.7725 C   0  0  0  0  0  0  0  0  0  0  0  0
   22.7607   30.2781   34.2616 C   0  0  2  0  0  0  0  0  0  0  0  0
   23.8963   35.3201   34.0457 N   0  0  0  0  0  0  0  0  0  0  0  0
   23.4182   34.5619   35.0617 C   0  0  2  0  0  0  0  0  0  0  0  0
   23.1704   35.1204   36.2652 N   0  0  0  0  0  0  0  0  0  0  0  0
   23.1785   33.2426   34.9077 N   0  0  0  0  0  0  0  0  0  0  0  0
   23.4033   32.6177   33.7341 C   0  0  1  0  0  0  0  0  0  0  0  0
   23.8842   33.3254   32.6566 C   0  0  1  0  0  0  0  0  0  0  0  0
   24.1459   34.7745   32.8381 C   0  0  0  0  0  0  0  0  0  0  0  0
   24.5807   35.4722   31.8954 O   0  0  0  0  0  0  0  0  0  0  0  0
   24.0157   32.4676   31.6303 N   0  0  0  0  0  0  0  0  0  0  0  0
   23.6193   31.2530   32.0758 C   0  0  0  0  0  0  0  0  0  0  0  0
   23.2491   31.3573   33.3622 N   0  0  1  0  0  0  0  0  0  0  0  0
  1  2  1  0  0  0  0
  3  1  1  6  0  0  0
  3  4  1  0  0  0  0
  3  5  1  0  0  0  0
  5  6  1  1  0  0  0
  5  7  1  0  0  0  0
  7  8  1  0  0  0  0
  8  4  1  6  0  0  0
  8 19  1  0  0  0  0
  9 15  1  0  0  0  0
  9 10  1  0  0  0  0
 10 11  1  1  0  0  0
 10 12  1  0  0  0  0
 13 12  1  1  0  0  0
 13 14  1  0  0  0  0
 13 19  1  0  0  0  0
 14 15  1  1  0  0  0
 14 17  1  0  0  0  0
 15 16  2  0  0  0  0
 17 18  1  0  0  0  0
 19 18  1  1  0  0  0
M  END
>  <CHROM.1>
-58.07732430,-178.93883743,22.66999123,31.70636890,33.61255167,-2.65364607
1.05912665,1.01023216

>  <Name>
ligand

>  <RI>
0

>  <Rbt.Current_Directory>
/home/itssahil/PROJECTS/Mol_Feturizer/New_Systems/rnas/3SKL

>  <Rbt.Executable>
rbdock ($Id: //depot/dev/client3/rdock/2013.1/src/exe/rbdock.cxx#4 $)

>  <Rbt.Library>
libRbt.so (2013.1, Build901 2013/11/27)

>  <Rbt.Parameter_File>
/export/apps/rDock/src/rDock_2013.1_src/data/scripts/dock_solv.prm

>  <Rbt.Receptor>
prm/pocket_docking_8.prm

>  <SCORE>
-15.7248

>  <SCORE.INTER>
-15.3251

>  <SCORE.INTER.CONST>
1

>  <SCORE.INTER.POLAR>
0

>  <SCORE.INTER.ROT>
2

>  <SCORE.INTER.SOLV>
8.72632

>  <SCORE.INTER.VDW>
-18.0588

>  <SCORE.INTER.norm>
-0.806582

>  <SCORE.INTRA>
-0.399743

>  <SCORE.INTRA.DIHEDRAL>
-0.283405

>  <SCORE.INTRA.DIHEDRAL.0>
1.50031

>  <SCORE.INTRA.POLAR>
0

>  <SCORE.INTRA.POLAR.0>
0

>  <SCORE.INTRA.REPUL>
0

>  <SCORE.INTRA.REPUL.0>
0

>  <SCORE.INTRA.SOLV>
-0.00225669

>  <SCORE.INTRA.SOLV.lig_0>
-37.9941

>  <SCORE.INTRA.VDW>
-0.256912

>  <SCORE.INTRA.VDW.0>
-0.964461

>  <SCORE.INTRA.norm>
-0.0210391

>  <SCORE.RESTR>
0

>  <SCORE.RESTR.CAVITY>
0

>  <SCORE.RESTR.norm>
0

>  <SCORE.SYSTEM>
0

>  <SCORE.SYSTEM.CONST>
0

>  <SCORE.SYSTEM.DIHEDRAL>
0

>  <SCORE.SYSTEM.SOLV>
0

>  <SCORE.SYSTEM.norm>
0

>  <SCORE.heavy>
19

>  <SCORE.norm>
-0.827621

>  <RMSD>
8.149

$$$$
ligand
 OpenBabel11021811483D
libRbt.so/2013.1/901 2013/11/27
 19 21  0  0  0  0  0  0  0  0999 V2000
   20.8394   28.4038   32.1995 C   0  0  0  0  0  0  0  0  0  0  0  0
   20.7497   29.7199   31.6262 O   0  0  0  0  0  0  0  0  0  0  0  0
   21.4573   28.4484   33.6010 C   0  0  1  0  0  0  0  0  0  0  0  0
   22.7601   29.0299   33.5561 O   0  0  0  0  0  0  0  0  0  0  0  0
   20.6309   29.2882   34.5564 C   0  0  1  0  0  0  0  0  0  0  0  0
   20.5154   28.5819   35.7924 O   0  0  0  0  0  0  0  0  0  0  0  0
   21.4070   30.5643   34.7919 C   0  0  0  0  0  0  0  0  0  0  0  0
   22.8059   30.2680   34.2831 C   0  0  2  0  0  0  0  0  0  0  0  0
   23.8793   35.3216   34.0241 N   0  0  0  0  0  0  0  0  0  0  0  0
   23.3662   34.5750   35.0315 C   0  0  2  0  0  0  0  0  0  0  0  0
   23.0561   35.1514   36.2119 N   0  0  0  0  0  0  0  0  0  0  0  0
   23.1523   33.2496   34.8916 N   0  0  0  0  0  0  0  0  0  0  0  0
   23.4390   32.6070   33.7413 C   0  0  1  0  0  0  0  0  0  0  0  0
   23.9584   33.3021   32.6736 C   0  0  1  0  0  0  0  0  0  0  0  0
   24.1912   34.7580   32.8395 C   0  0  0  0  0  0  0  0  0  0  0  0
   24.6586   35.4449   31.9044 O   0  0  0  0  0  0  0  0  0  0  0  0
   24.1484   32.4279   31.6705 N   0  0  0  0  0  0  0  0  0  0  0  0
   23.7493   31.2159   32.1204 C   0  0  0  0  0  0  0  0  0  0  0  0
   23.3195   31.3379   33.3866 N   0  0  1  0  0  0  0  0  0  0  0  0
  1  2  1  0  0  0  0
  3  1  1  6  0  0  0
  3  4  1  0  0  0  0
  3  5  1  0  0  0  0
  5  6  1  1  0  0  0
  5  7  1  0  0  0  0
  7  8  1  0  0  0  0
  8  4  1  6  0  0  0
  8 19  1  0  0  0  0
  9 15  1  0  0  0  0
  9 10  1  0  0  0  0
 10 11  1  1  0  0  0
 10 12  1  0  0  0  0
 13 12  1  1  0  0  0
 13 14  1  0  0  0  0
 13 19  1  0  0  0  0
 14 15  1  1  0  0  0
 14 17  1  0  0  0  0
 15 16  2  0  0  0  0
 17 18  1  0  0  0  0
 19 18  1  1  0  0  0
M  END
>  <CHROM.1>
-58.49778227,177.61185598,22.69800105,31.70983700,33.62126402,-2.59967415
1.03996074,0.93911244

>  <Name>
ligand

>  <RI>
0

>  <Rbt.Current_Directory>
/home/itssahil/PROJECTS/Mol_Feturizer/New_Systems/rnas/3SKL

>  <Rbt.Executable>
rbdock ($Id: //depot/dev/client3/rdock/2013.1/src/exe/rbdock.cxx#4 $)

>  <Rbt.Library>
libRbt.so (2013.1, Build901 2013/11/27)

>  <Rbt.Parameter_File>
/export/apps/rDock/src/rDock_2013.1_src/data/scripts/dock_solv.prm

>  <Rbt.Receptor>
prm/pocket_docking_8.prm

>  <SCORE>
-15.7204

>  <SCORE.INTER>
-15.3535

>  <SCORE.INTER.CONST>
1

>  <SCORE.INTER.POLAR>
0

>  <SCORE.INTER.ROT>
2

>  <SCORE.INTER.SOLV>
8.83913

>  <SCORE.INTER.VDW>
-18.1154

>  <SCORE.INTER.norm>
-0.808079

>  <SCORE.INTRA>
-0.366904

>  <SCORE.INTRA.DIHEDRAL>
-0.293222

>  <SCORE.INTRA.DIHEDRAL.0>
1.50031

>  <SCORE.INTRA.POLAR>
0

>  <SCORE.INTRA.POLAR.0>
0

>  <SCORE.INTRA.REPUL>
0

>  <SCORE.INTRA.REPUL.0>
0

>  <SCORE.INTRA.SOLV>
-0.0095062

>  <SCORE.INTRA.SOLV.lig_0>
-37.9941

>  <SCORE.INTRA.VDW>
-0.21554

>  <SCORE.INTRA.VDW.0>
-0.964461

>  <SCORE.INTRA.norm>
-0.0193107

>  <SCORE.RESTR>
0

>  <SCORE.RESTR.CAVITY>
0

>  <SCORE.RESTR.norm>
0

>  <SCORE.SYSTEM>
0

>  <SCORE.SYSTEM.CONST>
0

>  <SCORE.SYSTEM.DIHEDRAL>
0

>  <SCORE.SYSTEM.SOLV>
0

>  <SCORE.SYSTEM.norm>
0

>  <SCORE.heavy>
19

>  <SCORE.norm>
-0.82739

>  <RMSD>
8.155

$$$$
ligand
 OpenBabel11021811483D
libRbt.so/2013.1/901 2013/11/27
 19 21  0  0  0  0  0  0  0  0999 V2000
   20.9089   28.3900   32.1843 C   0  0  0  0  0  0  0  0  0  0  0  0
   20.8037   29.6997   31.5992 O   0  0  0  0  0  0  0  0  0  0  0  0
   21.5002   28.4574   33.5963 C   0  0  1  0  0  0  0  0  0  0  0  0
   22.7954   29.0567   33.5693 O   0  0  0  0  0  0  0  0  0  0  0  0
   20.6448   29.2950   34.5278 C   0  0  1  0  0  0  0  0  0  0  0  0
   20.5163   28.5996   35.7686 O   0  0  0  0  0  0  0  0  0  0  0  0
   21.3986   30.5841   34.7643 C   0  0  0  0  0  0  0  0  0  0  0  0
   22.8106   30.3025   34.2842 C   0  0  2  0  0  0  0  0  0  0  0  0
   23.8886   35.3547   34.0175 N   0  0  0  0  0  0  0  0  0  0  0  0
   23.3741   34.6102   35.0258 C   0  0  2  0  0  0  0  0  0  0  0  0
   23.0637   35.1888   36.2051 N   0  0  0  0  0  0  0  0  0  0  0  0
   23.1592   33.2848   34.8880 N   0  0  0  0  0  0  0  0  0  0  0  0
   23.4461   32.6400   33.7390 C   0  0  1  0  0  0  0  0  0  0  0  0
   23.9668   33.3329   32.6704 C   0  0  1  0  0  0  0  0  0  0  0  0
   24.2007   34.7889   32.8341 C   0  0  0  0  0  0  0  0  0  0  0  0
   24.6694   35.4738   31.8982 O   0  0  0  0  0  0  0  0  0  0  0  0
   24.1568   32.4569   31.6689 N   0  0  0  0  0  0  0  0  0  0  0  0
   23.7563   31.2459   32.1205 C   0  0  0  0  0  0  0  0  0  0  0  0
   23.3257   31.3704   33.3863 N   0  0  1  0  0  0  0  0  0  0  0  0
  1  2  1  0  0  0  0
  3  1  1  6  0  0  0
  3  4  1  0  0  0  0
  3  5  1  0  0  0  0
  5  6  1  1  0  0  0
  5  7  1  0  0  0  0
  7  8  1  0  0  0  0
  8  4  1  6  0  0  0
  8 19  1  0  0  0  0
  9 15  1  0  0  0  0
  9 10  1  0  0  0  0
 10 11  1  1  0  0  0
 10 12  1  0  0  0  0
 13 12  1  1  0  0  0
 13 14  1  0  0  0  0
 13 19  1  0  0  0  0
 14 15  1  1  0  0  0
 14 17  1  0  0  0  0
 15 16  2  0  0  0  0
 17 18  1  0  0  0  0
 19 18  1  1  0  0  0
M  END
>  <CHROM.1>
-58.86103380,179.02125106,22.71443473,31.73223957,33.61290961,-2.58497007
1.04083659,0.92719643

>  <Name>
ligand

>  <RI>
0

>  <Rbt.Current_Directory>
/home/itssahil/PROJECTS/Mol_Feturizer/New_Systems/rnas/3SKL

>  <Rbt.Executable>
rbdock ($Id: //depot/dev/client3/rdock/2013.1/src/exe/rbdock.cxx#4 $)

>  <Rbt.Library>
libRbt.so (2013.1, Build901 2013/11/27)

>  <Rbt.Parameter_File>
/export/apps/rDock/src/rDock_2013.1_src/data/scripts/dock_solv.prm

>  <Rbt.Receptor>
prm/pocket_docking_8.prm

>  <SCORE>
-15.7017

>  <SCORE.INTER>
-15.332

>  <SCORE.INTER.CONST>
1

>  <SCORE.INTER.POLAR>
0

>  <SCORE.INTER.ROT>
2

>  <SCORE.INTER.SOLV>
8.82981

>  <SCORE.INTER.VDW>
-18.098

>  <SCORE.INTER.norm>
-0.806949

>  <SCORE.INTRA>
-0.369675

>  <SCORE.INTRA.DIHEDRAL>
-0.29497

>  <SCORE.INTRA.DIHEDRAL.0>
1.50031

>  <SCORE.INTRA.POLAR>
0

>  <SCORE.INTRA.POLAR.0>
0

>  <SCORE.INTRA.REPUL>
0

>  <SCORE.INTRA.REPUL.0>
0

>  <SCORE.INTRA.SOLV>
-0.00812956

>  <SCORE.INTRA.SOLV.lig_0>
-37.9941

>  <SCORE.INTRA.VDW>
-0.218126

>  <SCORE.INTRA.VDW.0>
-0.964461

>  <SCORE.INTRA.norm>
-0.0194566

>  <SCORE.RESTR>
0

>  <SCORE.RESTR.CAVITY>
0

>  <SCORE.RESTR.norm>
0

>  <SCORE.SYSTEM>
0

>  <SCORE.SYSTEM.CONST>
0

>  <SCORE.SYSTEM.DIHEDRAL>
0

>  <SCORE.SYSTEM.SOLV>
0

>  <SCORE.SYSTEM.norm>
0

>  <SCORE.heavy>
19

>  <SCORE.norm>
-0.826406

>  <RMSD>
8.178

$$$$
ligand
 OpenBabel11021811483D
libRbt.so/2013.1/901 2013/11/27
 19 21  0  0  0  0  0  0  0  0999 V2000
   16.5053   23.3714   28.8979 C   0  0  0  0  0  0  0  0  0  0  0  0
   15.7918   22.9092   27.7378 O   0  0  0  0  0  0  0  0  0  0  0  0
   15.6398   23.2742   30.1586 C   0  0  1  0  0  0  0  0  0  0  0  0
   16.3830   23.6762   31.3090 O   0  0  0  0  0  0  0  0  0  0  0  0
   14.4236   24.1774   30.0801 C   0  0  1  0  0  0  0  0  0  0  0  0
   13.2867   23.4426   30.5353 O   0  0  0  0  0  0  0  0  0  0  0  0
   14.6768   25.3264   31.0298 C   0  0  0  0  0  0  0  0  0  0  0  0
   15.8335   24.8656   31.8979 C   0  0  2  0  0  0  0  0  0  0  0  0
   20.6091   26.0795   30.3236 N   0  0  0  0  0  0  0  0  0  0  0  0
   19.8395   24.9948   30.0652 C   0  0  2  0  0  0  0  0  0  0  0  0
   20.3026   24.0105   29.2661 N   0  0  0  0  0  0  0  0  0  0  0  0
   18.6023   24.8643   30.5887 N   0  0  0  0  0  0  0  0  0  0  0  0
   18.0748   25.8080   31.3945 C   0  0  1  0  0  0  0  0  0  0  0  0
   18.8008   26.9349   31.7047 C   0  0  1  0  0  0  0  0  0  0  0  0
   20.1588   27.0685   31.1219 C   0  0  0  0  0  0  0  0  0  0  0  0
   20.8686   28.0684   31.3688 O   0  0  0  0  0  0  0  0  0  0  0  0
   18.0453   27.6981   32.5128 N   0  0  0  0  0  0  0  0  0  0  0  0
   16.8743   27.0448   32.6938 C   0  0  0  0  0  0  0  0  0  0  0  0
   16.9038   25.8927   32.0048 N   0  0  1  0  0  0  0  0  0  0  0  0
  1  2  1  0  0  0  0
  3  1  1  6  0  0  0
  3  4  1  0  0  0  0
  3  5  1  0  0  0  0
  5  6  1  1  0  0  0
  5  7  1  0  0  0  0
  7  8  1  0  0  0  0
  8  4  1  6  0  0  0
  8 19  1  0  0  0  0
  9 15  1  0  0  0  0
  9 10  1  0  0  0  0
 10 11  1  6  0  0  0
 10 12  1  0  0  0  0
 13 12  1  6  0  0  0
 13 14  1  0  0  0  0
 13 19  1  0  0  0  0
 14 15  1  6  0  0  0
 14 17  1  0  0  0  0
 15 16  2  0  0  0  0
 17 18  1  0  0  0  0
 19 18  1  6  0  0  0
M  END
>  <CHROM.1>
177.24139923,13.14705511,17.40176769,25.18489239,30.73365293,-2.60209351
0.26006912,0.76883355

>  <Name>
ligand

>  <RI>
0

>  <Rbt.Current_Directory>
/home/itssahil/PROJECTS/Mol_Feturizer/New_Systems/rnas/3SKL

>  <Rbt.Executable>
rbdock ($Id: //depot/dev/client3/rdock/2013.1/src/exe/rbdock.cxx#4 $)

>  <Rbt.Library>
libRbt.so (2013.1, Build901 2013/11/27)

>  <Rbt.Parameter_File>
/export/apps/rDock/src/rDock_2013.1_src/data/scripts/dock_solv.prm

>  <Rbt.Receptor>
prm/pocket_docking_8.prm

>  <SCORE>
-11.2187

>  <SCORE.INTER>
-11.1567

>  <SCORE.INTER.CONST>
1

>  <SCORE.INTER.POLAR>
0

>  <SCORE.INTER.ROT>
2

>  <SCORE.INTER.SOLV>
11.6134

>  <SCORE.INTER.VDW>
-16.2423

>  <SCORE.INTER.norm>
-0.587194

>  <SCORE.INTRA>
-0.0620523

>  <SCORE.INTRA.DIHEDRAL>
-0.287012

>  <SCORE.INTRA.DIHEDRAL.0>
1.50031

>  <SCORE.INTRA.POLAR>
0

>  <SCORE.INTRA.POLAR.0>
0

>  <SCORE.INTRA.REPUL>
0

>  <SCORE.INTRA.REPUL.0>
0

>  <SCORE.INTRA.SOLV>
0.594969

>  <SCORE.INTRA.SOLV.lig_0>
-37.9941

>  <SCORE.INTRA.VDW>
-0.216031

>  <SCORE.INTRA.VDW.0>
-0.964461

>  <SCORE.INTRA.norm>
-0.00326591

>  <SCORE.RESTR>
0

>  <SCORE.RESTR.CAVITY>
0

>  <SCORE.RESTR.norm>
0

>  <SCORE.SYSTEM>
0

>  <SCORE.SYSTEM.CONST>
0

>  <SCORE.SYSTEM.DIHEDRAL>
0

>  <SCORE.SYSTEM.SOLV>
0

>  <SCORE.SYSTEM.norm>
0

>  <SCORE.heavy>
19

>  <SCORE.norm>
-0.59046

>  <RMSD>
8.185

$$$$
ligand
 OpenBabel11021811483D
libRbt.so/2013.1/901 2013/11/27
 19 21  0  0  0  0  0  0  0  0999 V2000
   20.9267   28.4001   32.1783 C   0  0  0  0  0  0  0  0  0  0  0  0
   20.8186   29.7113   31.5973 O   0  0  0  0  0  0  0  0  0  0  0  0
   21.5210   28.4639   33.5892 C   0  0  1  0  0  0  0  0  0  0  0  0
   22.8152   29.0655   33.5611 O   0  0  0  0  0  0  0  0  0  0  0  0
   20.6664   29.2972   34.5252 C   0  0  1  0  0  0  0  0  0  0  0  0
   20.5418   28.5977   35.7641 O   0  0  0  0  0  0  0  0  0  0  0  0
   21.4185   30.5868   34.7641 C   0  0  0  0  0  0  0  0  0  0  0  0
   22.8300   30.3091   34.2799 C   0  0  2  0  0  0  0  0  0  0  0  0
   23.8940   35.3648   34.0252 N   0  0  0  0  0  0  0  0  0  0  0  0
   23.3825   34.6164   35.0321 C   0  0  2  0  0  0  0  0  0  0  0  0
   23.0718   35.1912   36.2131 N   0  0  0  0  0  0  0  0  0  0  0  0
   23.1711   33.2907   34.8910 N   0  0  0  0  0  0  0  0  0  0  0  0
   23.4586   32.6497   33.7401 C   0  0  1  0  0  0  0  0  0  0  0  0
   23.9763   33.3467   32.6728 C   0  0  1  0  0  0  0  0  0  0  0  0
   24.2065   34.8029   32.8400 C   0  0  0  0  0  0  0  0  0  0  0  0
   24.6723   35.4915   31.9054 O   0  0  0  0  0  0  0  0  0  0  0  0
   24.1677   32.4738   31.6689 N   0  0  0  0  0  0  0  0  0  0  0  0
   23.7709   31.2606   32.1178 C   0  0  0  0  0  0  0  0  0  0  0  0
   23.3413   31.3807   33.3842 N   0  0  1  0  0  0  0  0  0  0  0  0
  1  2  1  0  0  0  0
  3  1  1  6  0  0  0
  3  4  1  0  0  0  0
  3  5  1  0  0  0  0
  5  6  1  1  0  0  0
  5  7  1  0  0  0  0
  7  8  1  0  0  0  0
  8  4  1  6  0  0  0
  8 19  1  0  0  0  0
  9 15  1  0  0  0  0
  9 10  1  0  0  0  0
 10 11  1  1  0  0  0
 10 12  1  0  0  0  0
 13 12  1  1  0  0  0
 13 14  1  0  0  0  0
 13 19  1  0  0  0  0
 14 15  1  1  0  0  0
 14 17  1  0  0  0  0
 15 16  2  0  0  0  0
 17 18  1  0  0  0  0
 19 18  1  1  0  0  0
M  END
>  <CHROM.1>
-58.83657409,178.92224596,22.72852162,31.74103248,33.61291191,-2.58436546
1.04346229,0.92906961

>  <Name>
ligand

>  <RI>
0

>  <Rbt.Current_Directory>
/home/itssahil/PROJECTS/Mol_Feturizer/New_Systems/rnas/3SKL

>  <Rbt.Executable>
rbdock ($Id: //depot/dev/client3/rdock/2013.1/src/exe/rbdock.cxx#4 $)

>  <Rbt.Library>
libRbt.so (2013.1, Build901 2013/11/27)

>  <Rbt.Parameter_File>
/export/apps/rDock/src/rDock_2013.1_src/data/scripts/dock_solv.prm

>  <Rbt.Receptor>
prm/blind_docking_60.prm

>  <SCORE>
-15.7061

>  <SCORE.INTER>
-15.3379

>  <SCORE.INTER.CONST>
1

>  <SCORE.INTER.POLAR>
0

>  <SCORE.INTER.ROT>
2

>  <SCORE.INTER.SOLV>
8.8699

>  <SCORE.INTER.VDW>
-18.1152

>  <SCORE.INTER.norm>
-0.807256

>  <SCORE.INTRA>
-0.368279

>  <SCORE.INTRA.DIHEDRAL>
-0.294888

>  <SCORE.INTRA.DIHEDRAL.0>
1.50031

>  <SCORE.INTRA.POLAR>
0

>  <SCORE.INTRA.POLAR.0>
0

>  <SCORE.INTRA.REPUL>
0

>  <SCORE.INTRA.REPUL.0>
0

>  <SCORE.INTRA.SOLV>
-0.0082277

>  <SCORE.INTRA.SOLV.lig_0>
-37.9941

>  <SCORE.INTRA.VDW>
-0.216721

>  <SCORE.INTRA.VDW.0>
-0.964461

>  <SCORE.INTRA.norm>
-0.0193831

>  <SCORE.RESTR>
0

>  <SCORE.RESTR.CAVITY>
0

>  <SCORE.RESTR.norm>
0

>  <SCORE.SYSTEM>
0

>  <SCORE.SYSTEM.CONST>
0

>  <SCORE.SYSTEM.DIHEDRAL>
0

>  <SCORE.SYSTEM.SOLV>
0

>  <SCORE.SYSTEM.norm>
0

>  <SCORE.heavy>
19

>  <SCORE.norm>
-0.826639

>  <RMSD>
8.188

$$$$
ligand
 OpenBabel11021811483D
libRbt.so/2013.1/901 2013/11/27
 19 21  0  0  0  0  0  0  0  0999 V2000
   20.7810   28.6329   32.1706 C   0  0  0  0  0  0  0  0  0  0  0  0
   19.4660   28.0512   32.2049 O   0  0  0  0  0  0  0  0  0  0  0  0
   21.4281   28.6277   33.5596 C   0  0  1  0  0  0  0  0  0  0  0  0
   22.7498   29.1632   33.4988 O   0  0  0  0  0  0  0  0  0  0  0  0
   20.6518   29.4772   34.5478 C   0  0  1  0  0  0  0  0  0  0  0  0
   20.5357   28.7512   35.7722 O   0  0  0  0  0  0  0  0  0  0  0  0
   21.4778   30.7200   34.7915 C   0  0  0  0  0  0  0  0  0  0  0  0
   22.8547   30.3843   34.2481 C   0  0  2  0  0  0  0  0  0  0  0  0
   23.9968   35.4246   34.0279 N   0  0  0  0  0  0  0  0  0  0  0  0
   23.4672   34.6787   35.0272 C   0  0  2  0  0  0  0  0  0  0  0  0
   23.1570   35.2518   36.2092 N   0  0  0  0  0  0  0  0  0  0  0  0
   23.2366   33.3571   34.8776 N   0  0  0  0  0  0  0  0  0  0  0  0
   23.5224   32.7179   33.7253 C   0  0  1  0  0  0  0  0  0  0  0  0
   24.0580   33.4126   32.6653 C   0  0  1  0  0  0  0  0  0  0  0  0
   24.3090   34.8643   32.8419 C   0  0  0  0  0  0  0  0  0  0  0  0
   24.7916   35.5506   31.9142 O   0  0  0  0  0  0  0  0  0  0  0  0
   24.2430   32.5422   31.6580 N   0  0  0  0  0  0  0  0  0  0  0  0
   23.8249   31.3328   32.0976 C   0  0  0  0  0  0  0  0  0  0  0  0
   23.3884   31.4527   33.3617 N   0  0  1  0  0  0  0  0  0  0  0  0
  1  2  1  0  0  0  0
  3  1  1  6  0  0  0
  3  4  1  0  0  0  0
  3  5  1  0  0  0  0
  5  6  1  1  0  0  0
  5  7  1  0  0  0  0
  7  8  1  0  0  0  0
  8  4  1  6  0  0  0
  8 19  1  0  0  0  0
  9 15  1  0  0  0  0
  9 10  1  0  0  0  0
 10 11  1  1  0  0  0
 10 12  1  0  0  0  0
 13 12  1  1  0  0  0
 13 14  1  0  0  0  0
 13 19  1  0  0  0  0
 14 15  1  1  0  0  0
 14 17  1  0  0  0  0
 15 16  2  0  0  0  0
 17 18  1  0  0  0  0
 19 18  1  1  0  0  0
M  END
>  <CHROM.1>
177.89642090,175.46162384,22.67777312,31.73162255,33.64181721,-2.59647367
0.97999709,0.93900068

>  <Name>
ligand

>  <RI>
0

>  <Rbt.Current_Directory>
/home/itssahil/PROJECTS/Mol_Feturizer/New_Systems/rnas/3SKL

>  <Rbt.Executable>
rbdock ($Id: //depot/dev/client3/rdock/2013.1/src/exe/rbdock.cxx#4 $)

>  <Rbt.Library>
libRbt.so (2013.1, Build901 2013/11/27)

>  <Rbt.Parameter_File>
/export/apps/rDock/src/rDock_2013.1_src/data/scripts/dock_solv.prm

>  <Rbt.Receptor>
prm/pocket_docking_8.prm

>  <SCORE>
-15.3657

>  <SCORE.INTER>
-15.1589

>  <SCORE.INTER.CONST>
1

>  <SCORE.INTER.POLAR>
0

>  <SCORE.INTER.ROT>
2

>  <SCORE.INTER.SOLV>
8.18497

>  <SCORE.INTER.VDW>
-17.7676

>  <SCORE.INTER.norm>
-0.797838

>  <SCORE.INTRA>
-0.206791

>  <SCORE.INTRA.DIHEDRAL>
-0.289235

>  <SCORE.INTRA.DIHEDRAL.0>
1.50031

>  <SCORE.INTRA.POLAR>
0

>  <SCORE.INTRA.POLAR.0>
0

>  <SCORE.INTRA.REPUL>
0

>  <SCORE.INTRA.REPUL.0>
0

>  <SCORE.INTRA.SOLV>
-0.475872

>  <SCORE.INTRA.SOLV.lig_0>
-37.9941

>  <SCORE.INTRA.VDW>
0.175762

>  <SCORE.INTRA.VDW.0>
-0.964461

>  <SCORE.INTRA.norm>
-0.0108837

>  <SCORE.RESTR>
0

>  <SCORE.RESTR.CAVITY>
0

>  <SCORE.RESTR.norm>
0

>  <SCORE.SYSTEM>
0

>  <SCORE.SYSTEM.CONST>
0

>  <SCORE.SYSTEM.DIHEDRAL>
0

>  <SCORE.SYSTEM.SOLV>
0

>  <SCORE.SYSTEM.norm>
0

>  <SCORE.heavy>
19

>  <SCORE.norm>
-0.808722

>  <RMSD>
8.210

$$$$
ligand
 OpenBabel11021811483D
libRbt.so/2013.1/901 2013/11/27
 19 21  0  0  0  0  0  0  0  0999 V2000
   20.8518   28.5823   32.1572 C   0  0  0  0  0  0  0  0  0  0  0  0
   19.5597   27.9508   32.1692 O   0  0  0  0  0  0  0  0  0  0  0  0
   21.4751   28.6005   33.5569 C   0  0  1  0  0  0  0  0  0  0  0  0
   22.7887   29.1573   33.5133 O   0  0  0  0  0  0  0  0  0  0  0  0
   20.6683   29.4461   34.5238 C   0  0  1  0  0  0  0  0  0  0  0  0
   20.5433   28.7295   35.7528 O   0  0  0  0  0  0  0  0  0  0  0  0
   21.4696   30.7045   34.7696 C   0  0  0  0  0  0  0  0  0  0  0  0
   22.8608   30.3867   34.2528 C   0  0  2  0  0  0  0  0  0  0  0  0
   24.0067   35.4262   34.0339 N   0  0  0  0  0  0  0  0  0  0  0  0
   23.4804   34.6796   35.0344 C   0  0  2  0  0  0  0  0  0  0  0  0
   23.1755   35.2517   36.2183 N   0  0  0  0  0  0  0  0  0  0  0  0
   23.2481   33.3585   34.8842 N   0  0  0  0  0  0  0  0  0  0  0  0
   23.5286   32.7204   33.7300 C   0  0  1  0  0  0  0  0  0  0  0  0
   24.0606   33.4158   32.6687 C   0  0  1  0  0  0  0  0  0  0  0  0
   24.3136   34.8670   32.8459 C   0  0  0  0  0  0  0  0  0  0  0  0
   24.7932   35.5540   31.9171 O   0  0  0  0  0  0  0  0  0  0  0  0
   24.2407   32.5464   31.6596 N   0  0  0  0  0  0  0  0  0  0  0  0
   23.8232   31.3369   32.0995 C   0  0  0  0  0  0  0  0  0  0  0  0
   23.3919   31.4557   33.3655 N   0  0  1  0  0  0  0  0  0  0  0  0
  1  2  1  0  0  0  0
  3  1  1  6  0  0  0
  3  4  1  0  0  0  0
  3  5  1  0  0  0  0
  5  6  1  1  0  0  0
  5  7  1  0  0  0  0
  7  8  1  0  0  0  0
  8  4  1  6  0  0  0
  8 19  1  0  0  0  0
  9 15  1  0  0  0  0
  9 10  1  0  0  0  0
 10 11  1  1  0  0  0
 10 12  1  0  0  0  0
 13 12  1  1  0  0  0
 13 14  1  0  0  0  0
 13 19  1  0  0  0  0
 14 15  1  1  0  0  0
 14 17  1  0  0  0  0
 15 16  2  0  0  0  0
 17 18  1  0  0  0  0
 19 18  1  1  0  0  0
M  END
>  <CHROM.1>
176.52343916,177.13456669,22.69664530,31.71882295,33.63894738,-2.58507714
0.98581182,0.93426259

>  <Name>
ligand

>  <RI>
0

>  <Rbt.Current_Directory>
/home/itssahil/PROJECTS/Mol_Feturizer/New_Systems/rnas/3SKL

>  <Rbt.Executable>
rbdock ($Id: //depot/dev/client3/rdock/2013.1/src/exe/rbdock.cxx#4 $)

>  <Rbt.Library>
libRbt.so (2013.1, Build901 2013/11/27)

>  <Rbt.Parameter_File>
/export/apps/rDock/src/rDock_2013.1_src/data/scripts/dock_solv.prm

>  <Rbt.Receptor>
prm/pocket_docking_8.prm

>  <SCORE>
-15.3366

>  <SCORE.INTER>
-15.1045

>  <SCORE.INTER.CONST>
1

>  <SCORE.INTER.POLAR>
0

>  <SCORE.INTER.ROT>
2

>  <SCORE.INTER.SOLV>
8.25362

>  <SCORE.INTER.VDW>
-17.7542

>  <SCORE.INTER.norm>
-0.794972

>  <SCORE.INTRA>
-0.232129

>  <SCORE.INTRA.DIHEDRAL>
-0.259915

>  <SCORE.INTRA.DIHEDRAL.0>
1.50031

>  <SCORE.INTRA.POLAR>
0

>  <SCORE.INTRA.POLAR.0>
0

>  <SCORE.INTRA.REPUL>
0

>  <SCORE.INTRA.REPUL.0>
0

>  <SCORE.INTRA.SOLV>
-0.482164

>  <SCORE.INTRA.SOLV.lig_0>
-37.9941

>  <SCORE.INTRA.VDW>
0.13891

>  <SCORE.INTRA.VDW.0>
-0.964461

>  <SCORE.INTRA.norm>
-0.0122173

>  <SCORE.RESTR>
0

>  <SCORE.RESTR.CAVITY>
0

>  <SCORE.RESTR.norm>
0

>  <SCORE.SYSTEM>
0

>  <SCORE.SYSTEM.CONST>
0

>  <SCORE.SYSTEM.DIHEDRAL>
0

>  <SCORE.SYSTEM.SOLV>
0

>  <SCORE.SYSTEM.norm>
0

>  <SCORE.heavy>
19

>  <SCORE.norm>
-0.80719

>  <RMSD>
8.216

$$$$
ligand
 OpenBabel11021811483D
libRbt.so/2013.1/901 2013/11/27
 19 21  0  0  0  0  0  0  0  0999 V2000
   20.8016   28.6057   32.1496 C   0  0  0  0  0  0  0  0  0  0  0  0
   19.4929   28.0098   32.1783 O   0  0  0  0  0  0  0  0  0  0  0  0
   21.4399   28.6137   33.5425 C   0  0  1  0  0  0  0  0  0  0  0  0
   22.7562   29.1631   33.4875 O   0  0  0  0  0  0  0  0  0  0  0  0
   20.6485   29.4595   34.5220 C   0  0  1  0  0  0  0  0  0  0  0  0
   20.5324   28.7378   35.7490 O   0  0  0  0  0  0  0  0  0  0  0  0
   21.4597   30.7120   34.7651 C   0  0  0  0  0  0  0  0  0  0  0  0
   22.8435   30.3885   34.2319 C   0  0  2  0  0  0  0  0  0  0  0  0
   24.0212   35.4213   34.0256 N   0  0  0  0  0  0  0  0  0  0  0  0
   23.5017   34.6730   35.0285 C   0  0  2  0  0  0  0  0  0  0  0  0
   23.2148   35.2408   36.2188 N   0  0  0  0  0  0  0  0  0  0  0  0
   23.2585   33.3543   34.8741 N   0  0  0  0  0  0  0  0  0  0  0  0
   23.5209   32.7204   33.7133 C   0  0  1  0  0  0  0  0  0  0  0  0
   24.0450   33.4178   32.6494 C   0  0  1  0  0  0  0  0  0  0  0  0
   24.3101   34.8663   32.8312 C   0  0  0  0  0  0  0  0  0  0  0  0
   24.7833   35.5549   31.9003 O   0  0  0  0  0  0  0  0  0  0  0  0
   24.2072   32.5526   31.6338 N   0  0  0  0  0  0  0  0  0  0  0  0
   23.7867   31.3436   32.0723 C   0  0  0  0  0  0  0  0  0  0  0  0
   23.3713   31.4586   33.3439 N   0  0  1  0  0  0  0  0  0  0  0  0
  1  2  1  0  0  0  0
  3  1  1  6  0  0  0
  3  4  1  0  0  0  0
  3  5  1  0  0  0  0
  5  6  1  1  0  0  0
  5  7  1  0  0  0  0
  7  8  1  0  0  0  0
  8  4  1  6  0  0  0
  8 19  1  0  0  0  0
  9 15  1  0  0  0  0
  9 10  1  0  0  0  0
 10 11  1  1  0  0  0
 10 12  1  0  0  0  0
 13 12  1  1  0  0  0
 13 14  1  0  0  0  0
 13 19  1  0  0  0  0
 14 15  1  1  0  0  0
 14 17  1  0  0  0  0
 15 16  2  0  0  0  0
 17 18  1  0  0  0  0
 19 18  1  1  0  0  0
M  END
>  <CHROM.1>
177.87418960,177.22926714,22.68105442,31.72588441,33.62679640,-2.61023986
0.98699929,0.96026033

>  <Name>
ligand

>  <RI>
0

>  <Rbt.Current_Directory>
/home/itssahil/PROJECTS/Mol_Feturizer/New_Systems/rnas/3SKL

>  <Rbt.Executable>
rbdock ($Id: //depot/dev/client3/rdock/2013.1/src/exe/rbdock.cxx#4 $)

>  <Rbt.Library>
libRbt.so (2013.1, Build901 2013/11/27)

>  <Rbt.Parameter_File>
/export/apps/rDock/src/rDock_2013.1_src/data/scripts/dock_solv.prm

>  <Rbt.Receptor>
prm/pocket_docking_8.prm

>  <SCORE>
-15.3174

>  <SCORE.INTER>
-15.0813

>  <SCORE.INTER.CONST>
1

>  <SCORE.INTER.POLAR>
0

>  <SCORE.INTER.ROT>
2

>  <SCORE.INTER.SOLV>
8.19948

>  <SCORE.INTER.VDW>
-17.7207

>  <SCORE.INTER.norm>
-0.793754

>  <SCORE.INTRA>
-0.236088

>  <SCORE.INTRA.DIHEDRAL>
-0.286647

>  <SCORE.INTRA.DIHEDRAL.0>
1.50031

>  <SCORE.INTRA.POLAR>
0

>  <SCORE.INTRA.POLAR.0>
0

>  <SCORE.INTRA.REPUL>
0

>  <SCORE.INTRA.REPUL.0>
0

>  <SCORE.INTRA.SOLV>
-0.475576

>  <SCORE.INTRA.SOLV.lig_0>
-37.9941

>  <SCORE.INTRA.VDW>
0.145023

>  <SCORE.INTRA.VDW.0>
-0.964461

>  <SCORE.INTRA.norm>
-0.0124257

>  <SCORE.RESTR>
0

>  <SCORE.RESTR.CAVITY>
0

>  <SCORE.RESTR.norm>
0

>  <SCORE.SYSTEM>
0

>  <SCORE.SYSTEM.CONST>
0

>  <SCORE.SYSTEM.DIHEDRAL>
0

>  <SCORE.SYSTEM.SOLV>
0

>  <SCORE.SYSTEM.norm>
0

>  <SCORE.heavy>
19

>  <SCORE.norm>
-0.806179

>  <RMSD>
8.217

$$$$
ligand
 OpenBabel11021811483D
libRbt.so/2013.1/901 2013/11/27
 19 21  0  0  0  0  0  0  0  0999 V2000
   20.4993   28.8958   32.0863 C   0  0  0  0  0  0  0  0  0  0  0  0
   21.1311   28.1222   31.0514 O   0  0  0  0  0  0  0  0  0  0  0  0
   21.2438   28.7562   33.4183 C   0  0  1  0  0  0  0  0  0  0  0  0
   22.5895   29.2148   33.2907 O   0  0  0  0  0  0  0  0  0  0  0  0
   20.5980   29.5804   34.5158 C   0  0  1  0  0  0  0  0  0  0  0  0
   20.5244   28.7799   35.6962 O   0  0  0  0  0  0  0  0  0  0  0  0
   21.5181   30.7518   34.7747 C   0  0  0  0  0  0  0  0  0  0  0  0
   22.8274   30.3728   34.1068 C   0  0  2  0  0  0  0  0  0  0  0  0
   23.9851   35.4139   34.0385 N   0  0  0  0  0  0  0  0  0  0  0  0
   23.4545   34.6396   35.0154 C   0  0  2  0  0  0  0  0  0  0  0  0
   23.1477   35.1774   36.2147 N   0  0  0  0  0  0  0  0  0  0  0  0
   23.2195   33.3239   34.8260 N   0  0  0  0  0  0  0  0  0  0  0  0
   23.5017   32.7192   33.6543 C   0  0  1  0  0  0  0  0  0  0  0  0
   24.0381   33.4442   32.6152 C   0  0  1  0  0  0  0  0  0  0  0  0
   24.2940   34.8890   32.8355 C   0  0  0  0  0  0  0  0  0  0  0  0
   24.7776   35.6018   31.9285 O   0  0  0  0  0  0  0  0  0  0  0  0
   24.2191   32.6043   31.5816 N   0  0  0  0  0  0  0  0  0  0  0  0
   23.7976   31.3834   31.9848 C   0  0  0  0  0  0  0  0  0  0  0  0
   23.3632   31.4661   33.2526 N   0  0  1  0  0  0  0  0  0  0  0  0
  1  2  1  0  0  0  0
  3  1  1  6  0  0  0
  3  4  1  0  0  0  0
  3  5  1  0  0  0  0
  5  6  1  1  0  0  0
  5  7  1  0  0  0  0
  7  8  1  0  0  0  0
  8  4  1  6  0  0  0
  8 19  1  0  0  0  0
  9 15  1  0  0  0  0
  9 10  1  0  0  0  0
 10 11  1  1  0  0  0
 10 12  1  0  0  0  0
 13 12  1  1  0  0  0
 13 14  1  0  0  0  0
 13 19  1  0  0  0  0
 14 15  1  1  0  0  0
 14 17  1  0  0  0  0
 15 16  2  0  0  0  0
 17 18  1  0  0  0  0
 19 18  1  1  0  0  0
M  END
>  <CHROM.1>
60.23802854,169.66853206,22.73313709,31.77170105,33.51007893,-2.53446091
1.00450857,0.93516187

>  <Name>
ligand

>  <RI>
0

>  <Rbt.Current_Directory>
/home/itssahil/PROJECTS/Mol_Feturizer/New_Systems/rnas/3SKL

>  <Rbt.Executable>
rbdock ($Id: //depot/dev/client3/rdock/2013.1/src/exe/rbdock.cxx#4 $)

>  <Rbt.Library>
libRbt.so (2013.1, Build901 2013/11/27)

>  <Rbt.Parameter_File>
/export/apps/rDock/src/rDock_2013.1_src/data/scripts/dock_solv.prm

>  <Rbt.Receptor>
prm/blind_docking_60.prm

>  <SCORE>
-15.6389

>  <SCORE.INTER>
-15.402

>  <SCORE.INTER.CONST>
1

>  <SCORE.INTER.POLAR>
0

>  <SCORE.INTER.ROT>
2

>  <SCORE.INTER.SOLV>
8.85785

>  <SCORE.INTER.VDW>
-18.1539

>  <SCORE.INTER.norm>
-0.81063

>  <SCORE.INTRA>
-0.236908

>  <SCORE.INTRA.DIHEDRAL>
-0.311214

>  <SCORE.INTRA.DIHEDRAL.0>
1.50031

>  <SCORE.INTRA.POLAR>
0

>  <SCORE.INTRA.POLAR.0>
0

>  <SCORE.INTRA.REPUL>
0

>  <SCORE.INTRA.REPUL.0>
0

>  <SCORE.INTRA.SOLV>
-0.56228

>  <SCORE.INTRA.SOLV.lig_0>
-37.9941

>  <SCORE.INTRA.VDW>
0.199839

>  <SCORE.INTRA.VDW.0>
-0.964461

>  <SCORE.INTRA.norm>
-0.0124688

>  <SCORE.RESTR>
0

>  <SCORE.RESTR.CAVITY>
0

>  <SCORE.RESTR.norm>
0

>  <SCORE.SYSTEM>
0

>  <SCORE.SYSTEM.CONST>
0

>  <SCORE.SYSTEM.DIHEDRAL>
0

>  <SCORE.SYSTEM.SOLV>
0

>  <SCORE.SYSTEM.norm>
0

>  <SCORE.heavy>
19

>  <SCORE.norm>
-0.823099

>  <RMSD>
8.238

$$$$
ligand
 OpenBabel11021811483D
libRbt.so/2013.1/901 2013/11/27
 19 21  0  0  0  0  0  0  0  0999 V2000
   20.4978   28.8775   32.0570 C   0  0  0  0  0  0  0  0  0  0  0  0
   21.1229   28.0952   31.0246 O   0  0  0  0  0  0  0  0  0  0  0  0
   21.2423   28.7375   33.3889 C   0  0  1  0  0  0  0  0  0  0  0  0
   22.5878   29.1965   33.2616 O   0  0  0  0  0  0  0  0  0  0  0  0
   20.5962   29.5612   34.4867 C   0  0  1  0  0  0  0  0  0  0  0  0
   20.5227   28.7601   35.6668 O   0  0  0  0  0  0  0  0  0  0  0  0
   21.5161   30.7327   34.7461 C   0  0  0  0  0  0  0  0  0  0  0  0
   22.8255   30.3542   34.0781 C   0  0  2  0  0  0  0  0  0  0  0  0
   23.9840   35.3952   34.0125 N   0  0  0  0  0  0  0  0  0  0  0  0
   23.4536   34.6203   34.9892 C   0  0  2  0  0  0  0  0  0  0  0  0
   23.1474   35.1574   36.1889 N   0  0  0  0  0  0  0  0  0  0  0  0
   23.2184   33.3048   34.7990 N   0  0  0  0  0  0  0  0  0  0  0  0
   23.5000   32.7008   33.6268 C   0  0  1  0  0  0  0  0  0  0  0  0
   24.0361   33.4263   32.5879 C   0  0  1  0  0  0  0  0  0  0  0  0
   24.2922   34.8710   32.8091 C   0  0  0  0  0  0  0  0  0  0  0  0
   24.7756   35.5842   31.9023 O   0  0  0  0  0  0  0  0  0  0  0  0
   24.2164   32.5871   31.5537 N   0  0  0  0  0  0  0  0  0  0  0  0
   23.7950   31.3660   31.9563 C   0  0  0  0  0  0  0  0  0  0  0  0
   23.3611   31.4479   33.2244 N   0  0  1  0  0  0  0  0  0  0  0  0
  1  2  1  0  0  0  0
  3  1  1  6  0  0  0
  3  4  1  0  0  0  0
  3  5  1  0  0  0  0
  5  6  1  1  0  0  0
  5  7  1  0  0  0  0
  7  8  1  0  0  0  0
  8  4  1  6  0  0  0
  8 19  1  0  0  0  0
  9 15  1  0  0  0  0
  9 10  1  0  0  0  0
 10 11  1  1  0  0  0
 10 12  1  0  0  0  0
 13 12  1  1  0  0  0
 13 14  1  0  0  0  0
 13 19  1  0  0  0  0
 14 15  1  1  0  0  0
 14 17  1  0  0  0  0
 15 16  2  0  0  0  0
 17 18  1  0  0  0  0
 19 18  1  1  0  0  0
M  END
>  <CHROM.1>
60.74774709,169.70362886,22.73105325,31.75263135,33.48230645,-2.53474747
1.00458134,0.93614379

>  <Name>
ligand

>  <RI>
0

>  <Rbt.Current_Directory>
/home/itssahil/PROJECTS/Mol_Feturizer/New_Systems/rnas/3SKL

>  <Rbt.Executable>
rbdock ($Id: //depot/dev/client3/rdock/2013.1/src/exe/rbdock.cxx#4 $)

>  <Rbt.Library>
libRbt.so (2013.1, Build901 2013/11/27)

>  <Rbt.Parameter_File>
/export/apps/rDock/src/rDock_2013.1_src/data/scripts/dock_solv.prm

>  <Rbt.Receptor>
prm/blind_docking_100.prm

>  <SCORE>
-15.6503

>  <SCORE.INTER>
-15.4123

>  <SCORE.INTER.CONST>
1

>  <SCORE.INTER.POLAR>
0

>  <SCORE.INTER.ROT>
2

>  <SCORE.INTER.SOLV>
8.97908

>  <SCORE.INTER.VDW>
-18.2013

>  <SCORE.INTER.norm>
-0.811176

>  <SCORE.INTRA>
-0.237936

>  <SCORE.INTRA.DIHEDRAL>
-0.309204

>  <SCORE.INTRA.DIHEDRAL.0>
1.50031

>  <SCORE.INTRA.POLAR>
0

>  <SCORE.INTRA.POLAR.0>
0

>  <SCORE.INTRA.REPUL>
0

>  <SCORE.INTRA.REPUL.0>
0

>  <SCORE.INTRA.SOLV>
-0.5648

>  <SCORE.INTRA.SOLV.lig_0>
-37.9941

>  <SCORE.INTRA.VDW>
0.199066

>  <SCORE.INTRA.VDW.0>
-0.964461

>  <SCORE.INTRA.norm>
-0.0125229

>  <SCORE.RESTR>
0

>  <SCORE.RESTR.CAVITY>
0

>  <SCORE.RESTR.norm>
0

>  <SCORE.SYSTEM>
0

>  <SCORE.SYSTEM.CONST>
0

>  <SCORE.SYSTEM.DIHEDRAL>
0

>  <SCORE.SYSTEM.SOLV>
0

>  <SCORE.SYSTEM.norm>
0

>  <SCORE.heavy>
19

>  <SCORE.norm>
-0.823699

>  <RMSD>
8.239

$$$$
ligand
 OpenBabel11021811483D
libRbt.so/2013.1/901 2013/11/27
 19 21  0  0  0  0  0  0  0  0999 V2000
   20.4600   28.9576   32.1408 C   0  0  0  0  0  0  0  0  0  0  0  0
   21.0559   28.2114   31.0653 O   0  0  0  0  0  0  0  0  0  0  0  0
   21.2468   28.7805   33.4437 C   0  0  1  0  0  0  0  0  0  0  0  0
   22.5966   29.2138   33.2769 O   0  0  0  0  0  0  0  0  0  0  0  0
   20.6565   29.5991   34.5761 C   0  0  1  0  0  0  0  0  0  0  0  0
   20.6069   28.7804   35.7454 O   0  0  0  0  0  0  0  0  0  0  0  0
   21.6093   30.7470   34.8218 C   0  0  0  0  0  0  0  0  0  0  0  0
   22.8866   30.3528   34.1027 C   0  0  2  0  0  0  0  0  0  0  0  0
   23.9776   35.4086   34.0209 N   0  0  0  0  0  0  0  0  0  0  0  0
   23.4486   34.6317   34.9967 C   0  0  2  0  0  0  0  0  0  0  0  0
   23.1239   35.1709   36.1906 N   0  0  0  0  0  0  0  0  0  0  0  0
   23.2329   33.3122   34.8114 N   0  0  0  0  0  0  0  0  0  0  0  0
   23.5336   32.7059   33.6451 C   0  0  1  0  0  0  0  0  0  0  0  0
   24.0696   33.4332   32.6074 C   0  0  1  0  0  0  0  0  0  0  0  0
   24.3042   34.8823   32.8232 C   0  0  0  0  0  0  0  0  0  0  0  0
   24.7863   35.5972   31.9171 O   0  0  0  0  0  0  0  0  0  0  0  0
   24.2709   32.5910   31.5795 N   0  0  0  0  0  0  0  0  0  0  0  0
   23.8622   31.3665   31.9847 C   0  0  0  0  0  0  0  0  0  0  0  0
   23.4154   31.4492   33.2481 N   0  0  1  0  0  0  0  0  0  0  0  0
  1  2  1  0  0  0  0
  3  1  1  6  0  0  0
  3  4  1  0  0  0  0
  3  5  1  0  0  0  0
  5  6  1  1  0  0  0
  5  7  1  0  0  0  0
  7  8  1  0  0  0  0
  8  4  1  6  0  0  0
  8 19  1  0  0  0  0
  9 15  1  0  0  0  0
  9 10  1  0  0  0  0
 10 11  1  1  0  0  0
 10 12  1  0  0  0  0
 13 12  1  1  0  0  0
 13 14  1  0  0  0  0
 13 19  1  0  0  0  0
 14 15  1  1  0  0  0
 14 17  1  0  0  0  0
 15 16  2  0  0  0  0
 17 18  1  0  0  0  0
 19 18  1  1  0  0  0
M  END
>  <CHROM.1>
59.00981416,166.27983193,22.75405321,31.77562500,33.51632965,-2.55301956
1.00861245,0.94450135

>  <Name>
ligand

>  <RI>
0

>  <Rbt.Current_Directory>
/home/itssahil/PROJECTS/Mol_Feturizer/New_Systems/rnas/3SKL

>  <Rbt.Executable>
rbdock ($Id: //depot/dev/client3/rdock/2013.1/src/exe/rbdock.cxx#4 $)

>  <Rbt.Library>
libRbt.so (2013.1, Build901 2013/11/27)

>  <Rbt.Parameter_File>
/export/apps/rDock/src/rDock_2013.1_src/data/scripts/dock_solv.prm

>  <Rbt.Receptor>
prm/pocket_docking_8.prm

>  <SCORE>
-15.6664

>  <SCORE.INTER>
-15.5188

>  <SCORE.INTER.CONST>
1

>  <SCORE.INTER.POLAR>
0

>  <SCORE.INTER.ROT>
2

>  <SCORE.INTER.SOLV>
8.95595

>  <SCORE.INTER.VDW>
-18.2645

>  <SCORE.INTER.norm>
-0.816778

>  <SCORE.INTRA>
-0.147649

>  <SCORE.INTRA.DIHEDRAL>
-0.311763

>  <SCORE.INTRA.DIHEDRAL.0>
1.50031

>  <SCORE.INTRA.POLAR>
0

>  <SCORE.INTRA.POLAR.0>
0

>  <SCORE.INTRA.REPUL>
0

>  <SCORE.INTRA.REPUL.0>
0

>  <SCORE.INTRA.SOLV>
-0.557016

>  <SCORE.INTRA.SOLV.lig_0>
-37.9941

>  <SCORE.INTRA.VDW>
0.28674

>  <SCORE.INTRA.VDW.0>
-0.964461

>  <SCORE.INTRA.norm>
-0.007771

>  <SCORE.RESTR>
0

>  <SCORE.RESTR.CAVITY>
0

>  <SCORE.RESTR.norm>
0

>  <SCORE.SYSTEM>
0

>  <SCORE.SYSTEM.CONST>
0

>  <SCORE.SYSTEM.DIHEDRAL>
0

>  <SCORE.SYSTEM.SOLV>
0

>  <SCORE.SYSTEM.norm>
0

>  <SCORE.heavy>
19

>  <SCORE.norm>
-0.824549

>  <RMSD>
8.247

$$$$
ligand
 OpenBabel11021811483D
libRbt.so/2013.1/901 2013/11/27
 19 21  0  0  0  0  0  0  0  0999 V2000
   20.4896   28.9687   32.1034 C   0  0  0  0  0  0  0  0  0  0  0  0
   21.0910   28.2204   31.0323 O   0  0  0  0  0  0  0  0  0  0  0  0
   21.2677   28.7912   33.4114 C   0  0  1  0  0  0  0  0  0  0  0  0
   22.6175   29.2281   33.2548 O   0  0  0  0  0  0  0  0  0  0  0  0
   20.6674   29.6062   34.5411 C   0  0  1  0  0  0  0  0  0  0  0  0
   20.6116   28.7853   35.7085 O   0  0  0  0  0  0  0  0  0  0  0  0
   21.6155   30.7561   34.7955 C   0  0  0  0  0  0  0  0  0  0  0  0
   22.8988   30.3664   34.0848 C   0  0  2  0  0  0  0  0  0  0  0  0
   23.9974   35.4208   34.0267 N   0  0  0  0  0  0  0  0  0  0  0  0
   23.4654   34.6405   34.9981 C   0  0  2  0  0  0  0  0  0  0  0  0
   23.1393   35.1752   36.1938 N   0  0  0  0  0  0  0  0  0  0  0  0
   23.2482   33.3222   34.8068 N   0  0  0  0  0  0  0  0  0  0  0  0
   23.5502   32.7204   33.6385 C   0  0  1  0  0  0  0  0  0  0  0  0
   24.0892   33.4514   32.6049 C   0  0  1  0  0  0  0  0  0  0  0  0
   24.3255   34.8992   32.8273 C   0  0  0  0  0  0  0  0  0  0  0  0
   24.8104   35.6173   31.9253 O   0  0  0  0  0  0  0  0  0  0  0  0
   24.2912   32.6133   31.5737 N   0  0  0  0  0  0  0  0  0  0  0  0
   23.8800   31.3877   31.9729 C   0  0  0  0  0  0  0  0  0  0  0  0
   23.4309   31.4656   33.2359 N   0  0  1  0  0  0  0  0  0  0  0  0
  1  2  1  0  0  0  0
  3  1  1  6  0  0  0
  3  4  1  0  0  0  0
  3  5  1  0  0  0  0
  5  6  1  1  0  0  0
  5  7  1  0  0  0  0
  7  8  1  0  0  0  0
  8  4  1  6  0  0  0
  8 19  1  0  0  0  0
  9 15  1  0  0  0  0
  9 10  1  0  0  0  0
 10 11  1  1  0  0  0
 10 12  1  0  0  0  0
 13 12  1  1  0  0  0
 13 14  1  0  0  0  0
 13 19  1  0  0  0  0
 14 15  1  1  0  0  0
 14 17  1  0  0  0  0
 15 16  2  0  0  0  0
 17 18  1  0  0  0  0
 19 18  1  1  0  0  0
M  END
>  <CHROM.1>
59.31014555,166.67925138,22.77222682,31.78837942,33.50209899,-2.54623438
1.00645401,0.94334112

>  <Name>
ligand

>  <RI>
0

>  <Rbt.Current_Directory>
/home/itssahil/PROJECTS/Mol_Feturizer/New_Systems/rnas/3SKL

>  <Rbt.Executable>
rbdock ($Id: //depot/dev/client3/rdock/2013.1/src/exe/rbdock.cxx#4 $)

>  <Rbt.Library>
libRbt.so (2013.1, Build901 2013/11/27)

>  <Rbt.Parameter_File>
/export/apps/rDock/src/rDock_2013.1_src/data/scripts/dock_solv.prm

>  <Rbt.Receptor>
prm/blind_docking_60.prm

>  <SCORE>
-15.6644

>  <SCORE.INTER>
-15.5044

>  <SCORE.INTER.CONST>
1

>  <SCORE.INTER.POLAR>
0

>  <SCORE.INTER.ROT>
2

>  <SCORE.INTER.SOLV>
8.99175

>  <SCORE.INTER.VDW>
-18.2669

>  <SCORE.INTER.norm>
-0.816021

>  <SCORE.INTRA>
-0.159969

>  <SCORE.INTRA.DIHEDRAL>
-0.313107

>  <SCORE.INTRA.DIHEDRAL.0>
1.50031

>  <SCORE.INTRA.POLAR>
0

>  <SCORE.INTRA.POLAR.0>
0

>  <SCORE.INTRA.REPUL>
0

>  <SCORE.INTRA.REPUL.0>
0

>  <SCORE.INTRA.SOLV>
-0.558418

>  <SCORE.INTRA.SOLV.lig_0>
-37.9941

>  <SCORE.INTRA.VDW>
0.275794

>  <SCORE.INTRA.VDW.0>
-0.964461

>  <SCORE.INTRA.norm>
-0.0084194

>  <SCORE.RESTR>
0

>  <SCORE.RESTR.CAVITY>
0

>  <SCORE.RESTR.norm>
0

>  <SCORE.SYSTEM>
0

>  <SCORE.SYSTEM.CONST>
0

>  <SCORE.SYSTEM.DIHEDRAL>
0

>  <SCORE.SYSTEM.SOLV>
0

>  <SCORE.SYSTEM.norm>
0

>  <SCORE.heavy>
19

>  <SCORE.norm>
-0.824441

>  <RMSD>
8.265

$$$$
ligand
 OpenBabel11021811483D
libRbt.so/2013.1/901 2013/11/27
 19 21  0  0  0  0  0  0  0  0999 V2000
   20.5034   28.9643   31.9995 C   0  0  0  0  0  0  0  0  0  0  0  0
   21.1493   28.2663   30.9205 O   0  0  0  0  0  0  0  0  0  0  0  0
   21.2653   28.7801   33.3162 C   0  0  1  0  0  0  0  0  0  0  0  0
   22.6152   29.2238   33.1804 O   0  0  0  0  0  0  0  0  0  0  0  0
   20.6470   29.5841   34.4441 C   0  0  1  0  0  0  0  0  0  0  0  0
   20.5796   28.7542   35.6045 O   0  0  0  0  0  0  0  0  0  0  0  0
   21.5869   30.7359   34.7194 C   0  0  0  0  0  0  0  0  0  0  0  0
   22.8808   30.3569   34.0224 C   0  0  2  0  0  0  0  0  0  0  0  0
   24.0065   35.4058   34.0335 N   0  0  0  0  0  0  0  0  0  0  0  0
   23.4699   34.6152   34.9941 C   0  0  2  0  0  0  0  0  0  0  0  0
   23.1461   35.1352   36.1968 N   0  0  0  0  0  0  0  0  0  0  0  0
   23.2457   33.3007   34.7847 N   0  0  0  0  0  0  0  0  0  0  0  0
   23.5450   32.7133   33.6085 C   0  0  1  0  0  0  0  0  0  0  0  0
   24.0884   33.4554   32.5852 C   0  0  1  0  0  0  0  0  0  0  0  0
   24.3323   34.8988   32.8274 C   0  0  0  0  0  0  0  0  0  0  0  0
   24.8215   35.6265   31.9353 O   0  0  0  0  0  0  0  0  0  0  0  0
   24.2864   32.6304   31.5428 N   0  0  0  0  0  0  0  0  0  0  0  0
   23.8684   31.4016   31.9250 C   0  0  0  0  0  0  0  0  0  0  0  0
   23.4192   31.4648   33.1888 N   0  0  1  0  0  0  0  0  0  0  0  0
  1  2  1  0  0  0  0
  3  1  1  6  0  0  0
  3  4  1  0  0  0  0
  3  5  1  0  0  0  0
  5  6  1  1  0  0  0
  5  7  1  0  0  0  0
  7  8  1  0  0  0  0
  8  4  1  6  0  0  0
  8 19  1  0  0  0  0
  9 15  1  0  0  0  0
  9 10  1  0  0  0  0
 10 11  1  1  0  0  0
 10 12  1  0  0  0  0
 13 12  1  1  0  0  0
 13 14  1  0  0  0  0
 13 19  1  0  0  0  0
 14 15  1  1  0  0  0
 14 17  1  0  0  0  0
 15 16  2  0  0  0  0
 17 18  1  0  0  0  0
 19 18  1  1  0  0  0
M  END
>  <CHROM.1>
57.19722472,167.64661609,22.77108352,31.78222702,33.45306385,-2.53849426
1.00262335,0.95040467

>  <Name>
ligand

>  <RI>
0

>  <Rbt.Current_Directory>
/home/itssahil/PROJECTS/Mol_Feturizer/New_Systems/rnas/3SKL

>  <Rbt.Executable>
rbdock ($Id: //depot/dev/client3/rdock/2013.1/src/exe/rbdock.cxx#4 $)

>  <Rbt.Library>
libRbt.so (2013.1, Build901 2013/11/27)

>  <Rbt.Parameter_File>
/export/apps/rDock/src/rDock_2013.1_src/data/scripts/dock_solv.prm

>  <Rbt.Receptor>
prm/blind_docking_100.prm

>  <SCORE>
-15.6309

>  <SCORE.INTER>
-15.4646

>  <SCORE.INTER.CONST>
1

>  <SCORE.INTER.POLAR>
0

>  <SCORE.INTER.ROT>
2

>  <SCORE.INTER.SOLV>
9.1263

>  <SCORE.INTER.VDW>
-18.2852

>  <SCORE.INTER.norm>
-0.813928

>  <SCORE.INTRA>
-0.166265

>  <SCORE.INTRA.DIHEDRAL>
-0.28614

>  <SCORE.INTRA.DIHEDRAL.0>
1.50031

>  <SCORE.INTRA.POLAR>
0

>  <SCORE.INTRA.POLAR.0>
0

>  <SCORE.INTRA.REPUL>
0

>  <SCORE.INTRA.REPUL.0>
0

>  <SCORE.INTRA.SOLV>
-0.547486

>  <SCORE.INTRA.SOLV.lig_0>
-37.9941

>  <SCORE.INTRA.VDW>
0.250548

>  <SCORE.INTRA.VDW.0>
-0.964461

>  <SCORE.INTRA.norm>
-0.00875078

>  <SCORE.RESTR>
0

>  <SCORE.RESTR.CAVITY>
0

>  <SCORE.RESTR.norm>
0

>  <SCORE.SYSTEM>
0

>  <SCORE.SYSTEM.CONST>
0

>  <SCORE.SYSTEM.DIHEDRAL>
0

>  <SCORE.SYSTEM.SOLV>
0

>  <SCORE.SYSTEM.norm>
0

>  <SCORE.heavy>
19

>  <SCORE.norm>
-0.822679

>  <RMSD>
8.270

$$$$
ligand
 OpenBabel11021811483D
libRbt.so/2013.1/901 2013/11/27
 19 21  0  0  0  0  0  0  0  0999 V2000
   20.5024   28.9823   32.0715 C   0  0  0  0  0  0  0  0  0  0  0  0
   21.1176   28.2322   31.0097 O   0  0  0  0  0  0  0  0  0  0  0  0
   21.2664   28.8111   33.3887 C   0  0  1  0  0  0  0  0  0  0  0  0
   22.6153   29.2560   33.2472 O   0  0  0  0  0  0  0  0  0  0  0  0
   20.6482   29.6239   34.5103 C   0  0  1  0  0  0  0  0  0  0  0  0
   20.5838   28.8041   35.6781 O   0  0  0  0  0  0  0  0  0  0  0  0
   21.5864   30.7798   34.7742 C   0  0  0  0  0  0  0  0  0  0  0  0
   22.8802   30.3969   34.0789 C   0  0  2  0  0  0  0  0  0  0  0  0
   24.0225   35.4419   34.0528 N   0  0  0  0  0  0  0  0  0  0  0  0
   23.4910   34.6585   35.0220 C   0  0  2  0  0  0  0  0  0  0  0  0
   23.1786   35.1862   36.2244 N   0  0  0  0  0  0  0  0  0  0  0  0
   23.2608   33.3436   34.8218 N   0  0  0  0  0  0  0  0  0  0  0  0
   23.5487   32.7487   33.6465 C   0  0  1  0  0  0  0  0  0  0  0  0
   24.0863   33.4832   32.6147 C   0  0  1  0  0  0  0  0  0  0  0  0
   24.3370   34.9271   32.8469 C   0  0  0  0  0  0  0  0  0  0  0  0
   24.8214   35.6482   31.9470 O   0  0  0  0  0  0  0  0  0  0  0  0
   24.2733   32.6518   31.5754 N   0  0  0  0  0  0  0  0  0  0  0  0
   23.8543   31.4266   31.9678 C   0  0  0  0  0  0  0  0  0  0  0  0
   23.4154   31.4983   33.2348 N   0  0  1  0  0  0  0  0  0  0  0  0
  1  2  1  0  0  0  0
  3  1  1  6  0  0  0
  3  4  1  0  0  0  0
  3  5  1  0  0  0  0
  5  6  1  1  0  0  0
  5  7  1  0  0  0  0
  7  8  1  0  0  0  0
  8  4  1  6  0  0  0
  8 19  1  0  0  0  0
  9 15  1  0  0  0  0
  9 10  1  0  0  0  0
 10 11  1  1  0  0  0
 10 12  1  0  0  0  0
 13 12  1  1  0  0  0
 13 14  1  0  0  0  0
 13 19  1  0  0  0  0
 14 15  1  1  0  0  0
 14 17  1  0  0  0  0
 15 16  2  0  0  0  0
 17 18  1  0  0  0  0
 19 18  1  1  0  0  0
M  END
>  <CHROM.1>
59.53426052,168.16150958,22.77254436,31.81261306,33.50036484,-2.54682450
1.00445067,0.95259001

>  <Name>
ligand

>  <RI>
0

>  <Rbt.Current_Directory>
/home/itssahil/PROJECTS/Mol_Feturizer/New_Systems/rnas/3SKL

>  <Rbt.Executable>
rbdock ($Id: //depot/dev/client3/rdock/2013.1/src/exe/rbdock.cxx#4 $)

>  <Rbt.Library>
libRbt.so (2013.1, Build901 2013/11/27)

>  <Rbt.Parameter_File>
/export/apps/rDock/src/rDock_2013.1_src/data/scripts/dock_solv.prm

>  <Rbt.Receptor>
prm/blind_docking_100.prm

>  <SCORE>
-15.6577

>  <SCORE.INTER>
-15.4587

>  <SCORE.INTER.CONST>
1

>  <SCORE.INTER.POLAR>
0

>  <SCORE.INTER.ROT>
2

>  <SCORE.INTER.SOLV>
8.84404

>  <SCORE.INTER.VDW>
-18.1872

>  <SCORE.INTER.norm>
-0.813618

>  <SCORE.INTRA>
-0.19894

>  <SCORE.INTRA.DIHEDRAL>
-0.31247

>  <SCORE.INTRA.DIHEDRAL.0>
1.50031

>  <SCORE.INTRA.POLAR>
0

>  <SCORE.INTRA.POLAR.0>
0

>  <SCORE.INTRA.REPUL>
0

>  <SCORE.INTRA.REPUL.0>
0

>  <SCORE.INTRA.SOLV>
-0.559155

>  <SCORE.INTRA.SOLV.lig_0>
-37.9941

>  <SCORE.INTRA.VDW>
0.236873

>  <SCORE.INTRA.VDW.0>
-0.964461

>  <SCORE.INTRA.norm>
-0.0104705

>  <SCORE.RESTR>
0

>  <SCORE.RESTR.CAVITY>
0

>  <SCORE.RESTR.norm>
0

>  <SCORE.SYSTEM>
0

>  <SCORE.SYSTEM.CONST>
0

>  <SCORE.SYSTEM.DIHEDRAL>
0

>  <SCORE.SYSTEM.SOLV>
0

>  <SCORE.SYSTEM.norm>
0

>  <SCORE.heavy>
19

>  <SCORE.norm>
-0.824089

>  <RMSD>
8.276

$$$$
ligand
 OpenBabel11021811483D
libRbt.so/2013.1/901 2013/11/27
 19 21  0  0  0  0  0  0  0  0999 V2000
   21.0036   28.4868   32.1760 C   0  0  0  0  0  0  0  0  0  0  0  0
   20.9334   29.7858   31.5626 O   0  0  0  0  0  0  0  0  0  0  0  0
   21.5764   28.5717   33.5947 C   0  0  1  0  0  0  0  0  0  0  0  0
   22.8651   29.1851   33.5790 O   0  0  0  0  0  0  0  0  0  0  0  0
   20.7002   29.4069   34.5088 C   0  0  1  0  0  0  0  0  0  0  0  0
   20.5639   28.7198   35.7535 O   0  0  0  0  0  0  0  0  0  0  0  0
   21.4367   30.7062   34.7445 C   0  0  0  0  0  0  0  0  0  0  0  0
   22.8577   30.4366   34.2842 C   0  0  2  0  0  0  0  0  0  0  0  0
   24.0177   35.4715   34.0363 N   0  0  0  0  0  0  0  0  0  0  0  0
   23.5118   34.7273   35.0492 C   0  0  2  0  0  0  0  0  0  0  0  0
   23.2367   35.3011   36.2395 N   0  0  0  0  0  0  0  0  0  0  0  0
   23.2709   33.4071   34.9050 N   0  0  0  0  0  0  0  0  0  0  0  0
   23.5221   32.7674   33.7449 C   0  0  1  0  0  0  0  0  0  0  0  0
   24.0320   33.4604   32.6712 C   0  0  1  0  0  0  0  0  0  0  0  0
   24.2947   34.9107   32.8418 C   0  0  0  0  0  0  0  0  0  0  0  0
   24.7552   35.5954   31.9018 O   0  0  0  0  0  0  0  0  0  0  0  0
   24.1853   32.5899   31.6586 N   0  0  0  0  0  0  0  0  0  0  0  0
   23.7734   31.3822   32.1087 C   0  0  0  0  0  0  0  0  0  0  0  0
   23.3721   31.5032   33.3843 N   0  0  1  0  0  0  0  0  0  0  0  0
  1  2  1  0  0  0  0
  3  1  1  6  0  0  0
  3  4  1  0  0  0  0
  3  5  1  0  0  0  0
  5  6  1  1  0  0  0
  5  7  1  0  0  0  0
  7  8  1  0  0  0  0
  8  4  1  6  0  0  0
  8 19  1  0  0  0  0
  9 15  1  0  0  0  0
  9 10  1  0  0  0  0
 10 11  1  1  0  0  0
 10 12  1  0  0  0  0
 13 12  1  1  0  0  0
 13 14  1  0  0  0  0
 13 19  1  0  0  0  0
 14 15  1  1  0  0  0
 14 17  1  0  0  0  0
 15 16  2  0  0  0  0
 17 18  1  0  0  0  0
 19 18  1  1  0  0  0
M  END
>  <CHROM.1>
-56.91082831,-178.28147576,22.79499532,31.85196382,33.61232476,-2.60785304
1.04377792,0.95946555

>  <Name>
ligand

>  <RI>
0

>  <Rbt.Current_Directory>
/home/itssahil/PROJECTS/Mol_Feturizer/New_Systems/rnas/3SKL

>  <Rbt.Executable>
rbdock ($Id: //depot/dev/client3/rdock/2013.1/src/exe/rbdock.cxx#4 $)

>  <Rbt.Library>
libRbt.so (2013.1, Build901 2013/11/27)

>  <Rbt.Parameter_File>
/export/apps/rDock/src/rDock_2013.1_src/data/scripts/dock_solv.prm

>  <Rbt.Receptor>
prm/blind_docking_100.prm

>  <SCORE>
-15.6299

>  <SCORE.INTER>
-15.2248

>  <SCORE.INTER.CONST>
1

>  <SCORE.INTER.POLAR>
0

>  <SCORE.INTER.ROT>
2

>  <SCORE.INTER.SOLV>
8.64153

>  <SCORE.INTER.VDW>
-17.9637

>  <SCORE.INTER.norm>
-0.801303

>  <SCORE.INTRA>
-0.40511

>  <SCORE.INTRA.DIHEDRAL>
-0.261121

>  <SCORE.INTRA.DIHEDRAL.0>
1.50031

>  <SCORE.INTRA.POLAR>
0

>  <SCORE.INTRA.POLAR.0>
0

>  <SCORE.INTRA.REPUL>
0

>  <SCORE.INTRA.REPUL.0>
0

>  <SCORE.INTRA.SOLV>
0.00217055

>  <SCORE.INTRA.SOLV.lig_0>
-37.9941

>  <SCORE.INTRA.VDW>
-0.275635

>  <SCORE.INTRA.VDW.0>
-0.964461

>  <SCORE.INTRA.norm>
-0.0213216

>  <SCORE.RESTR>
0

>  <SCORE.RESTR.CAVITY>
0

>  <SCORE.RESTR.norm>
0

>  <SCORE.SYSTEM>
0

>  <SCORE.SYSTEM.CONST>
0

>  <SCORE.SYSTEM.DIHEDRAL>
0

>  <SCORE.SYSTEM.SOLV>
0

>  <SCORE.SYSTEM.norm>
0

>  <SCORE.heavy>
19

>  <SCORE.norm>
-0.822624

>  <RMSD>
8.281

$$$$
ligand
 OpenBabel11021811483D
libRbt.so/2013.1/901 2013/11/27
 19 21  0  0  0  0  0  0  0  0999 V2000
   23.1991   34.9132   32.4522 C   0  0  0  0  0  0  0  0  0  0  0  0
   23.9082   36.0623   32.9474 O   0  0  0  0  0  0  0  0  0  0  0  0
   23.8864   33.6106   32.8752 C   0  0  1  0  0  0  0  0  0  0  0  0
   23.9681   33.5260   34.2977 O   0  0  0  0  0  0  0  0  0  0  0  0
   23.1213   32.3888   32.4029 C   0  0  1  0  0  0  0  0  0  0  0  0
   24.0553   31.4545   31.8601 O   0  0  0  0  0  0  0  0  0  0  0  0
   22.4772   31.7819   33.6287 C   0  0  0  0  0  0  0  0  0  0  0  0
   23.1869   32.4315   34.8027 C   0  0  2  0  0  0  0  0  0  0  0  0
   22.4285   36.2052   38.2584 N   0  0  0  0  0  0  0  0  0  0  0  0
   23.4690   35.9623   37.4253 C   0  0  2  0  0  0  0  0  0  0  0  0
   24.5342   36.7910   37.4122 N   0  0  0  0  0  0  0  0  0  0  0  0
   23.4748   34.9006   36.5918 N   0  0  0  0  0  0  0  0  0  0  0  0
   22.4447   34.0314   36.5505 C   0  0  1  0  0  0  0  0  0  0  0  0
   21.3559   34.2122   37.3719 C   0  0  1  0  0  0  0  0  0  0  0  0
   21.3596   35.3838   38.2824 C   0  0  0  0  0  0  0  0  0  0  0  0
   20.4000   35.6004   39.0550 O   0  0  0  0  0  0  0  0  0  0  0  0
   20.4888   33.2151   37.1263 N   0  0  0  0  0  0  0  0  0  0  0  0
   21.0419   32.4360   36.1684 C   0  0  0  0  0  0  0  0  0  0  0  0
   22.2355   32.9455   35.8239 N   0  0  1  0  0  0  0  0  0  0  0  0
  1  2  1  0  0  0  0
  3  1  1  1  0  0  0
  3  4  1  0  0  0  0
  3  5  1  0  0  0  0
  5  6  1  1  0  0  0
  5  7  1  0  0  0  0
  7  8  1  0  0  0  0
  8  4  1  6  0  0  0
  8 19  1  0  0  0  0
  9 15  1  0  0  0  0
  9 10  1  0  0  0  0
 10 11  1  6  0  0  0
 10 12  1  0  0  0  0
 13 12  1  6  0  0  0
 13 14  1  0  0  0  0
 13 19  1  0  0  0  0
 14 15  1  6  0  0  0
 14 17  1  0  0  0  0
 15 16  2  0  0  0  0
 17 18  1  0  0  0  0
 19 18  1  6  0  0  0
M  END
>  <CHROM.1>
58.83205750,-26.59875264,22.71886132,34.10215399,35.47587062,-1.13729441
0.85621737,0.79222914

>  <Name>
ligand

>  <RI>
0

>  <Rbt.Current_Directory>
/home/itssahil/PROJECTS/Mol_Feturizer/New_Systems/rnas/3SKL

>  <Rbt.Executable>
rbdock ($Id: //depot/dev/client3/rdock/2013.1/src/exe/rbdock.cxx#4 $)

>  <Rbt.Library>
libRbt.so (2013.1, Build901 2013/11/27)

>  <Rbt.Parameter_File>
/export/apps/rDock/src/rDock_2013.1_src/data/scripts/dock_solv.prm

>  <Rbt.Receptor>
prm/blind_docking_100.prm

>  <SCORE>
-14.6114

>  <SCORE.INTER>
-14.3077

>  <SCORE.INTER.CONST>
1

>  <SCORE.INTER.POLAR>
0

>  <SCORE.INTER.ROT>
2

>  <SCORE.INTER.SOLV>
7.87662

>  <SCORE.INTER.VDW>
-17.0973

>  <SCORE.INTER.norm>
-0.753038

>  <SCORE.INTRA>
-0.303735

>  <SCORE.INTRA.DIHEDRAL>
-0.269009

>  <SCORE.INTRA.DIHEDRAL.0>
1.50031

>  <SCORE.INTRA.POLAR>
0

>  <SCORE.INTRA.POLAR.0>
0

>  <SCORE.INTRA.REPUL>
0

>  <SCORE.INTRA.REPUL.0>
0

>  <SCORE.INTRA.SOLV>
-0.473335

>  <SCORE.INTRA.SOLV.lig_0>
-37.9941

>  <SCORE.INTRA.VDW>
0.0674366

>  <SCORE.INTRA.VDW.0>
-0.964461

>  <SCORE.INTRA.norm>
-0.0159861

>  <SCORE.RESTR>
0

>  <SCORE.RESTR.CAVITY>
0

>  <SCORE.RESTR.norm>
0

>  <SCORE.SYSTEM>
0

>  <SCORE.SYSTEM.CONST>
0

>  <SCORE.SYSTEM.DIHEDRAL>
0

>  <SCORE.SYSTEM.SOLV>
0

>  <SCORE.SYSTEM.norm>
0

>  <SCORE.heavy>
19

>  <SCORE.norm>
-0.769024

>  <RMSD>
8.284

$$$$
ligand
 OpenBabel11021811483D
libRbt.so/2013.1/901 2013/11/27
 19 21  0  0  0  0  0  0  0  0999 V2000
   20.5204   28.9959   32.0266 C   0  0  0  0  0  0  0  0  0  0  0  0
   21.1757   28.2860   30.9610 O   0  0  0  0  0  0  0  0  0  0  0  0
   21.2914   28.8579   33.3436 C   0  0  1  0  0  0  0  0  0  0  0  0
   22.6297   29.3308   33.1928 O   0  0  0  0  0  0  0  0  0  0  0  0
   20.6581   29.6705   34.4569 C   0  0  1  0  0  0  0  0  0  0  0  0
   20.6150   28.8640   35.6348 O   0  0  0  0  0  0  0  0  0  0  0  0
   21.5712   30.8501   34.7039 C   0  0  0  0  0  0  0  0  0  0  0  0
   22.8713   30.4874   34.0097 C   0  0  2  0  0  0  0  0  0  0  0  0
   23.9946   35.5364   33.9490 N   0  0  0  0  0  0  0  0  0  0  0  0
   23.4921   34.7520   34.9327 C   0  0  2  0  0  0  0  0  0  0  0  0
   23.2102   35.2798   36.1426 N   0  0  0  0  0  0  0  0  0  0  0  0
   23.2613   33.4362   34.7397 N   0  0  0  0  0  0  0  0  0  0  0  0
   23.5196   32.8413   33.5576 C   0  0  1  0  0  0  0  0  0  0  0  0
   24.0267   33.5768   32.5112 C   0  0  1  0  0  0  0  0  0  0  0  0
   24.2784   35.0217   32.7354 C   0  0  0  0  0  0  0  0  0  0  0  0
   24.7358   35.7438   31.8222 O   0  0  0  0  0  0  0  0  0  0  0  0
   24.1886   32.7451   31.4679 N   0  0  0  0  0  0  0  0  0  0  0  0
   23.7847   31.5187   31.8724 C   0  0  0  0  0  0  0  0  0  0  0  0
   23.3798   31.5900   33.1507 N   0  0  1  0  0  0  0  0  0  0  0  0
  1  2  1  0  0  0  0
  3  1  1  6  0  0  0
  3  4  1  0  0  0  0
  3  5  1  0  0  0  0
  5  6  1  1  0  0  0
  5  7  1  0  0  0  0
  7  8  1  0  0  0  0
  8  4  1  6  0  0  0
  8 19  1  0  0  0  0
  9 15  1  0  0  0  0
  9 10  1  0  0  0  0
 10 11  1  1  0  0  0
 10 12  1  0  0  0  0
 13 12  1  1  0  0  0
 13 14  1  0  0  0  0
 13 19  1  0  0  0  0
 14 15  1  1  0  0  0
 14 17  1  0  0  0  0
 15 16  2  0  0  0  0
 17 18  1  0  0  0  0
 19 18  1  1  0  0  0
M  END
>  <CHROM.1>
57.45466133,170.02852797,22.75894168,31.89009766,33.42210064,-2.55890282
1.02410533,0.96227866

>  <Name>
ligand

>  <RI>
0

>  <Rbt.Current_Directory>
/home/itssahil/PROJECTS/Mol_Feturizer/New_Systems/rnas/3SKL

>  <Rbt.Executable>
rbdock ($Id: //depot/dev/client3/rdock/2013.1/src/exe/rbdock.cxx#4 $)

>  <Rbt.Library>
libRbt.so (2013.1, Build901 2013/11/27)

>  <Rbt.Parameter_File>
/export/apps/rDock/src/rDock_2013.1_src/data/scripts/dock_solv.prm

>  <Rbt.Receptor>
prm/blind_docking_60.prm

>  <SCORE>
-15.6488

>  <SCORE.INTER>
-15.4221

>  <SCORE.INTER.CONST>
1

>  <SCORE.INTER.POLAR>
0

>  <SCORE.INTER.ROT>
2

>  <SCORE.INTER.SOLV>
8.66843

>  <SCORE.INTER.VDW>
-18.1042

>  <SCORE.INTER.norm>
-0.811691

>  <SCORE.INTRA>
-0.226721

>  <SCORE.INTRA.DIHEDRAL>
-0.288469

>  <SCORE.INTRA.DIHEDRAL.0>
1.50031

>  <SCORE.INTRA.POLAR>
0

>  <SCORE.INTRA.POLAR.0>
0

>  <SCORE.INTRA.REPUL>
0

>  <SCORE.INTRA.REPUL.0>
0

>  <SCORE.INTRA.SOLV>
-0.548188

>  <SCORE.INTRA.SOLV.lig_0>
-37.9941

>  <SCORE.INTRA.VDW>
0.191607

>  <SCORE.INTRA.VDW.0>
-0.964461

>  <SCORE.INTRA.norm>
-0.0119327

>  <SCORE.RESTR>
0

>  <SCORE.RESTR.CAVITY>
0

>  <SCORE.RESTR.norm>
0

>  <SCORE.SYSTEM>
0

>  <SCORE.SYSTEM.CONST>
0

>  <SCORE.SYSTEM.DIHEDRAL>
0

>  <SCORE.SYSTEM.SOLV>
0

>  <SCORE.SYSTEM.norm>
0

>  <SCORE.heavy>
19

>  <SCORE.norm>
-0.823623

>  <RMSD>
8.348

$$$$
ligand
 OpenBabel11021811483D
libRbt.so/2013.1/901 2013/11/27
 19 21  0  0  0  0  0  0  0  0999 V2000
   20.9139   28.7495   32.2168 C   0  0  0  0  0  0  0  0  0  0  0  0
   19.6202   28.1235   32.2723 O   0  0  0  0  0  0  0  0  0  0  0  0
   21.5593   28.8170   33.6049 C   0  0  1  0  0  0  0  0  0  0  0  0
   22.8580   29.4038   33.5258 O   0  0  0  0  0  0  0  0  0  0  0  0
   20.7480   29.6664   34.5647 C   0  0  1  0  0  0  0  0  0  0  0  0
   20.6605   28.9773   35.8126 O   0  0  0  0  0  0  0  0  0  0  0  0
   21.5222   30.9493   34.7666 C   0  0  0  0  0  0  0  0  0  0  0  0
   22.9122   30.6523   34.2341 C   0  0  2  0  0  0  0  0  0  0  0  0
   24.0311   35.6920   33.9058 N   0  0  0  0  0  0  0  0  0  0  0  0
   23.5492   34.9564   34.9364 C   0  0  2  0  0  0  0  0  0  0  0  0
   23.2915   35.5423   36.1247 N   0  0  0  0  0  0  0  0  0  0  0  0
   23.3152   33.6329   34.8122 N   0  0  0  0  0  0  0  0  0  0  0  0
   23.5499   32.9812   33.6554 C   0  0  1  0  0  0  0  0  0  0  0  0
   24.0353   33.6648   32.5644 C   0  0  1  0  0  0  0  0  0  0  0  0
   24.2905   35.1189   32.7132 C   0  0  0  0  0  0  0  0  0  0  0  0
   24.7290   35.7956   31.7569 O   0  0  0  0  0  0  0  0  0  0  0  0
   24.1765   32.7835   31.5596 N   0  0  0  0  0  0  0  0  0  0  0  0
   23.7816   31.5783   32.0313 C   0  0  0  0  0  0  0  0  0  0  0  0
   23.4026   31.7117   33.3125 N   0  0  1  0  0  0  0  0  0  0  0  0
  1  2  1  0  0  0  0
  3  1  1  6  0  0  0
  3  4  1  0  0  0  0
  3  5  1  0  0  0  0
  5  6  1  1  0  0  0
  5  7  1  0  0  0  0
  7  8  1  0  0  0  0
  8  4  1  6  0  0  0
  8 19  1  0  0  0  0
  9 15  1  0  0  0  0
  9 10  1  0  0  0  0
 10 11  1  1  0  0  0
 10 12  1  0  0  0  0
 13 12  1  1  0  0  0
 13 14  1  0  0  0  0
 13 19  1  0  0  0  0
 14 15  1  1  0  0  0
 14 17  1  0  0  0  0
 15 16  2  0  0  0  0
 17 18  1  0  0  0  0
 19 18  1  1  0  0  0
M  END
>  <CHROM.1>
178.25197388,179.11746186,22.73298965,31.96144108,33.60048007,-2.62527780
1.01653286,0.95874858

>  <Name>
ligand

>  <RI>
0

>  <Rbt.Current_Directory>
/home/itssahil/PROJECTS/Mol_Feturizer/New_Systems/rnas/3SKL

>  <Rbt.Executable>
rbdock ($Id: //depot/dev/client3/rdock/2013.1/src/exe/rbdock.cxx#4 $)

>  <Rbt.Library>
libRbt.so (2013.1, Build901 2013/11/27)

>  <Rbt.Parameter_File>
/export/apps/rDock/src/rDock_2013.1_src/data/scripts/dock_solv.prm

>  <Rbt.Receptor>
prm/blind_docking_60.prm

>  <SCORE>
-15.3629

>  <SCORE.INTER>
-15.1166

>  <SCORE.INTER.CONST>
1

>  <SCORE.INTER.POLAR>
0

>  <SCORE.INTER.ROT>
2

>  <SCORE.INTER.SOLV>
7.45654

>  <SCORE.INTER.VDW>
-17.4965

>  <SCORE.INTER.norm>
-0.795608

>  <SCORE.INTRA>
-0.246422

>  <SCORE.INTRA.DIHEDRAL>
-0.289368

>  <SCORE.INTRA.DIHEDRAL.0>
1.50031

>  <SCORE.INTRA.POLAR>
0

>  <SCORE.INTRA.POLAR.0>
0

>  <SCORE.INTRA.REPUL>
0

>  <SCORE.INTRA.REPUL.0>
0

>  <SCORE.INTRA.SOLV>
-0.473342

>  <SCORE.INTRA.SOLV.lig_0>
-37.9941

>  <SCORE.INTRA.VDW>
0.134933

>  <SCORE.INTRA.VDW.0>
-0.964461

>  <SCORE.INTRA.norm>
-0.0129696

>  <SCORE.RESTR>
4.88061e-05

>  <SCORE.RESTR.CAVITY>
4.88061e-05

>  <SCORE.RESTR.norm>
2.56874e-06

>  <SCORE.SYSTEM>
0

>  <SCORE.SYSTEM.CONST>
0

>  <SCORE.SYSTEM.DIHEDRAL>
0

>  <SCORE.SYSTEM.SOLV>
0

>  <SCORE.SYSTEM.norm>
0

>  <SCORE.heavy>
19

>  <SCORE.norm>
-0.808575

>  <RMSD>
8.394

$$$$
ligand
 OpenBabel11021811483D
libRbt.so/2013.1/901 2013/11/27
 19 21  0  0  0  0  0  0  0  0999 V2000
   23.1256   36.8565   32.4112 C   0  0  0  0  0  0  0  0  0  0  0  0
   23.5248   35.9221   31.3933 O   0  0  0  0  0  0  0  0  0  0  0  0
   23.6173   36.4164   33.7941 C   0  0  1  0  0  0  0  0  0  0  0  0
   23.0916   35.1319   34.1276 O   0  0  0  0  0  0  0  0  0  0  0  0
   25.1290   36.3026   33.8466 C   0  0  1  0  0  0  0  0  0  0  0  0
   25.5848   36.9103   35.0561 O   0  0  0  0  0  0  0  0  0  0  0  0
   25.4500   34.8258   33.8890 C   0  0  0  0  0  0  0  0  0  0  0  0
   24.1361   34.1524   34.2416 C   0  0  2  0  0  0  0  0  0  0  0  0
   20.9905   30.0974   33.5937 N   0  0  0  0  0  0  0  0  0  0  0  0
   21.0573   31.0178   34.5857 C   0  0  2  0  0  0  0  0  0  0  0  0
   20.1958   30.9594   35.6231 N   0  0  0  0  0  0  0  0  0  0  0  0
   21.9724   32.0098   34.5698 N   0  0  0  0  0  0  0  0  0  0  0  0
   22.8639   32.1303   33.5653 C   0  0  1  0  0  0  0  0  0  0  0  0
   22.8584   31.2286   32.5261 C   0  0  1  0  0  0  0  0  0  0  0  0
   21.8467   30.1436   32.5531 C   0  0  0  0  0  0  0  0  0  0  0  0
   21.7932   29.2919   31.6387 O   0  0  0  0  0  0  0  0  0  0  0  0
   23.8373   31.5804   31.6749 N   0  0  0  0  0  0  0  0  0  0  0  0
   24.4324   32.6815   32.1888 C   0  0  0  0  0  0  0  0  0  0  0  0
   23.8283   33.0084   33.3425 N   0  0  1  0  0  0  0  0  0  0  0  0
  1  2  1  0  0  0  0
  3  1  1  6  0  0  0
  3  4  1  0  0  0  0
  3  5  1  0  0  0  0
  5  6  1  1  0  0  0
  5  7  1  0  0  0  0
  7  8  1  0  0  0  0
  8  4  1  6  0  0  0
  8 19  1  0  0  0  0
  9 15  1  0  0  0  0
  9 10  1  0  0  0  0
 10 11  1  6  0  0  0
 10 12  1  0  0  0  0
 13 12  1  6  0  0  0
 13 14  1  0  0  0  0
 13 19  1  0  0  0  0
 14 15  1  6  0  0  0
 14 17  1  0  0  0  0
 15 16  2  0  0  0  0
 17 18  1  0  0  0  0
 19 18  1  6  0  0  0
M  END
>  <CHROM.1>
-59.36459618,-71.66862866,23.14080377,33.26700819,33.39625193,-0.72955812
-0.93241896,-2.34845629

>  <Name>
ligand

>  <RI>
0

>  <Rbt.Current_Directory>
/home/itssahil/PROJECTS/Mol_Feturizer/New_Systems/rnas/3SKL

>  <Rbt.Executable>
rbdock ($Id: //depot/dev/client3/rdock/2013.1/src/exe/rbdock.cxx#4 $)

>  <Rbt.Library>
libRbt.so (2013.1, Build901 2013/11/27)

>  <Rbt.Parameter_File>
/export/apps/rDock/src/rDock_2013.1_src/data/scripts/dock_solv.prm

>  <Rbt.Receptor>
prm/blind_docking_60.prm

>  <SCORE>
-12.4304

>  <SCORE.INTER>
-12.3253

>  <SCORE.INTER.CONST>
1

>  <SCORE.INTER.POLAR>
0

>  <SCORE.INTER.ROT>
2

>  <SCORE.INTER.SOLV>
9.75742

>  <SCORE.INTER.VDW>
-16.4027

>  <SCORE.INTER.norm>
-0.648698

>  <SCORE.INTRA>
-0.111843

>  <SCORE.INTRA.DIHEDRAL>
-0.311282

>  <SCORE.INTRA.DIHEDRAL.0>
1.50031

>  <SCORE.INTRA.POLAR>
0

>  <SCORE.INTRA.POLAR.0>
0

>  <SCORE.INTRA.REPUL>
0

>  <SCORE.INTRA.REPUL.0>
0

>  <SCORE.INTRA.SOLV>
0.0124023

>  <SCORE.INTRA.SOLV.lig_0>
-37.9941

>  <SCORE.INTRA.VDW>
0.037597

>  <SCORE.INTRA.VDW.0>
-0.964461

>  <SCORE.INTRA.norm>
-0.00588646

>  <SCORE.RESTR>
0.00671122

>  <SCORE.RESTR.CAVITY>
0.00671122

>  <SCORE.RESTR.norm>
0.000353222

>  <SCORE.SYSTEM>
0

>  <SCORE.SYSTEM.CONST>
0

>  <SCORE.SYSTEM.DIHEDRAL>
0

>  <SCORE.SYSTEM.SOLV>
0

>  <SCORE.SYSTEM.norm>
0

>  <SCORE.heavy>
19

>  <SCORE.norm>
-0.654231

>  <RMSD>
8.434

$$$$
ligand
 OpenBabel11021811483D
libRbt.so/2013.1/901 2013/11/27
 19 21  0  0  0  0  0  0  0  0999 V2000
   17.1712   18.6491   42.4483 C   0  0  0  0  0  0  0  0  0  0  0  0
   17.2365   19.8738   41.6971 O   0  0  0  0  0  0  0  0  0  0  0  0
   17.8462   17.4979   41.6953 C   0  0  1  0  0  0  0  0  0  0  0  0
   19.2155   17.8047   41.4339 O   0  0  0  0  0  0  0  0  0  0  0  0
   17.8268   16.2101   42.4966 C   0  0  1  0  0  0  0  0  0  0  0  0
   17.4491   15.1432   41.6255 O   0  0  0  0  0  0  0  0  0  0  0  0
   19.2426   15.9761   42.9728 C   0  0  0  0  0  0  0  0  0  0  0  0
   20.0950   16.9073   42.1301 C   0  0  2  0  0  0  0  0  0  0  0  0
   25.1024   18.0310   42.7793 N   0  0  0  0  0  0  0  0  0  0  0  0
   24.4866   17.2010   41.9033 C   0  0  2  0  0  0  0  0  0  0  0  0
   25.2131   16.5096   40.9999 N   0  0  0  0  0  0  0  0  0  0  0  0
   23.1464   17.0408   41.9032 N   0  0  0  0  0  0  0  0  0  0  0  0
   22.3578   17.6995   42.7763 C   0  0  1  0  0  0  0  0  0  0  0  0
   22.9141   18.5557   43.6984 C   0  0  1  0  0  0  0  0  0  0  0  0
   24.3881   18.7255   43.6879 C   0  0  0  0  0  0  0  0  0  0  0  0
   24.9531   19.4876   44.5031 O   0  0  0  0  0  0  0  0  0  0  0  0
   21.9135   19.0721   44.4322 N   0  0  0  0  0  0  0  0  0  0  0  0
   20.7621   18.5371   43.9644 C   0  0  0  0  0  0  0  0  0  0  0  0
   21.0464   17.7016   42.9524 N   0  0  1  0  0  0  0  0  0  0  0  0
  1  2  1  0  0  0  0
  3  1  1  1  0  0  0
  3  4  1  0  0  0  0
  3  5  1  0  0  0  0
  5  6  1  6  0  0  0
  5  7  1  0  0  0  0
  7  8  1  0  0  0  0
  8  4  1  1  0  0  0
  8 19  1  0  0  0  0
  9 15  1  0  0  0  0
  9 10  1  0  0  0  0
 10 11  1  6  0  0  0
 10 12  1  0  0  0  0
 13 12  1  6  0  0  0
 13 14  1  0  0  0  0
 13 19  1  0  0  0  0
 14 15  1  6  0  0  0
 14 17  1  0  0  0  0
 15 16  2  0  0  0  0
 17 18  1  0  0  0  0
 19 18  1  6  0  0  0
M  END
>  <CHROM.1>
58.97498753,-117.42955066,21.09247212,17.72126038,42.61129833,2.97098464
0.06785840,-2.60072205

>  <Name>
ligand

>  <RI>
0

>  <Rbt.Current_Directory>
/home/itssahil/PROJECTS/Mol_Feturizer/New_Systems/rnas/3SKL

>  <Rbt.Executable>
rbdock ($Id: //depot/dev/client3/rdock/2013.1/src/exe/rbdock.cxx#4 $)

>  <Rbt.Library>
libRbt.so (2013.1, Build901 2013/11/27)

>  <Rbt.Parameter_File>
/export/apps/rDock/src/rDock_2013.1_src/data/scripts/dock_solv.prm

>  <Rbt.Receptor>
prm/blind_docking_100.prm

>  <SCORE>
-11.9873

>  <SCORE.INTER>
-11.3839

>  <SCORE.INTER.CONST>
1

>  <SCORE.INTER.POLAR>
0

>  <SCORE.INTER.ROT>
2

>  <SCORE.INTER.SOLV>
6.2184

>  <SCORE.INTER.VDW>
-14.5954

>  <SCORE.INTER.norm>
-0.59915

>  <SCORE.INTRA>
-0.603472

>  <SCORE.INTRA.DIHEDRAL>
-0.297555

>  <SCORE.INTRA.DIHEDRAL.0>
1.50031

>  <SCORE.INTRA.POLAR>
0

>  <SCORE.INTRA.POLAR.0>
0

>  <SCORE.INTRA.REPUL>
0

>  <SCORE.INTRA.REPUL.0>
0

>  <SCORE.INTRA.SOLV>
-0.547444

>  <SCORE.INTRA.SOLV.lig_0>
-37.9941

>  <SCORE.INTRA.VDW>
-0.180972

>  <SCORE.INTRA.VDW.0>
-0.964461

>  <SCORE.INTRA.norm>
-0.0317617

>  <SCORE.RESTR>
0

>  <SCORE.RESTR.CAVITY>
0

>  <SCORE.RESTR.norm>
0

>  <SCORE.SYSTEM>
0

>  <SCORE.SYSTEM.CONST>
0

>  <SCORE.SYSTEM.DIHEDRAL>
0

>  <SCORE.SYSTEM.SOLV>
0

>  <SCORE.SYSTEM.norm>
0

>  <SCORE.heavy>
19

>  <SCORE.norm>
-0.630912

>  <RMSD>
12.968

$$$$
ligand
 OpenBabel11021811483D
libRbt.so/2013.1/901 2013/11/27
 19 21  0  0  0  0  0  0  0  0999 V2000
    4.1437   24.4193   40.1634 C   0  0  0  0  0  0  0  0  0  0  0  0
    3.1028   24.1822   41.1271 O   0  0  0  0  0  0  0  0  0  0  0  0
    4.7196   23.1028   39.6313 C   0  0  1  0  0  0  0  0  0  0  0  0
    5.6936   23.3548   38.6188 O   0  0  0  0  0  0  0  0  0  0  0  0
    5.4111   22.3069   40.7218 C   0  0  1  0  0  0  0  0  0  0  0  0
    5.0104   20.9409   40.6055 O   0  0  0  0  0  0  0  0  0  0  0  0
    6.8958   22.4064   40.4539 C   0  0  0  0  0  0  0  0  0  0  0  0
    7.0003   22.9226   39.0304 C   0  0  2  0  0  0  0  0  0  0  0  0
    8.1005   27.6307   40.8692 N   0  0  0  0  0  0  0  0  0  0  0  0
    7.0945   26.7745   41.1700 C   0  0  2  0  0  0  0  0  0  0  0  0
    6.1753   27.1092   42.1000 N   0  0  0  0  0  0  0  0  0  0  0  0
    6.9799   25.5757   40.5604 N   0  0  0  0  0  0  0  0  0  0  0  0
    7.8618   25.1748   39.6225 C   0  0  1  0  0  0  0  0  0  0  0  0
    8.9066   25.9945   39.2625 C   0  0  1  0  0  0  0  0  0  0  0  0
    9.0237   27.3090   39.9406 C   0  0  0  0  0  0  0  0  0  0  0  0
    9.9501   28.0994   39.6548 O   0  0  0  0  0  0  0  0  0  0  0  0
    9.6219   25.3551   38.3213 N   0  0  0  0  0  0  0  0  0  0  0  0
    9.0207   24.1616   38.1094 C   0  0  0  0  0  0  0  0  0  0  0  0
    7.9480   24.0627   38.9108 N   0  0  1  0  0  0  0  0  0  0  0  0
  1  2  1  0  0  0  0
  3  1  1  1  0  0  0
  3  4  1  0  0  0  0
  3  5  1  0  0  0  0
  5  6  1  6  0  0  0
  5  7  1  0  0  0  0
  7  8  1  0  0  0  0
  8  4  1  1  0  0  0
  8 19  1  0  0  0  0
  9 15  1  0  0  0  0
  9 10  1  0  0  0  0
 10 11  1  1  0  0  0
 10 12  1  0  0  0  0
 13 12  1  1  0  0  0
 13 14  1  0  0  0  0
 13 19  1  0  0  0  0
 14 15  1  1  0  0  0
 14 17  1  0  0  0  0
 15 16  2  0  0  0  0
 17 18  1  0  0  0  0
 19 18  1  1  0  0  0
M  END
>  <CHROM.1>
176.51896353,64.25423014,6.91103003,24.74437083,39.95650377,2.46673895,-0.48145203
-2.72541483

>  <Name>
ligand

>  <RI>
0

>  <Rbt.Current_Directory>
/home/itssahil/PROJECTS/Mol_Feturizer/New_Systems/rnas/3SKL

>  <Rbt.Executable>
rbdock ($Id: //depot/dev/client3/rdock/2013.1/src/exe/rbdock.cxx#4 $)

>  <Rbt.Library>
libRbt.so (2013.1, Build901 2013/11/27)

>  <Rbt.Parameter_File>
/export/apps/rDock/src/rDock_2013.1_src/data/scripts/dock_solv.prm

>  <Rbt.Receptor>
prm/blind_docking_80.prm

>  <SCORE>
-10.4711

>  <SCORE.INTER>
-9.9015

>  <SCORE.INTER.CONST>
1

>  <SCORE.INTER.POLAR>
0

>  <SCORE.INTER.ROT>
2

>  <SCORE.INTER.SOLV>
7.59163

>  <SCORE.INTER.VDW>
-14.0649

>  <SCORE.INTER.norm>
-0.521132

>  <SCORE.INTRA>
-0.569604

>  <SCORE.INTRA.DIHEDRAL>
-0.250564

>  <SCORE.INTRA.DIHEDRAL.0>
1.50031

>  <SCORE.INTRA.POLAR>
0

>  <SCORE.INTRA.POLAR.0>
0

>  <SCORE.INTRA.REPUL>
0

>  <SCORE.INTRA.REPUL.0>
0

>  <SCORE.INTRA.SOLV>
0.541791

>  <SCORE.INTRA.SOLV.lig_0>
-37.9941

>  <SCORE.INTRA.VDW>
-0.715217

>  <SCORE.INTRA.VDW.0>
-0.964461

>  <SCORE.INTRA.norm>
-0.0299792

>  <SCORE.RESTR>
0

>  <SCORE.RESTR.CAVITY>
0

>  <SCORE.RESTR.norm>
0

>  <SCORE.SYSTEM>
0

>  <SCORE.SYSTEM.CONST>
0

>  <SCORE.SYSTEM.DIHEDRAL>
0

>  <SCORE.SYSTEM.SOLV>
0

>  <SCORE.SYSTEM.norm>
0

>  <SCORE.heavy>
19

>  <SCORE.norm>
-0.551111

>  <RMSD>
13.310

$$$$
ligand
 OpenBabel11021811483D
libRbt.so/2013.1/901 2013/11/27
 19 21  0  0  0  0  0  0  0  0999 V2000
   23.6024   14.9569   41.9221 C   0  0  0  0  0  0  0  0  0  0  0  0
   23.7538   15.3602   43.2943 O   0  0  0  0  0  0  0  0  0  0  0  0
   24.7572   15.4761   41.0590 C   0  0  1  0  0  0  0  0  0  0  0  0
   24.8325   16.8999   41.1263 O   0  0  0  0  0  0  0  0  0  0  0  0
   26.0971   14.9399   41.5259 C   0  0  1  0  0  0  0  0  0  0  0  0
   26.8392   14.5217   40.3796 O   0  0  0  0  0  0  0  0  0  0  0  0
   26.8193   16.0944   42.1828 C   0  0  0  0  0  0  0  0  0  0  0  0
   26.0555   17.3307   41.7444 C   0  0  2  0  0  0  0  0  0  0  0  0
   22.1636   19.2216   44.5792 N   0  0  0  0  0  0  0  0  0  0  0  0
   22.1593   18.3809   43.5168 C   0  0  2  0  0  0  0  0  0  0  0  0
   20.9934   17.8908   43.0454 N   0  0  0  0  0  0  0  0  0  0  0  0
   23.3032   18.0094   42.9041 N   0  0  0  0  0  0  0  0  0  0  0  0
   24.5042   18.4590   43.3210 C   0  0  1  0  0  0  0  0  0  0  0  0
   24.5851   19.3198   44.3913 C   0  0  1  0  0  0  0  0  0  0  0  0
   23.3215   19.7196   45.0582 C   0  0  0  0  0  0  0  0  0  0  0  0
   23.3295   20.5016   46.0345 O   0  0  0  0  0  0  0  0  0  0  0  0
   25.8837   19.6034   44.5902 N   0  0  0  0  0  0  0  0  0  0  0  0
   26.5854   18.9252   43.6529 C   0  0  0  0  0  0  0  0  0  0  0  0
   25.7321   18.2290   42.8848 N   0  0  1  0  0  0  0  0  0  0  0  0
  1  2  1  0  0  0  0
  3  1  1  1  0  0  0
  3  4  1  0  0  0  0
  3  5  1  0  0  0  0
  5  6  1  6  0  0  0
  5  7  1  0  0  0  0
  7  8  1  0  0  0  0
  8  4  1  1  0  0  0
  8 19  1  0  0  0  0
  9 15  1  0  0  0  0
  9 10  1  0  0  0  0
 10 11  1  1  0  0  0
 10 12  1  0  0  0  0
 13 12  1  1  0  0  0
 13 14  1  0  0  0  0
 13 19  1  0  0  0  0
 14 15  1  1  0  0  0
 14 17  1  0  0  0  0
 15 16  2  0  0  0  0
 17 18  1  0  0  0  0
 19 18  1  1  0  0  0
M  END
>  <CHROM.1>
-58.35620304,6.52685853,24.49348489,17.51297782,42.98228946,1.12739769,-0.11733669
-2.50638740

>  <Name>
ligand

>  <RI>
0

>  <Rbt.Current_Directory>
/home/itssahil/PROJECTS/Mol_Feturizer/New_Systems/rnas/3SKL

>  <Rbt.Executable>
rbdock ($Id: //depot/dev/client3/rdock/2013.1/src/exe/rbdock.cxx#4 $)

>  <Rbt.Library>
libRbt.so (2013.1, Build901 2013/11/27)

>  <Rbt.Parameter_File>
/export/apps/rDock/src/rDock_2013.1_src/data/scripts/dock_solv.prm

>  <Rbt.Receptor>
prm/blind_docking_60.prm

>  <SCORE>
-12.5981

>  <SCORE.INTER>
-12.6368

>  <SCORE.INTER.CONST>
1

>  <SCORE.INTER.POLAR>
0

>  <SCORE.INTER.ROT>
2

>  <SCORE.INTER.SOLV>
12.1726

>  <SCORE.INTER.VDW>
-17.4154

>  <SCORE.INTER.norm>
-0.665097

>  <SCORE.INTRA>
0.0387791

>  <SCORE.INTRA.DIHEDRAL>
-0.295813

>  <SCORE.INTRA.DIHEDRAL.0>
1.50031

>  <SCORE.INTRA.POLAR>
0

>  <SCORE.INTRA.POLAR.0>
0

>  <SCORE.INTRA.REPUL>
0

>  <SCORE.INTRA.REPUL.0>
0

>  <SCORE.INTRA.SOLV>
1.64421

>  <SCORE.INTRA.SOLV.lig_0>
-37.9941

>  <SCORE.INTRA.VDW>
-0.63542

>  <SCORE.INTRA.VDW.0>
-0.964461

>  <SCORE.INTRA.norm>
0.00204101

>  <SCORE.RESTR>
0

>  <SCORE.RESTR.CAVITY>
0

>  <SCORE.RESTR.norm>
0

>  <SCORE.SYSTEM>
0

>  <SCORE.SYSTEM.CONST>
0

>  <SCORE.SYSTEM.DIHEDRAL>
0

>  <SCORE.SYSTEM.SOLV>
0

>  <SCORE.SYSTEM.norm>
0

>  <SCORE.heavy>
19

>  <SCORE.norm>
-0.663056

>  <RMSD>
13.887

$$$$
ligand
 OpenBabel11021811483D
libRbt.so/2013.1/901 2013/11/27
 19 21  0  0  0  0  0  0  0  0999 V2000
   26.1020   17.4183   43.9635 C   0  0  0  0  0  0  0  0  0  0  0  0
   25.3483   18.3783   43.2026 O   0  0  0  0  0  0  0  0  0  0  0  0
   25.3281   16.1057   44.1256 C   0  0  1  0  0  0  0  0  0  0  0  0
   24.0764   16.3383   44.7710 O   0  0  0  0  0  0  0  0  0  0  0  0
   25.0223   15.4610   42.7871 C   0  0  1  0  0  0  0  0  0  0  0  0
   25.3058   14.0646   42.8845 O   0  0  0  0  0  0  0  0  0  0  0  0
   23.5409   15.6447   42.5474 C   0  0  0  0  0  0  0  0  0  0  0  0
   22.9746   16.0404   43.8989 C   0  0  2  0  0  0  0  0  0  0  0  0
   18.2958   17.6466   42.3867 N   0  0  0  0  0  0  0  0  0  0  0  0
   18.8786   16.4254   42.3182 C   0  0  2  0  0  0  0  0  0  0  0  0
   18.2049   15.3818   41.7901 N   0  0  0  0  0  0  0  0  0  0  0  0
   20.1328   16.2139   42.7700 N   0  0  0  0  0  0  0  0  0  0  0  0
   20.8645   17.2093   43.3102 C   0  0  1  0  0  0  0  0  0  0  0  0
   20.3391   18.4772   43.4080 C   0  0  1  0  0  0  0  0  0  0  0  0
   18.9589   18.6975   42.9100 C   0  0  0  0  0  0  0  0  0  0  0  0
   18.4272   19.8281   42.9688 O   0  0  0  0  0  0  0  0  0  0  0  0
   21.2692   19.2620   43.9785 N   0  0  0  0  0  0  0  0  0  0  0  0
   22.3479   18.4831   44.2246 C   0  0  0  0  0  0  0  0  0  0  0  0
   22.0881   17.2316   43.8134 N   0  0  1  0  0  0  0  0  0  0  0  0
  1  2  1  0  0  0  0
  3  1  1  6  0  0  0
  3  4  1  0  0  0  0
  3  5  1  0  0  0  0
  5  6  1  1  0  0  0
  5  7  1  0  0  0  0
  7  8  1  0  0  0  0
  8  4  1  1  0  0  0
  8 19  1  0  0  0  0
  9 15  1  0  0  0  0
  9 10  1  0  0  0  0
 10 11  1  1  0  0  0
 10 12  1  0  0  0  0
 13 12  1  1  0  0  0
 13 14  1  0  0  0  0
 13 19  1  0  0  0  0
 14 15  1  1  0  0  0
 14 17  1  0  0  0  0
 15 16  2  0  0  0  0
 17 18  1  0  0  0  0
 19 18  1  1  0  0  0
M  END
>  <CHROM.1>
-58.44395510,-166.31342183,22.05136351,17.05473838,43.26948138,-0.21226626
-0.20286814,0.28830836

>  <Name>
ligand

>  <RI>
0

>  <Rbt.Current_Directory>
/home/itssahil/PROJECTS/Mol_Feturizer/New_Systems/rnas/3SKL

>  <Rbt.Executable>
rbdock ($Id: //depot/dev/client3/rdock/2013.1/src/exe/rbdock.cxx#4 $)

>  <Rbt.Library>
libRbt.so (2013.1, Build901 2013/11/27)

>  <Rbt.Parameter_File>
/export/apps/rDock/src/rDock_2013.1_src/data/scripts/dock_solv.prm

>  <Rbt.Receptor>
prm/blind_docking_80.prm

>  <SCORE>
-13.4406

>  <SCORE.INTER>
-12.9117

>  <SCORE.INTER.CONST>
1

>  <SCORE.INTER.POLAR>
0

>  <SCORE.INTER.ROT>
2

>  <SCORE.INTER.SOLV>
8.80408

>  <SCORE.INTER.VDW>
-16.4758

>  <SCORE.INTER.norm>
-0.679564

>  <SCORE.INTRA>
-0.528917

>  <SCORE.INTRA.DIHEDRAL>
-0.273005

>  <SCORE.INTRA.DIHEDRAL.0>
1.50031

>  <SCORE.INTRA.POLAR>
0

>  <SCORE.INTRA.POLAR.0>
0

>  <SCORE.INTRA.REPUL>
0

>  <SCORE.INTRA.REPUL.0>
0

>  <SCORE.INTRA.SOLV>
0.0161826

>  <SCORE.INTRA.SOLV.lig_0>
-37.9941

>  <SCORE.INTRA.VDW>
-0.400506

>  <SCORE.INTRA.VDW.0>
-0.964461

>  <SCORE.INTRA.norm>
-0.0278377

>  <SCORE.RESTR>
0

>  <SCORE.RESTR.CAVITY>
0

>  <SCORE.RESTR.norm>
0

>  <SCORE.SYSTEM>
0

>  <SCORE.SYSTEM.CONST>
0

>  <SCORE.SYSTEM.DIHEDRAL>
0

>  <SCORE.SYSTEM.SOLV>
0

>  <SCORE.SYSTEM.norm>
0

>  <SCORE.heavy>
19

>  <SCORE.norm>
-0.707402

>  <RMSD>
13.890

$$$$
ligand
 OpenBabel11021811483D
libRbt.so/2013.1/901 2013/11/27
 19 21  0  0  0  0  0  0  0  0999 V2000
   25.4868   16.2198   42.2147 C   0  0  0  0  0  0  0  0  0  0  0  0
   26.2090   14.9817   42.0949 O   0  0  0  0  0  0  0  0  0  0  0  0
   26.2390   17.2192   43.0997 C   0  0  1  0  0  0  0  0  0  0  0  0
   25.5590   18.4738   43.1286 O   0  0  0  0  0  0  0  0  0  0  0  0
   26.3407   16.7382   44.5347 C   0  0  1  0  0  0  0  0  0  0  0  0
   27.6759   16.9599   44.9906 O   0  0  0  0  0  0  0  0  0  0  0  0
   25.3970   17.5969   45.3461 C   0  0  0  0  0  0  0  0  0  0  0  0
   25.0731   18.7756   44.4463 C   0  0  2  0  0  0  0  0  0  0  0  0
   20.5999   17.0041   42.5462 N   0  0  0  0  0  0  0  0  0  0  0  0
   21.8635   16.5301   42.4264 C   0  0  2  0  0  0  0  0  0  0  0  0
   22.1011   15.4061   41.7179 N   0  0  0  0  0  0  0  0  0  0  0  0
   22.9112   17.1553   43.0037 N   0  0  0  0  0  0  0  0  0  0  0  0
   22.7486   18.2820   43.7264 C   0  0  1  0  0  0  0  0  0  0  0  0
   21.4942   18.8239   43.8868 C   0  0  1  0  0  0  0  0  0  0  0  0
   20.3498   18.1270   43.2495 C   0  0  0  0  0  0  0  0  0  0  0  0
   19.1857   18.5720   43.3568 O   0  0  0  0  0  0  0  0  0  0  0  0
   21.6198   19.9284   44.6423 N   0  0  0  0  0  0  0  0  0  0  0  0
   22.9337   20.0589   44.9379 C   0  0  0  0  0  0  0  0  0  0  0  0
   23.6125   19.0468   44.3742 N   0  0  1  0  0  0  0  0  0  0  0  0
  1  2  1  0  0  0  0
  3  1  1  6  0  0  0
  3  4  1  0  0  0  0
  3  5  1  0  0  0  0
  5  6  1  1  0  0  0
  5  7  1  0  0  0  0
  7  8  1  0  0  0  0
  8  4  1  6  0  0  0
  8 19  1  0  0  0  0
  9 15  1  0  0  0  0
  9 10  1  0  0  0  0
 10 11  1  1  0  0  0
 10 12  1  0  0  0  0
 13 12  1  1  0  0  0
 13 14  1  0  0  0  0
 13 19  1  0  0  0  0
 14 15  1  1  0  0  0
 14 17  1  0  0  0  0
 15 16  2  0  0  0  0
 17 18  1  0  0  0  0
 19 18  1  1  0  0  0
M  END
>  <CHROM.1>
175.74945137,47.23085563,23.61882264,17.64059327,43.55085989,0.15507551,0.20453355
-2.48669190

>  <Name>
ligand

>  <RI>
0

>  <Rbt.Current_Directory>
/home/itssahil/PROJECTS/Mol_Feturizer/New_Systems/rnas/3SKL

>  <Rbt.Executable>
rbdock ($Id: //depot/dev/client3/rdock/2013.1/src/exe/rbdock.cxx#4 $)

>  <Rbt.Library>
libRbt.so (2013.1, Build901 2013/11/27)

>  <Rbt.Parameter_File>
/export/apps/rDock/src/rDock_2013.1_src/data/scripts/dock_solv.prm

>  <Rbt.Receptor>
prm/blind_docking_60.prm

>  <SCORE>
-13.6155

>  <SCORE.INTER>
-13.5717

>  <SCORE.INTER.CONST>
1

>  <SCORE.INTER.POLAR>
0

>  <SCORE.INTER.ROT>
2

>  <SCORE.INTER.SOLV>
6.82307

>  <SCORE.INTER.VDW>
-16.2555

>  <SCORE.INTER.norm>
-0.714302

>  <SCORE.INTRA>
-0.0437424

>  <SCORE.INTRA.DIHEDRAL>
-0.250288

>  <SCORE.INTRA.DIHEDRAL.0>
1.50031

>  <SCORE.INTRA.POLAR>
0

>  <SCORE.INTRA.POLAR.0>
0

>  <SCORE.INTRA.REPUL>
0

>  <SCORE.INTRA.REPUL.0>
0

>  <SCORE.INTRA.SOLV>
1.19514

>  <SCORE.INTRA.SOLV.lig_0>
-37.9941

>  <SCORE.INTRA.VDW>
-0.51617

>  <SCORE.INTRA.VDW.0>
-0.964461

>  <SCORE.INTRA.norm>
-0.00230223

>  <SCORE.RESTR>
0

>  <SCORE.RESTR.CAVITY>
0

>  <SCORE.RESTR.norm>
0

>  <SCORE.SYSTEM>
0

>  <SCORE.SYSTEM.CONST>
0

>  <SCORE.SYSTEM.DIHEDRAL>
0

>  <SCORE.SYSTEM.SOLV>
0

>  <SCORE.SYSTEM.norm>
0

>  <SCORE.heavy>
19

>  <SCORE.norm>
-0.716604

>  <RMSD>
13.906

$$$$
ligand
 OpenBabel11021811483D
libRbt.so/2013.1/901 2013/11/27
 19 21  0  0  0  0  0  0  0  0999 V2000
   25.2534   15.4261   43.0912 C   0  0  0  0  0  0  0  0  0  0  0  0
   25.0048   15.2403   41.6868 O   0  0  0  0  0  0  0  0  0  0  0  0
   26.1049   16.6744   43.3450 C   0  0  1  0  0  0  0  0  0  0  0  0
   25.4064   17.8496   42.9346 O   0  0  0  0  0  0  0  0  0  0  0  0
   26.4320   16.8457   44.8163 C   0  0  1  0  0  0  0  0  0  0  0  0
   27.8147   17.1839   44.9340 O   0  0  0  0  0  0  0  0  0  0  0  0
   25.5998   18.0068   45.3116 C   0  0  0  0  0  0  0  0  0  0  0  0
   25.1161   18.7033   44.0528 C   0  0  2  0  0  0  0  0  0  0  0  0
   20.5100   16.9305   42.5038 N   0  0  0  0  0  0  0  0  0  0  0  0
   21.7599   16.4507   42.2960 C   0  0  2  0  0  0  0  0  0  0  0  0
   21.9414   15.3192   41.5829 N   0  0  0  0  0  0  0  0  0  0  0  0
   22.8491   17.0775   42.7887 N   0  0  0  0  0  0  0  0  0  0  0  0
   22.7435   18.2116   43.5104 C   0  0  1  0  0  0  0  0  0  0  0  0
   21.5058   18.7596   43.7574 C   0  0  1  0  0  0  0  0  0  0  0  0
   20.3156   18.0609   43.2126 C   0  0  0  0  0  0  0  0  0  0  0  0
   19.1639   18.5112   43.4009 O   0  0  0  0  0  0  0  0  0  0  0  0
   21.6899   19.8707   44.4908 N   0  0  0  0  0  0  0  0  0  0  0  0
   23.0224   19.9991   44.6878 C   0  0  0  0  0  0  0  0  0  0  0  0
   23.6550   18.9792   44.0855 N   0  0  1  0  0  0  0  0  0  0  0  0
  1  2  1  0  0  0  0
  3  1  1  1  0  0  0
  3  4  1  0  0  0  0
  3  5  1  0  0  0  0
  5  6  1  6  0  0  0
  5  7  1  0  0  0  0
  7  8  1  0  0  0  0
  8  4  1  6  0  0  0
  8 19  1  0  0  0  0
  9 15  1  0  0  0  0
  9 10  1  0  0  0  0
 10 11  1  1  0  0  0
 10 12  1  0  0  0  0
 13 12  1  1  0  0  0
 13 14  1  0  0  0  0
 13 19  1  0  0  0  0
 14 15  1  1  0  0  0
 14 17  1  0  0  0  0
 15 16  2  0  0  0  0
 17 18  1  0  0  0  0
 19 18  1  1  0  0  0
M  END
>  <CHROM.1>
63.70246819,22.04220113,23.52862396,17.54704984,43.48534232,0.06467996,0.22731753
-2.52975758

>  <Name>
ligand

>  <RI>
0

>  <Rbt.Current_Directory>
/home/itssahil/PROJECTS/Mol_Feturizer/New_Systems/rnas/3SKL

>  <Rbt.Executable>
rbdock ($Id: //depot/dev/client3/rdock/2013.1/src/exe/rbdock.cxx#4 $)

>  <Rbt.Library>
libRbt.so (2013.1, Build901 2013/11/27)

>  <Rbt.Parameter_File>
/export/apps/rDock/src/rDock_2013.1_src/data/scripts/dock_solv.prm

>  <Rbt.Receptor>
prm/blind_docking_80.prm

>  <SCORE>
-13.6125

>  <SCORE.INTER>
-14.0137

>  <SCORE.INTER.CONST>
1

>  <SCORE.INTER.POLAR>
0

>  <SCORE.INTER.ROT>
2

>  <SCORE.INTER.SOLV>
6.31515

>  <SCORE.INTER.VDW>
-16.3808

>  <SCORE.INTER.norm>
-0.737563

>  <SCORE.INTRA>
0.401176

>  <SCORE.INTRA.DIHEDRAL>
-0.270265

>  <SCORE.INTRA.DIHEDRAL.0>
1.50031

>  <SCORE.INTRA.POLAR>
0

>  <SCORE.INTRA.POLAR.0>
0

>  <SCORE.INTRA.REPUL>
0

>  <SCORE.INTRA.REPUL.0>
0

>  <SCORE.INTRA.SOLV>
2.34172

>  <SCORE.INTRA.SOLV.lig_0>
-37.9941

>  <SCORE.INTRA.VDW>
-0.634554

>  <SCORE.INTRA.VDW.0>
-0.964461

>  <SCORE.INTRA.norm>
0.0211145

>  <SCORE.RESTR>
0

>  <SCORE.RESTR.CAVITY>
0

>  <SCORE.RESTR.norm>
0

>  <SCORE.SYSTEM>
0

>  <SCORE.SYSTEM.CONST>
0

>  <SCORE.SYSTEM.DIHEDRAL>
0

>  <SCORE.SYSTEM.SOLV>
0

>  <SCORE.SYSTEM.norm>
0

>  <SCORE.heavy>
19

>  <SCORE.norm>
-0.716448

>  <RMSD>
13.921

$$$$
ligand
 OpenBabel11021811483D
libRbt.so/2013.1/901 2013/11/27
 19 21  0  0  0  0  0  0  0  0999 V2000
   25.2847   15.5015   43.1553 C   0  0  0  0  0  0  0  0  0  0  0  0
   25.0736   15.3255   41.7435 O   0  0  0  0  0  0  0  0  0  0  0  0
   26.1217   16.7528   43.4410 C   0  0  1  0  0  0  0  0  0  0  0  0
   25.4207   17.9281   43.0352 O   0  0  0  0  0  0  0  0  0  0  0  0
   26.4225   16.9059   44.9199 C   0  0  1  0  0  0  0  0  0  0  0  0
   27.8002   17.2532   45.0657 O   0  0  0  0  0  0  0  0  0  0  0  0
   25.5726   18.0533   45.4171 C   0  0  0  0  0  0  0  0  0  0  0  0
   25.1046   18.7636   44.1601 C   0  0  2  0  0  0  0  0  0  0  0  0
   20.5386   16.9691   42.5203 N   0  0  0  0  0  0  0  0  0  0  0  0
   21.7955   16.5014   42.3282 C   0  0  2  0  0  0  0  0  0  0  0  0
   21.9976   15.3782   41.6075 N   0  0  0  0  0  0  0  0  0  0  0  0
   22.8715   17.1320   42.8443 N   0  0  0  0  0  0  0  0  0  0  0  0
   22.7451   18.2582   43.5749 C   0  0  1  0  0  0  0  0  0  0  0  0
   21.4993   18.7940   43.8070 C   0  0  1  0  0  0  0  0  0  0  0  0
   20.3236   18.0911   43.2366 C   0  0  0  0  0  0  0  0  0  0  0  0
   19.1654   18.5304   43.4105 O   0  0  0  0  0  0  0  0  0  0  0  0
   21.6625   19.8994   44.5538 N   0  0  0  0  0  0  0  0  0  0  0  0
   22.9906   20.0365   44.7735 C   0  0  0  0  0  0  0  0  0  0  0  0
   23.6410   19.0276   44.1719 N   0  0  1  0  0  0  0  0  0  0  0  0
  1  2  1  0  0  0  0
  3  1  1  1  0  0  0
  3  4  1  0  0  0  0
  3  5  1  0  0  0  0
  5  6  1  6  0  0  0
  5  7  1  0  0  0  0
  7  8  1  0  0  0  0
  8  4  1  6  0  0  0
  8 19  1  0  0  0  0
  9 15  1  0  0  0  0
  9 10  1  0  0  0  0
 10 11  1  1  0  0  0
 10 12  1  0  0  0  0
 13 12  1  1  0  0  0
 13 14  1  0  0  0  0
 13 19  1  0  0  0  0
 14 15  1  1  0  0  0
 14 17  1  0  0  0  0
 15 16  2  0  0  0  0
 17 18  1  0  0  0  0
 19 18  1  1  0  0  0
M  END
>  <CHROM.1>
64.33026275,22.30372224,23.53676581,17.60040991,43.55301387,0.04985605,0.23478258
-2.51465608

>  <Name>
ligand

>  <RI>
0

>  <Rbt.Current_Directory>
/home/itssahil/PROJECTS/Mol_Feturizer/New_Systems/rnas/3SKL

>  <Rbt.Executable>
rbdock ($Id: //depot/dev/client3/rdock/2013.1/src/exe/rbdock.cxx#4 $)

>  <Rbt.Library>
libRbt.so (2013.1, Build901 2013/11/27)

>  <Rbt.Parameter_File>
/export/apps/rDock/src/rDock_2013.1_src/data/scripts/dock_solv.prm

>  <Rbt.Receptor>
prm/blind_docking_60.prm

>  <SCORE>
-13.6395

>  <SCORE.INTER>
-14.0437

>  <SCORE.INTER.CONST>
1

>  <SCORE.INTER.POLAR>
0

>  <SCORE.INTER.ROT>
2

>  <SCORE.INTER.SOLV>
6.32803

>  <SCORE.INTER.VDW>
-16.4052

>  <SCORE.INTER.norm>
-0.739143

>  <SCORE.INTRA>
0.404262

>  <SCORE.INTRA.DIHEDRAL>
-0.252121

>  <SCORE.INTRA.DIHEDRAL.0>
1.50031

>  <SCORE.INTRA.POLAR>
0

>  <SCORE.INTRA.POLAR.0>
0

>  <SCORE.INTRA.REPUL>
0

>  <SCORE.INTRA.REPUL.0>
0

>  <SCORE.INTRA.SOLV>
2.32699

>  <SCORE.INTRA.SOLV.lig_0>
-37.9941

>  <SCORE.INTRA.VDW>
-0.633174

>  <SCORE.INTRA.VDW.0>
-0.964461

>  <SCORE.INTRA.norm>
0.0212769

>  <SCORE.RESTR>
0

>  <SCORE.RESTR.CAVITY>
0

>  <SCORE.RESTR.norm>
0

>  <SCORE.SYSTEM>
0

>  <SCORE.SYSTEM.CONST>
0

>  <SCORE.SYSTEM.DIHEDRAL>
0

>  <SCORE.SYSTEM.SOLV>
0

>  <SCORE.SYSTEM.norm>
0

>  <SCORE.heavy>
19

>  <SCORE.norm>
-0.717866

>  <RMSD>
13.923

$$$$
ligand
 OpenBabel11021811483D
libRbt.so/2013.1/901 2013/11/27
 19 21  0  0  0  0  0  0  0  0999 V2000
   26.1312   17.1985   42.0452 C   0  0  0  0  0  0  0  0  0  0  0  0
   26.9060   16.0423   41.6825 O   0  0  0  0  0  0  0  0  0  0  0  0
   26.6930   17.8731   43.3011 C   0  0  1  0  0  0  0  0  0  0  0  0
   25.9254   19.0292   43.6350 O   0  0  0  0  0  0  0  0  0  0  0  0
   26.6503   16.9512   44.5049 C   0  0  1  0  0  0  0  0  0  0  0  0
   27.8989   17.0485   45.1914 O   0  0  0  0  0  0  0  0  0  0  0  0
   25.5533   17.4694   45.4072 C   0  0  0  0  0  0  0  0  0  0  0  0
   25.2590   18.8684   44.8973 C   0  0  2  0  0  0  0  0  0  0  0  0
   21.0020   17.0362   42.5999 N   0  0  0  0  0  0  0  0  0  0  0  0
   22.2825   16.5945   42.5749 C   0  0  2  0  0  0  0  0  0  0  0  0
   22.6053   15.4924   41.8657 N   0  0  0  0  0  0  0  0  0  0  0  0
   23.2636   17.2308   43.2490 N   0  0  0  0  0  0  0  0  0  0  0  0
   23.0143   18.3371   43.9786 C   0  0  1  0  0  0  0  0  0  0  0  0
   21.7377   18.8459   44.0462 C   0  0  1  0  0  0  0  0  0  0  0  0
   20.6671   18.1370   43.3028 C   0  0  0  0  0  0  0  0  0  0  0  0
   19.4874   18.5523   43.3229 O   0  0  0  0  0  0  0  0  0  0  0  0
   21.7735   19.9360   44.8317 N   0  0  0  0  0  0  0  0  0  0  0  0
   23.0551   20.0903   45.2370 C   0  0  0  0  0  0  0  0  0  0  0  0
   23.8029   19.1071   44.7107 N   0  0  1  0  0  0  0  0  0  0  0  0
  1  2  1  0  0  0  0
  3  1  1  6  0  0  0
  3  4  1  0  0  0  0
  3  5  1  0  0  0  0
  5  6  1  1  0  0  0
  5  7  1  0  0  0  0
  7  8  1  0  0  0  0
  8  4  1  6  0  0  0
  8 19  1  0  0  0  0
  9 15  1  0  0  0  0
  9 10  1  0  0  0  0
 10 11  1  1  0  0  0
 10 12  1  0  0  0  0
 13 12  1  1  0  0  0
 13 14  1  0  0  0  0
 13 19  1  0  0  0  0
 14 15  1  1  0  0  0
 14 17  1  0  0  0  0
 15 16  2  0  0  0  0
 17 18  1  0  0  0  0
 19 18  1  1  0  0  0
M  END
>  <CHROM.1>
179.11383771,65.33878755,23.95524713,17.85977965,43.68616729,0.08474509,0.15383901
-2.36810950

>  <Name>
ligand

>  <RI>
0

>  <Rbt.Current_Directory>
/home/itssahil/PROJECTS/Mol_Feturizer/New_Systems/rnas/3SKL

>  <Rbt.Executable>
rbdock ($Id: //depot/dev/client3/rdock/2013.1/src/exe/rbdock.cxx#4 $)

>  <Rbt.Library>
libRbt.so (2013.1, Build901 2013/11/27)

>  <Rbt.Parameter_File>
/export/apps/rDock/src/rDock_2013.1_src/data/scripts/dock_solv.prm

>  <Rbt.Receptor>
prm/blind_docking_80.prm

>  <SCORE>
-13.1926

>  <SCORE.INTER>
-12.6149

>  <SCORE.INTER.CONST>
1

>  <SCORE.INTER.POLAR>
0

>  <SCORE.INTER.ROT>
2

>  <SCORE.INTER.SOLV>
7.61488

>  <SCORE.INTER.VDW>
-15.8816

>  <SCORE.INTER.norm>
-0.663942

>  <SCORE.INTRA>
-0.577673

>  <SCORE.INTRA.DIHEDRAL>
-0.28926

>  <SCORE.INTRA.DIHEDRAL.0>
1.50031

>  <SCORE.INTRA.POLAR>
0

>  <SCORE.INTRA.POLAR.0>
0

>  <SCORE.INTRA.REPUL>
0

>  <SCORE.INTRA.REPUL.0>
0

>  <SCORE.INTRA.SOLV>
0.513291

>  <SCORE.INTRA.SOLV.lig_0>
-37.9941

>  <SCORE.INTRA.VDW>
-0.689688

>  <SCORE.INTRA.VDW.0>
-0.964461

>  <SCORE.INTRA.norm>
-0.0304039

>  <SCORE.RESTR>
0

>  <SCORE.RESTR.CAVITY>
0

>  <SCORE.RESTR.norm>
0

>  <SCORE.SYSTEM>
0

>  <SCORE.SYSTEM.CONST>
0

>  <SCORE.SYSTEM.DIHEDRAL>
0

>  <SCORE.SYSTEM.SOLV>
0

>  <SCORE.SYSTEM.norm>
0

>  <SCORE.heavy>
19

>  <SCORE.norm>
-0.694345

>  <RMSD>
13.941

$$$$
ligand
 OpenBabel11021811483D
libRbt.so/2013.1/901 2013/11/27
 19 21  0  0  0  0  0  0  0  0999 V2000
   27.0365   17.3010   39.9061 C   0  0  0  0  0  0  0  0  0  0  0  0
   26.8089   18.3682   38.9692 O   0  0  0  0  0  0  0  0  0  0  0  0
   28.1076   17.6818   40.9336 C   0  0  1  0  0  0  0  0  0  0  0  0
   27.6531   18.7556   41.7569 O   0  0  0  0  0  0  0  0  0  0  0  0
   28.4400   16.5260   41.8581 C   0  0  1  0  0  0  0  0  0  0  0  0
   29.8600   16.4501   41.9918 O   0  0  0  0  0  0  0  0  0  0  0  0
   27.8385   16.8623   43.2038 C   0  0  0  0  0  0  0  0  0  0  0  0
   27.5155   18.3434   43.1260 C   0  0  2  0  0  0  0  0  0  0  0  0
   22.5188   17.3483   42.2308 N   0  0  0  0  0  0  0  0  0  0  0  0
   23.6357   16.9194   41.5950 C   0  0  2  0  0  0  0  0  0  0  0  0
   23.5362   16.0810   40.5420 N   0  0  0  0  0  0  0  0  0  0  0  0
   24.8670   17.3087   41.9880 N   0  0  0  0  0  0  0  0  0  0  0  0
   25.0423   18.1440   43.0319 C   0  0  1  0  0  0  0  0  0  0  0  0
   23.9532   18.6239   43.7222 C   0  0  1  0  0  0  0  0  0  0  0  0
   22.6048   18.1876   43.2826 C   0  0  0  0  0  0  0  0  0  0  0  0
   21.5760   18.5915   43.8681 O   0  0  0  0  0  0  0  0  0  0  0  0
   24.4098   19.4231   44.7015 N   0  0  0  0  0  0  0  0  0  0  0  0
   25.7597   19.4313   44.6091 C   0  0  0  0  0  0  0  0  0  0  0  0
   26.1339   18.6454   43.5867 N   0  0  1  0  0  0  0  0  0  0  0  0
  1  2  1  0  0  0  0
  3  1  1  6  0  0  0
  3  4  1  0  0  0  0
  3  5  1  0  0  0  0
  5  6  1  1  0  0  0
  5  7  1  0  0  0  0
  7  8  1  0  0  0  0
  8  4  1  6  0  0  0
  8 19  1  0  0  0  0
  9 15  1  0  0  0  0
  9 10  1  0  0  0  0
 10 11  1  1  0  0  0
 10 12  1  0  0  0  0
 13 12  1  1  0  0  0
 13 14  1  0  0  0  0
 13 19  1  0  0  0  0
 14 15  1  1  0  0  0
 14 17  1  0  0  0  0
 15 16  2  0  0  0  0
 17 18  1  0  0  0  0
 19 18  1  1  0  0  0
M  END
>  <CHROM.1>
65.60288390,59.79473191,25.70115498,17.83535017,42.31196503,0.37058004,0.00776627
-1.97824466

>  <Name>
ligand

>  <RI>
0

>  <Rbt.Current_Directory>
/home/itssahil/PROJECTS/Mol_Feturizer/New_Systems/rnas/3SKL

>  <Rbt.Executable>
rbdock ($Id: //depot/dev/client3/rdock/2013.1/src/exe/rbdock.cxx#4 $)

>  <Rbt.Library>
libRbt.so (2013.1, Build901 2013/11/27)

>  <Rbt.Parameter_File>
/export/apps/rDock/src/rDock_2013.1_src/data/scripts/dock_solv.prm

>  <Rbt.Receptor>
prm/blind_docking_60.prm

>  <SCORE>
-14.5516

>  <SCORE.INTER>
-13.9486

>  <SCORE.INTER.CONST>
1

>  <SCORE.INTER.POLAR>
0

>  <SCORE.INTER.ROT>
2

>  <SCORE.INTER.SOLV>
10.4796

>  <SCORE.INTER.VDW>
-17.7256

>  <SCORE.INTER.norm>
-0.734136

>  <SCORE.INTRA>
-0.603066

>  <SCORE.INTRA.DIHEDRAL>
-0.184618

>  <SCORE.INTRA.DIHEDRAL.0>
1.50031

>  <SCORE.INTRA.POLAR>
0

>  <SCORE.INTRA.POLAR.0>
0

>  <SCORE.INTRA.REPUL>
0

>  <SCORE.INTRA.REPUL.0>
0

>  <SCORE.INTRA.SOLV>
0.648118

>  <SCORE.INTRA.SOLV.lig_0>
-37.9941

>  <SCORE.INTRA.VDW>
-0.834817

>  <SCORE.INTRA.VDW.0>
-0.964461

>  <SCORE.INTRA.norm>
-0.0317403

>  <SCORE.RESTR>
0

>  <SCORE.RESTR.CAVITY>
0

>  <SCORE.RESTR.norm>
0

>  <SCORE.SYSTEM>
0

>  <SCORE.SYSTEM.CONST>
0

>  <SCORE.SYSTEM.DIHEDRAL>
0

>  <SCORE.SYSTEM.SOLV>
0

>  <SCORE.SYSTEM.norm>
0

>  <SCORE.heavy>
19

>  <SCORE.norm>
-0.765876

>  <RMSD>
13.974

$$$$
ligand
 OpenBabel11021811483D
libRbt.so/2013.1/901 2013/11/27
 19 21  0  0  0  0  0  0  0  0999 V2000
   26.0778   17.4701   43.8596 C   0  0  0  0  0  0  0  0  0  0  0  0
   26.4610   18.0644   45.1121 O   0  0  0  0  0  0  0  0  0  0  0  0
   25.3175   16.1574   44.0762 C   0  0  1  0  0  0  0  0  0  0  0  0
   24.0882   16.3973   44.7607 O   0  0  0  0  0  0  0  0  0  0  0  0
   24.9682   15.4834   42.7630 C   0  0  1  0  0  0  0  0  0  0  0  0
   25.2628   14.0907   42.8791 O   0  0  0  0  0  0  0  0  0  0  0  0
   23.4782   15.6548   42.5723 C   0  0  0  0  0  0  0  0  0  0  0  0
   22.9578   16.0757   43.9346 C   0  0  2  0  0  0  0  0  0  0  0  0
   18.2937   17.6704   42.3660 N   0  0  0  0  0  0  0  0  0  0  0  0
   18.8889   16.4561   42.2843 C   0  0  2  0  0  0  0  0  0  0  0  0
   18.2350   15.4174   41.7229 N   0  0  0  0  0  0  0  0  0  0  0  0
   20.1363   16.2467   42.7556 N   0  0  0  0  0  0  0  0  0  0  0  0
   20.8485   17.2375   43.3293 C   0  0  1  0  0  0  0  0  0  0  0  0
   20.3097   18.4984   43.4423 C   0  0  1  0  0  0  0  0  0  0  0  0
   18.9372   18.7165   42.9226 C   0  0  0  0  0  0  0  0  0  0  0  0
   18.3940   19.8410   42.9938 O   0  0  0  0  0  0  0  0  0  0  0  0
   21.2216   19.2798   44.0459 N   0  0  0  0  0  0  0  0  0  0  0  0
   22.3027   18.5058   44.2968 C   0  0  0  0  0  0  0  0  0  0  0  0
   22.0622   17.2605   43.8560 N   0  0  1  0  0  0  0  0  0  0  0  0
  1  2  1  0  0  0  0
  3  1  1  6  0  0  0
  3  4  1  0  0  0  0
  3  5  1  0  0  0  0
  5  6  1  1  0  0  0
  5  7  1  0  0  0  0
  7  8  1  0  0  0  0
  8  4  1  1  0  0  0
  8 19  1  0  0  0  0
  9 15  1  0  0  0  0
  9 10  1  0  0  0  0
 10 11  1  1  0  0  0
 10 12  1  0  0  0  0
 13 12  1  1  0  0  0
 13 14  1  0  0  0  0
 13 19  1  0  0  0  0
 14 15  1  1  0  0  0
 14 17  1  0  0  0  0
 15 16  2  0  0  0  0
 17 18  1  0  0  0  0
 19 18  1  1  0  0  0
M  END
>  <CHROM.1>
63.81255025,-170.21321584,22.09990310,17.06333281,43.38610117,-0.13731069
-0.25763003,0.39501092

>  <Name>
ligand

>  <RI>
0

>  <Rbt.Current_Directory>
/home/itssahil/PROJECTS/Mol_Feturizer/New_Systems/rnas/3SKL

>  <Rbt.Executable>
rbdock ($Id: //depot/dev/client3/rdock/2013.1/src/exe/rbdock.cxx#4 $)

>  <Rbt.Library>
libRbt.so (2013.1, Build901 2013/11/27)

>  <Rbt.Parameter_File>
/export/apps/rDock/src/rDock_2013.1_src/data/scripts/dock_solv.prm

>  <Rbt.Receptor>
prm/blind_docking_100.prm

>  <SCORE>
-13.2642

>  <SCORE.INTER>
-12.791

>  <SCORE.INTER.CONST>
1

>  <SCORE.INTER.POLAR>
0

>  <SCORE.INTER.ROT>
2

>  <SCORE.INTER.SOLV>
8.0912

>  <SCORE.INTER.VDW>
-16.1577

>  <SCORE.INTER.norm>
-0.673211

>  <SCORE.INTRA>
-0.473208

>  <SCORE.INTRA.DIHEDRAL>
-0.232904

>  <SCORE.INTRA.DIHEDRAL.0>
1.50031

>  <SCORE.INTRA.POLAR>
0

>  <SCORE.INTRA.POLAR.0>
0

>  <SCORE.INTRA.REPUL>
0

>  <SCORE.INTRA.REPUL.0>
0

>  <SCORE.INTRA.SOLV>
-0.575613

>  <SCORE.INTRA.SOLV.lig_0>
-37.9941

>  <SCORE.INTRA.VDW>
-0.0689495

>  <SCORE.INTRA.VDW.0>
-0.964461

>  <SCORE.INTRA.norm>
-0.0249057

>  <SCORE.RESTR>
0

>  <SCORE.RESTR.CAVITY>
0

>  <SCORE.RESTR.norm>
0

>  <SCORE.SYSTEM>
0

>  <SCORE.SYSTEM.CONST>
0

>  <SCORE.SYSTEM.DIHEDRAL>
0

>  <SCORE.SYSTEM.SOLV>
0

>  <SCORE.SYSTEM.norm>
0

>  <SCORE.heavy>
19

>  <SCORE.norm>
-0.698117

>  <RMSD>
13.982

$$$$
ligand
 OpenBabel11021811483D
libRbt.so/2013.1/901 2013/11/27
 19 21  0  0  0  0  0  0  0  0999 V2000
   26.9763   17.1949   39.9586 C   0  0  0  0  0  0  0  0  0  0  0  0
   26.7308   18.2375   38.9988 O   0  0  0  0  0  0  0  0  0  0  0  0
   28.0408   17.6158   40.9772 C   0  0  1  0  0  0  0  0  0  0  0  0
   27.5725   18.7066   41.7698 O   0  0  0  0  0  0  0  0  0  0  0  0
   28.3842   16.4897   41.9337 C   0  0  1  0  0  0  0  0  0  0  0  0
   29.8046   16.4336   42.0720 O   0  0  0  0  0  0  0  0  0  0  0  0
   27.7760   16.8561   43.2686 C   0  0  0  0  0  0  0  0  0  0  0  0
   27.4366   18.3307   43.1495 C   0  0  2  0  0  0  0  0  0  0  0  0
   22.4547   17.2346   42.2906 N   0  0  0  0  0  0  0  0  0  0  0  0
   23.5778   16.7989   41.6705 C   0  0  2  0  0  0  0  0  0  0  0  0
   23.4904   15.9222   40.6480 N   0  0  0  0  0  0  0  0  0  0  0  0
   24.8033   17.2192   42.0492 N   0  0  0  0  0  0  0  0  0  0  0  0
   24.9665   18.0935   43.0627 C   0  0  1  0  0  0  0  0  0  0  0  0
   23.8704   18.5825   43.7354 C   0  0  1  0  0  0  0  0  0  0  0  0
   22.5285   18.1120   43.3118 C   0  0  0  0  0  0  0  0  0  0  0  0
   21.4938   18.5222   43.8825 O   0  0  0  0  0  0  0  0  0  0  0  0
   24.3154   19.4225   44.6855 N   0  0  0  0  0  0  0  0  0  0  0  0
   25.6651   19.4462   44.5928 C   0  0  0  0  0  0  0  0  0  0  0  0
   26.0508   18.6296   43.5992 N   0  0  1  0  0  0  0  0  0  0  0  0
  1  2  1  0  0  0  0
  3  1  1  6  0  0  0
  3  4  1  0  0  0  0
  3  5  1  0  0  0  0
  5  6  1  1  0  0  0
  5  7  1  0  0  0  0
  7  8  1  0  0  0  0
  8  4  1  6  0  0  0
  8 19  1  0  0  0  0
  9 15  1  0  0  0  0
  9 10  1  0  0  0  0
 10 11  1  1  0  0  0
 10 12  1  0  0  0  0
 13 12  1  1  0  0  0
 13 14  1  0  0  0  0
 13 19  1  0  0  0  0
 14 15  1  1  0  0  0
 14 17  1  0  0  0  0
 15 16  2  0  0  0  0
 17 18  1  0  0  0  0
 19 18  1  1  0  0  0
M  END
>  <CHROM.1>
65.12977121,60.30032217,25.62973125,17.77447962,42.35183733,0.36460363,-0.00692331
-2.01170145

>  <Name>
ligand

>  <RI>
0

>  <Rbt.Current_Directory>
/home/itssahil/PROJECTS/Mol_Feturizer/New_Systems/rnas/3SKL

>  <Rbt.Executable>
rbdock ($Id: //depot/dev/client3/rdock/2013.1/src/exe/rbdock.cxx#4 $)

>  <Rbt.Library>
libRbt.so (2013.1, Build901 2013/11/27)

>  <Rbt.Parameter_File>
/export/apps/rDock/src/rDock_2013.1_src/data/scripts/dock_solv.prm

>  <Rbt.Receptor>
prm/blind_docking_60.prm

>  <SCORE>
-14.5149

>  <SCORE.INTER>
-13.8847

>  <SCORE.INTER.CONST>
1

>  <SCORE.INTER.POLAR>
0

>  <SCORE.INTER.ROT>
2

>  <SCORE.INTER.SOLV>
9.79882

>  <SCORE.INTER.VDW>
-17.4561

>  <SCORE.INTER.norm>
-0.730776

>  <SCORE.INTRA>
-0.630166

>  <SCORE.INTRA.DIHEDRAL>
-0.202216

>  <SCORE.INTRA.DIHEDRAL.0>
1.50031

>  <SCORE.INTRA.POLAR>
0

>  <SCORE.INTRA.POLAR.0>
0

>  <SCORE.INTRA.REPUL>
0

>  <SCORE.INTRA.REPUL.0>
0

>  <SCORE.INTRA.SOLV>
0.610853

>  <SCORE.INTRA.SOLV.lig_0>
-37.9941

>  <SCORE.INTRA.VDW>
-0.834485

>  <SCORE.INTRA.VDW.0>
-0.964461

>  <SCORE.INTRA.norm>
-0.0331666

>  <SCORE.RESTR>
0

>  <SCORE.RESTR.CAVITY>
0

>  <SCORE.RESTR.norm>
0

>  <SCORE.SYSTEM>
0

>  <SCORE.SYSTEM.CONST>
0

>  <SCORE.SYSTEM.DIHEDRAL>
0

>  <SCORE.SYSTEM.SOLV>
0

>  <SCORE.SYSTEM.norm>
0

>  <SCORE.heavy>
19

>  <SCORE.norm>
-0.763943

>  <RMSD>
13.997

$$$$
ligand
 OpenBabel11021811483D
libRbt.so/2013.1/901 2013/11/27
 19 21  0  0  0  0  0  0  0  0999 V2000
   26.0788   17.4270   43.9398 C   0  0  0  0  0  0  0  0  0  0  0  0
   26.4307   17.9945   45.2137 O   0  0  0  0  0  0  0  0  0  0  0  0
   25.3065   16.1145   44.1096 C   0  0  1  0  0  0  0  0  0  0  0  0
   24.0610   16.3473   44.7666 O   0  0  0  0  0  0  0  0  0  0  0  0
   24.9882   15.4694   42.7742 C   0  0  1  0  0  0  0  0  0  0  0  0
   25.2726   14.0730   42.8693 O   0  0  0  0  0  0  0  0  0  0  0  0
   23.5045   15.6530   42.5484 C   0  0  0  0  0  0  0  0  0  0  0  0
   22.9509   16.0491   43.9050 C   0  0  2  0  0  0  0  0  0  0  0  0
   18.2808   17.6679   42.3796 N   0  0  0  0  0  0  0  0  0  0  0  0
   18.8655   16.4483   42.3008 C   0  0  2  0  0  0  0  0  0  0  0  0
   18.1967   15.4103   41.7558 N   0  0  0  0  0  0  0  0  0  0  0  0
   20.1168   16.2328   42.7587 N   0  0  0  0  0  0  0  0  0  0  0  0
   20.8436   17.2226   43.3157 C   0  0  1  0  0  0  0  0  0  0  0  0
   20.3161   18.4886   43.4248 C   0  0  1  0  0  0  0  0  0  0  0  0
   18.9391   18.7133   42.9199 C   0  0  0  0  0  0  0  0  0  0  0  0
   18.4057   19.8426   42.9883 O   0  0  0  0  0  0  0  0  0  0  0  0
   21.2413   19.2676   44.0109 N   0  0  0  0  0  0  0  0  0  0  0  0
   22.3192   18.4871   44.2552 C   0  0  0  0  0  0  0  0  0  0  0  0
   22.0637   17.2403   43.8275 N   0  0  1  0  0  0  0  0  0  0  0  0
  1  2  1  0  0  0  0
  3  1  1  6  0  0  0
  3  4  1  0  0  0  0
  3  5  1  0  0  0  0
  5  6  1  1  0  0  0
  5  7  1  0  0  0  0
  7  8  1  0  0  0  0
  8  4  1  1  0  0  0
  8 19  1  0  0  0  0
  9 15  1  0  0  0  0
  9 10  1  0  0  0  0
 10 11  1  1  0  0  0
 10 12  1  0  0  0  0
 13 12  1  1  0  0  0
 13 14  1  0  0  0  0
 13 19  1  0  0  0  0
 14 15  1  1  0  0  0
 14 17  1  0  0  0  0
 15 16  2  0  0  0  0
 17 18  1  0  0  0  0
 19 18  1  1  0  0  0
M  END
>  <CHROM.1>
63.73467659,-167.47858612,22.09645706,17.04293088,43.39205545,-0.13919568
-0.26334929,0.39569304

>  <Name>
ligand

>  <RI>
0

>  <Rbt.Current_Directory>
/home/itssahil/PROJECTS/Mol_Feturizer/New_Systems/rnas/3SKL

>  <Rbt.Executable>
rbdock ($Id: //depot/dev/client3/rdock/2013.1/src/exe/rbdock.cxx#4 $)

>  <Rbt.Library>
libRbt.so (2013.1, Build901 2013/11/27)

>  <Rbt.Parameter_File>
/export/apps/rDock/src/rDock_2013.1_src/data/scripts/dock_solv.prm

>  <Rbt.Receptor>
prm/blind_docking_60.prm

>  <SCORE>
-13.2922

>  <SCORE.INTER>
-12.7924

>  <SCORE.INTER.CONST>
1

>  <SCORE.INTER.POLAR>
0

>  <SCORE.INTER.ROT>
2

>  <SCORE.INTER.SOLV>
8.21484

>  <SCORE.INTER.VDW>
-16.1998

>  <SCORE.INTER.norm>
-0.673282

>  <SCORE.INTRA>
-0.499797

>  <SCORE.INTRA.DIHEDRAL>
-0.232023

>  <SCORE.INTRA.DIHEDRAL.0>
1.50031

>  <SCORE.INTRA.POLAR>
0

>  <SCORE.INTRA.POLAR.0>
0

>  <SCORE.INTRA.REPUL>
0

>  <SCORE.INTRA.REPUL.0>
0

>  <SCORE.INTRA.SOLV>
-0.574828

>  <SCORE.INTRA.SOLV.lig_0>
-37.9941

>  <SCORE.INTRA.VDW>
-0.0963718

>  <SCORE.INTRA.VDW.0>
-0.964461

>  <SCORE.INTRA.norm>
-0.0263051

>  <SCORE.RESTR>
0

>  <SCORE.RESTR.CAVITY>
0

>  <SCORE.RESTR.norm>
0

>  <SCORE.SYSTEM>
0

>  <SCORE.SYSTEM.CONST>
0

>  <SCORE.SYSTEM.DIHEDRAL>
0

>  <SCORE.SYSTEM.SOLV>
0

>  <SCORE.SYSTEM.norm>
0

>  <SCORE.heavy>
19

>  <SCORE.norm>
-0.699587

>  <RMSD>
14.002

$$$$
ligand
 OpenBabel11021811483D
libRbt.so/2013.1/901 2013/11/27
 19 21  0  0  0  0  0  0  0  0999 V2000
   26.7111   15.2690   41.2589 C   0  0  0  0  0  0  0  0  0  0  0  0
   25.8243   15.3726   40.1313 O   0  0  0  0  0  0  0  0  0  0  0  0
   27.7132   16.4279   41.2868 C   0  0  1  0  0  0  0  0  0  0  0  0
   27.0316   17.6774   41.3947 O   0  0  0  0  0  0  0  0  0  0  0  0
   28.6536   16.3333   42.4732 C   0  0  1  0  0  0  0  0  0  0  0  0
   29.9806   16.6028   42.0189 O   0  0  0  0  0  0  0  0  0  0  0  0
   28.2377   17.4173   43.4417 C   0  0  0  0  0  0  0  0  0  0  0  0
   27.3370   18.3347   42.6349 C   0  0  2  0  0  0  0  0  0  0  0  0
   22.2233   17.5599   42.5480 N   0  0  0  0  0  0  0  0  0  0  0  0
   23.1975   17.1421   41.7042 C   0  0  2  0  0  0  0  0  0  0  0  0
   22.8860   16.3828   40.6327 N   0  0  0  0  0  0  0  0  0  0  0  0
   24.4928   17.4647   41.9043 N   0  0  0  0  0  0  0  0  0  0  0  0
   24.8773   18.2191   42.9536 C   0  0  1  0  0  0  0  0  0  0  0  0
   23.9417   18.6830   43.8495 C   0  0  1  0  0  0  0  0  0  0  0  0
   22.5213   18.3205   43.6207 C   0  0  0  0  0  0  0  0  0  0  0  0
   21.6242   18.7142   44.3984 O   0  0  0  0  0  0  0  0  0  0  0  0
   24.5908   19.3974   44.7848 N   0  0  0  0  0  0  0  0  0  0  0  0
   25.9048   19.3702   44.4631 C   0  0  0  0  0  0  0  0  0  0  0  0
   26.0672   18.6464   43.3438 N   0  0  1  0  0  0  0  0  0  0  0  0
  1  2  1  0  0  0  0
  3  1  1  1  0  0  0
  3  4  1  0  0  0  0
  3  5  1  0  0  0  0
  5  6  1  6  0  0  0
  5  7  1  0  0  0  0
  7  8  1  0  0  0  0
  8  4  1  6  0  0  0
  8 19  1  0  0  0  0
  9 15  1  0  0  0  0
  9 10  1  0  0  0  0
 10 11  1  1  0  0  0
 10 12  1  0  0  0  0
 13 12  1  1  0  0  0
 13 14  1  0  0  0  0
 13 19  1  0  0  0  0
 14 15  1  1  0  0  0
 14 17  1  0  0  0  0
 15 16  2  0  0  0  0
 17 18  1  0  0  0  0
 19 18  1  1  0  0  0
M  END
>  <CHROM.1>
60.79630306,7.99694978,25.50908092,17.50509240,42.52924931,0.38088897,0.04971312
-2.28509436

>  <Name>
ligand

>  <RI>
0

>  <Rbt.Current_Directory>
/home/itssahil/PROJECTS/Mol_Feturizer/New_Systems/rnas/3SKL

>  <Rbt.Executable>
rbdock ($Id: //depot/dev/client3/rdock/2013.1/src/exe/rbdock.cxx#4 $)

>  <Rbt.Library>
libRbt.so (2013.1, Build901 2013/11/27)

>  <Rbt.Parameter_File>
/export/apps/rDock/src/rDock_2013.1_src/data/scripts/dock_solv.prm

>  <Rbt.Receptor>
prm/blind_docking_80.prm

>  <SCORE>
-14.1157

>  <SCORE.INTER>
-14.3653

>  <SCORE.INTER.CONST>
1

>  <SCORE.INTER.POLAR>
0

>  <SCORE.INTER.ROT>
2

>  <SCORE.INTER.SOLV>
11.5031

>  <SCORE.INTER.VDW>
-18.3446

>  <SCORE.INTER.norm>
-0.75607

>  <SCORE.INTRA>
0.2496

>  <SCORE.INTRA.DIHEDRAL>
-0.305338

>  <SCORE.INTRA.DIHEDRAL.0>
1.50031

>  <SCORE.INTRA.POLAR>
0

>  <SCORE.INTRA.POLAR.0>
0

>  <SCORE.INTRA.REPUL>
0

>  <SCORE.INTRA.REPUL.0>
0

>  <SCORE.INTRA.SOLV>
1.81704

>  <SCORE.INTRA.SOLV.lig_0>
-37.9941

>  <SCORE.INTRA.VDW>
-0.506249

>  <SCORE.INTRA.VDW.0>
-0.964461

>  <SCORE.INTRA.norm>
0.0131368

>  <SCORE.RESTR>
0

>  <SCORE.RESTR.CAVITY>
0

>  <SCORE.RESTR.norm>
0

>  <SCORE.SYSTEM>
0

>  <SCORE.SYSTEM.CONST>
0

>  <SCORE.SYSTEM.DIHEDRAL>
0

>  <SCORE.SYSTEM.SOLV>
0

>  <SCORE.SYSTEM.norm>
0

>  <SCORE.heavy>
19

>  <SCORE.norm>
-0.742933

>  <RMSD>
14.203

$$$$
ligand
 OpenBabel11021811483D
libRbt.so/2013.1/901 2013/11/27
 19 21  0  0  0  0  0  0  0  0999 V2000
   26.6942   15.2665   41.2516 C   0  0  0  0  0  0  0  0  0  0  0  0
   25.8167   15.3688   40.1167 O   0  0  0  0  0  0  0  0  0  0  0  0
   27.6996   16.4224   41.2834 C   0  0  1  0  0  0  0  0  0  0  0  0
   27.0215   17.6737   41.3917 O   0  0  0  0  0  0  0  0  0  0  0  0
   28.6371   16.3234   42.4718 C   0  0  1  0  0  0  0  0  0  0  0  0
   29.9658   16.5896   42.0208 O   0  0  0  0  0  0  0  0  0  0  0  0
   28.2222   17.4072   43.4409 C   0  0  0  0  0  0  0  0  0  0  0  0
   27.3260   18.3284   42.6335 C   0  0  2  0  0  0  0  0  0  0  0  0
   22.2169   17.5220   42.5668 N   0  0  0  0  0  0  0  0  0  0  0  0
   23.1921   17.0978   41.7275 C   0  0  2  0  0  0  0  0  0  0  0  0
   22.8834   16.3212   40.6676 N   0  0  0  0  0  0  0  0  0  0  0  0
   24.4858   17.4309   41.9205 N   0  0  0  0  0  0  0  0  0  0  0  0
   24.8676   18.2028   42.9582 C   0  0  1  0  0  0  0  0  0  0  0  0
   23.9308   18.6741   43.8488 C   0  0  1  0  0  0  0  0  0  0  0  0
   22.5121   18.2998   43.6279 C   0  0  0  0  0  0  0  0  0  0  0  0
   21.6140   18.6995   44.4013 O   0  0  0  0  0  0  0  0  0  0  0  0
   24.5771   19.4058   44.7726 N   0  0  0  0  0  0  0  0  0  0  0  0
   25.8907   19.3818   44.4489 C   0  0  0  0  0  0  0  0  0  0  0  0
   26.0556   18.6428   43.3400 N   0  0  1  0  0  0  0  0  0  0  0  0
  1  2  1  0  0  0  0
  3  1  1  1  0  0  0
  3  4  1  0  0  0  0
  3  5  1  0  0  0  0
  5  6  1  6  0  0  0
  5  7  1  0  0  0  0
  7  8  1  0  0  0  0
  8  4  1  6  0  0  0
  8 19  1  0  0  0  0
  9 15  1  0  0  0  0
  9 10  1  0  0  0  0
 10 11  1  1  0  0  0
 10 12  1  0  0  0  0
 13 12  1  1  0  0  0
 13 14  1  0  0  0  0
 13 19  1  0  0  0  0
 14 15  1  1  0  0  0
 14 17  1  0  0  0  0
 15 16  2  0  0  0  0
 17 18  1  0  0  0  0
 19 18  1  1  0  0  0
M  END
>  <CHROM.1>
61.23317672,9.06705442,25.49819106,17.49067034,42.53153702,0.38313859,0.04347793
-2.29151172

>  <Name>
ligand

>  <RI>
0

>  <Rbt.Current_Directory>
/home/itssahil/PROJECTS/Mol_Feturizer/New_Systems/rnas/3SKL

>  <Rbt.Executable>
rbdock ($Id: //depot/dev/client3/rdock/2013.1/src/exe/rbdock.cxx#4 $)

>  <Rbt.Library>
libRbt.so (2013.1, Build901 2013/11/27)

>  <Rbt.Parameter_File>
/export/apps/rDock/src/rDock_2013.1_src/data/scripts/dock_solv.prm

>  <Rbt.Receptor>
prm/blind_docking_80.prm

>  <SCORE>
-14.1251

>  <SCORE.INTER>
-14.3862

>  <SCORE.INTER.CONST>
1

>  <SCORE.INTER.POLAR>
0

>  <SCORE.INTER.ROT>
2

>  <SCORE.INTER.SOLV>
11.2537

>  <SCORE.INTER.VDW>
-18.2754

>  <SCORE.INTER.norm>
-0.757169

>  <SCORE.INTRA>
0.261145

>  <SCORE.INTRA.DIHEDRAL>
-0.303273

>  <SCORE.INTRA.DIHEDRAL.0>
1.50031

>  <SCORE.INTRA.POLAR>
0

>  <SCORE.INTRA.POLAR.0>
0

>  <SCORE.INTRA.REPUL>
0

>  <SCORE.INTRA.REPUL.0>
0

>  <SCORE.INTRA.SOLV>
1.87266

>  <SCORE.INTRA.SOLV.lig_0>
-37.9941

>  <SCORE.INTRA.VDW>
-0.523546

>  <SCORE.INTRA.VDW.0>
-0.964461

>  <SCORE.INTRA.norm>
0.0137445

>  <SCORE.RESTR>
0

>  <SCORE.RESTR.CAVITY>
0

>  <SCORE.RESTR.norm>
0

>  <SCORE.SYSTEM>
0

>  <SCORE.SYSTEM.CONST>
0

>  <SCORE.SYSTEM.DIHEDRAL>
0

>  <SCORE.SYSTEM.SOLV>
0

>  <SCORE.SYSTEM.norm>
0

>  <SCORE.heavy>
19

>  <SCORE.norm>
-0.743424

>  <RMSD>
14.208

$$$$
ligand
 OpenBabel11021811483D
libRbt.so/2013.1/901 2013/11/27
 19 21  0  0  0  0  0  0  0  0999 V2000
   26.5398   37.9909   41.8487 C   0  0  0  0  0  0  0  0  0  0  0  0
   26.1073   37.0623   42.8583 O   0  0  0  0  0  0  0  0  0  0  0  0
   27.6249   37.3780   40.9572 C   0  0  1  0  0  0  0  0  0  0  0  0
   28.7633   37.0089   41.7351 O   0  0  0  0  0  0  0  0  0  0  0  0
   27.1399   36.1215   40.2595 C   0  0  1  0  0  0  0  0  0  0  0  0
   27.5505   36.1781   38.8927 O   0  0  0  0  0  0  0  0  0  0  0  0
   27.8339   34.9586   40.9318 C   0  0  0  0  0  0  0  0  0  0  0  0
   28.9664   35.5869   41.7235 C   0  0  2  0  0  0  0  0  0  0  0  0
   30.5361   31.6554   44.6963 N   0  0  0  0  0  0  0  0  0  0  0  0
   30.6083   31.8366   43.3555 C   0  0  2  0  0  0  0  0  0  0  0  0
   31.1749   30.8933   42.5739 N   0  0  0  0  0  0  0  0  0  0  0  0
   30.1248   32.9500   42.7652 N   0  0  0  0  0  0  0  0  0  0  0  0
   29.5464   33.9339   43.4832 C   0  0  1  0  0  0  0  0  0  0  0  0
   29.4339   33.8165   44.8494 C   0  0  1  0  0  0  0  0  0  0  0  0
   29.9706   32.5892   45.4876 C   0  0  0  0  0  0  0  0  0  0  0  0
   29.8956   32.4229   46.7251 O   0  0  0  0  0  0  0  0  0  0  0  0
   28.8276   34.9256   45.3063 N   0  0  0  0  0  0  0  0  0  0  0  0
   28.5729   35.7087   44.2327 C   0  0  0  0  0  0  0  0  0  0  0  0
   29.0178   35.0930   43.1254 N   0  0  1  0  0  0  0  0  0  0  0  0
  1  2  1  0  0  0  0
  3  1  1  1  0  0  0
  3  4  1  0  0  0  0
  3  5  1  0  0  0  0
  5  6  1  6  0  0  0
  5  7  1  0  0  0  0
  7  8  1  0  0  0  0
  8  4  1  1  0  0  0
  8 19  1  0  0  0  0
  9 15  1  0  0  0  0
  9 10  1  0  0  0  0
 10 11  1  1  0  0  0
 10 12  1  0  0  0  0
 13 12  1  1  0  0  0
 13 14  1  0  0  0  0
 13 19  1  0  0  0  0
 14 15  1  1  0  0  0
 14 17  1  0  0  0  0
 15 16  2  0  0  0  0
 17 18  1  0  0  0  0
 19 18  1  1  0  0  0
M  END
>  <CHROM.1>
-59.92173909,-160.59377041,28.81175748,34.69006694,42.89609781,2.53883986
0.99591184,-1.56755692

>  <Name>
ligand

>  <RI>
0

>  <Rbt.Current_Directory>
/home/itssahil/PROJECTS/Mol_Feturizer/New_Systems/rnas/3SKL

>  <Rbt.Executable>
rbdock ($Id: //depot/dev/client3/rdock/2013.1/src/exe/rbdock.cxx#4 $)

>  <Rbt.Library>
libRbt.so (2013.1, Build901 2013/11/27)

>  <Rbt.Parameter_File>
/export/apps/rDock/src/rDock_2013.1_src/data/scripts/dock_solv.prm

>  <Rbt.Receptor>
prm/blind_docking_80.prm

>  <SCORE>
-19.2185

>  <SCORE.INTER>
-18.6573

>  <SCORE.INTER.CONST>
1

>  <SCORE.INTER.POLAR>
0

>  <SCORE.INTER.ROT>
2

>  <SCORE.INTER.SOLV>
12.7247

>  <SCORE.INTER.VDW>
-21.6131

>  <SCORE.INTER.norm>
-0.981961

>  <SCORE.INTRA>
-0.561293

>  <SCORE.INTRA.DIHEDRAL>
-0.277247

>  <SCORE.INTRA.DIHEDRAL.0>
1.50031

>  <SCORE.INTRA.POLAR>
0

>  <SCORE.INTRA.POLAR.0>
0

>  <SCORE.INTRA.REPUL>
0

>  <SCORE.INTRA.REPUL.0>
0

>  <SCORE.INTRA.SOLV>
0.0191129

>  <SCORE.INTRA.SOLV.lig_0>
-37.9941

>  <SCORE.INTRA.VDW>
-0.432226

>  <SCORE.INTRA.VDW.0>
-0.964461

>  <SCORE.INTRA.norm>
-0.0295417

>  <SCORE.RESTR>
0

>  <SCORE.RESTR.CAVITY>
0

>  <SCORE.RESTR.norm>
0

>  <SCORE.SYSTEM>
0

>  <SCORE.SYSTEM.CONST>
0

>  <SCORE.SYSTEM.DIHEDRAL>
0

>  <SCORE.SYSTEM.SOLV>
0

>  <SCORE.SYSTEM.norm>
0

>  <SCORE.heavy>
19

>  <SCORE.norm>
-1.0115

>  <RMSD>
14.217

$$$$
ligand
 OpenBabel11021811483D
libRbt.so/2013.1/901 2013/11/27
 19 21  0  0  0  0  0  0  0  0999 V2000
   26.5557   38.0250   41.8382 C   0  0  0  0  0  0  0  0  0  0  0  0
   26.0995   37.0915   42.8327 O   0  0  0  0  0  0  0  0  0  0  0  0
   27.6410   37.4064   40.9508 C   0  0  1  0  0  0  0  0  0  0  0  0
   28.7805   37.0452   41.7308 O   0  0  0  0  0  0  0  0  0  0  0  0
   27.1572   36.1436   40.2636 C   0  0  1  0  0  0  0  0  0  0  0  0
   27.5667   36.1898   38.8961 O   0  0  0  0  0  0  0  0  0  0  0  0
   27.8535   34.9872   40.9448 C   0  0  0  0  0  0  0  0  0  0  0  0
   28.9857   35.6234   41.7304 C   0  0  2  0  0  0  0  0  0  0  0  0
   30.5271   31.7002   44.7287 N   0  0  0  0  0  0  0  0  0  0  0  0
   30.5944   31.8692   43.3861 C   0  0  2  0  0  0  0  0  0  0  0  0
   31.1465   30.9130   42.6097 N   0  0  0  0  0  0  0  0  0  0  0  0
   30.1202   32.9828   42.7887 N   0  0  0  0  0  0  0  0  0  0  0  0
   29.5565   33.9792   43.5012 C   0  0  1  0  0  0  0  0  0  0  0  0
   29.4497   33.8746   44.8689 C   0  0  1  0  0  0  0  0  0  0  0  0
   29.9762   32.6469   45.5149 C   0  0  0  0  0  0  0  0  0  0  0  0
   29.9057   32.4919   46.7541 O   0  0  0  0  0  0  0  0  0  0  0  0
   28.8581   34.9942   45.3194 N   0  0  0  0  0  0  0  0  0  0  0  0
   28.6065   35.7709   44.2404 C   0  0  0  0  0  0  0  0  0  0  0  0
   29.0388   35.1409   43.1363 N   0  0  1  0  0  0  0  0  0  0  0  0
  1  2  1  0  0  0  0
  3  1  1  1  0  0  0
  3  4  1  0  0  0  0
  3  5  1  0  0  0  0
  5  6  1  6  0  0  0
  5  7  1  0  0  0  0
  7  8  1  0  0  0  0
  8  4  1  1  0  0  0
  8 19  1  0  0  0  0
  9 15  1  0  0  0  0
  9 10  1  0  0  0  0
 10 11  1  1  0  0  0
 10 12  1  0  0  0  0
 13 12  1  1  0  0  0
 13 14  1  0  0  0  0
 13 19  1  0  0  0  0
 14 15  1  1  0  0  0
 14 17  1  0  0  0  0
 15 16  2  0  0  0  0
 17 18  1  0  0  0  0
 19 18  1  1  0  0  0
M  END
>  <CHROM.1>
-61.49191234,-161.35192741,28.82135725,34.72996486,42.90755941,2.54479697
1.00177119,-1.58258122

>  <Name>
ligand

>  <RI>
0

>  <Rbt.Current_Directory>
/home/itssahil/PROJECTS/Mol_Feturizer/New_Systems/rnas/3SKL

>  <Rbt.Executable>
rbdock ($Id: //depot/dev/client3/rdock/2013.1/src/exe/rbdock.cxx#4 $)

>  <Rbt.Library>
libRbt.so (2013.1, Build901 2013/11/27)

>  <Rbt.Parameter_File>
/export/apps/rDock/src/rDock_2013.1_src/data/scripts/dock_solv.prm

>  <Rbt.Receptor>
prm/blind_docking_80.prm

>  <SCORE>
-19.3337

>  <SCORE.INTER>
-18.7908

>  <SCORE.INTER.CONST>
1

>  <SCORE.INTER.POLAR>
0

>  <SCORE.INTER.ROT>
2

>  <SCORE.INTER.SOLV>
12.7583

>  <SCORE.INTER.VDW>
-21.7133

>  <SCORE.INTER.norm>
-0.988989

>  <SCORE.INTRA>
-0.542875

>  <SCORE.INTRA.DIHEDRAL>
-0.270256

>  <SCORE.INTRA.DIHEDRAL.0>
1.50031

>  <SCORE.INTRA.POLAR>
0

>  <SCORE.INTRA.POLAR.0>
0

>  <SCORE.INTRA.REPUL>
0

>  <SCORE.INTRA.REPUL.0>
0

>  <SCORE.INTRA.SOLV>
0.0131229

>  <SCORE.INTRA.SOLV.lig_0>
-37.9941

>  <SCORE.INTRA.VDW>
-0.414308

>  <SCORE.INTRA.VDW.0>
-0.964461

>  <SCORE.INTRA.norm>
-0.0285723

>  <SCORE.RESTR>
0

>  <SCORE.RESTR.CAVITY>
0

>  <SCORE.RESTR.norm>
0

>  <SCORE.SYSTEM>
0

>  <SCORE.SYSTEM.CONST>
0

>  <SCORE.SYSTEM.DIHEDRAL>
0

>  <SCORE.SYSTEM.SOLV>
0

>  <SCORE.SYSTEM.norm>
0

>  <SCORE.heavy>
19

>  <SCORE.norm>
-1.01756

>  <RMSD>
14.247

$$$$
ligand
 OpenBabel11021811483D
libRbt.so/2013.1/901 2013/11/27
 19 21  0  0  0  0  0  0  0  0999 V2000
   26.5228   38.0043   41.8679 C   0  0  0  0  0  0  0  0  0  0  0  0
   26.1095   37.0855   42.8943 O   0  0  0  0  0  0  0  0  0  0  0  0
   27.6083   37.3914   40.9768 C   0  0  1  0  0  0  0  0  0  0  0  0
   28.7539   37.0397   41.7523 O   0  0  0  0  0  0  0  0  0  0  0  0
   27.1302   36.1238   40.2945 C   0  0  1  0  0  0  0  0  0  0  0  0
   27.5330   36.1700   38.9250 O   0  0  0  0  0  0  0  0  0  0  0  0
   27.8375   34.9738   40.9749 C   0  0  0  0  0  0  0  0  0  0  0  0
   28.9689   35.6194   41.7540 C   0  0  2  0  0  0  0  0  0  0  0  0
   30.5575   31.7165   44.7541 N   0  0  0  0  0  0  0  0  0  0  0  0
   30.6181   31.8833   43.4110 C   0  0  2  0  0  0  0  0  0  0  0  0
   31.1759   30.9307   42.6344 N   0  0  0  0  0  0  0  0  0  0  0  0
   30.1315   32.9914   42.8132 N   0  0  0  0  0  0  0  0  0  0  0  0
   29.5614   33.9840   43.5259 C   0  0  1  0  0  0  0  0  0  0  0  0
   29.4609   33.8813   44.8942 C   0  0  1  0  0  0  0  0  0  0  0  0
   30.0009   32.6598   45.5406 C   0  0  0  0  0  0  0  0  0  0  0  0
   29.9366   32.5067   46.7803 O   0  0  0  0  0  0  0  0  0  0  0  0
   28.8608   34.9963   45.3447 N   0  0  0  0  0  0  0  0  0  0  0  0
   28.5980   35.7685   44.2651 C   0  0  0  0  0  0  0  0  0  0  0  0
   29.0318   35.1403   43.1606 N   0  0  1  0  0  0  0  0  0  0  0  0
  1  2  1  0  0  0  0
  3  1  1  1  0  0  0
  3  4  1  0  0  0  0
  3  5  1  0  0  0  0
  5  6  1  6  0  0  0
  5  7  1  0  0  0  0
  7  8  1  0  0  0  0
  8  4  1  1  0  0  0
  8 19  1  0  0  0  0
  9 15  1  0  0  0  0
  9 10  1  0  0  0  0
 10 11  1  1  0  0  0
 10 12  1  0  0  0  0
 13 12  1  1  0  0  0
 13 14  1  0  0  0  0
 13 19  1  0  0  0  0
 14 15  1  1  0  0  0
 14 17  1  0  0  0  0
 15 16  2  0  0  0  0
 17 18  1  0  0  0  0
 19 18  1  1  0  0  0
M  END
>  <CHROM.1>
-59.56208572,-161.21965751,28.81987881,34.72921117,42.93567644,2.55345666
0.99493366,-1.59180013

>  <Name>
ligand

>  <RI>
0

>  <Rbt.Current_Directory>
/home/itssahil/PROJECTS/Mol_Feturizer/New_Systems/rnas/3SKL

>  <Rbt.Executable>
rbdock ($Id: //depot/dev/client3/rdock/2013.1/src/exe/rbdock.cxx#4 $)

>  <Rbt.Library>
libRbt.so (2013.1, Build901 2013/11/27)

>  <Rbt.Parameter_File>
/export/apps/rDock/src/rDock_2013.1_src/data/scripts/dock_solv.prm

>  <Rbt.Receptor>
prm/blind_docking_80.prm

>  <SCORE>
-19.2725

>  <SCORE.INTER>
-18.713

>  <SCORE.INTER.CONST>
1

>  <SCORE.INTER.POLAR>
0

>  <SCORE.INTER.ROT>
2

>  <SCORE.INTER.SOLV>
12.5639

>  <SCORE.INTER.VDW>
-21.5966

>  <SCORE.INTER.norm>
-0.984893

>  <SCORE.INTRA>
-0.559515

>  <SCORE.INTRA.DIHEDRAL>
-0.276923

>  <SCORE.INTRA.DIHEDRAL.0>
1.50031

>  <SCORE.INTRA.POLAR>
0

>  <SCORE.INTRA.POLAR.0>
0

>  <SCORE.INTRA.REPUL>
0

>  <SCORE.INTRA.REPUL.0>
0

>  <SCORE.INTRA.SOLV>
0.0194598

>  <SCORE.INTRA.SOLV.lig_0>
-37.9941

>  <SCORE.INTRA.VDW>
-0.430783

>  <SCORE.INTRA.VDW.0>
-0.964461

>  <SCORE.INTRA.norm>
-0.0294481

>  <SCORE.RESTR>
0

>  <SCORE.RESTR.CAVITY>
0

>  <SCORE.RESTR.norm>
0

>  <SCORE.SYSTEM>
0

>  <SCORE.SYSTEM.CONST>
0

>  <SCORE.SYSTEM.DIHEDRAL>
0

>  <SCORE.SYSTEM.SOLV>
0

>  <SCORE.SYSTEM.norm>
0

>  <SCORE.heavy>
19

>  <SCORE.norm>
-1.01434

>  <RMSD>
14.260

$$$$
ligand
 OpenBabel11021811483D
libRbt.so/2013.1/901 2013/11/27
 19 21  0  0  0  0  0  0  0  0999 V2000
   26.5765   37.9902   41.8042 C   0  0  0  0  0  0  0  0  0  0  0  0
   26.1607   37.0963   42.8514 O   0  0  0  0  0  0  0  0  0  0  0  0
   27.6452   37.3463   40.9147 C   0  0  1  0  0  0  0  0  0  0  0  0
   28.8077   37.0273   41.6790 O   0  0  0  0  0  0  0  0  0  0  0  0
   27.1570   36.0524   40.2915 C   0  0  1  0  0  0  0  0  0  0  0  0
   27.5312   36.0470   38.9132 O   0  0  0  0  0  0  0  0  0  0  0  0
   27.8821   34.9309   41.0004 C   0  0  0  0  0  0  0  0  0  0  0  0
   29.0273   35.6086   41.7305 C   0  0  2  0  0  0  0  0  0  0  0  0
   30.6037   31.7845   44.8367 N   0  0  0  0  0  0  0  0  0  0  0  0
   30.6271   31.8965   43.4867 C   0  0  2  0  0  0  0  0  0  0  0  0
   31.1351   30.8988   42.7329 N   0  0  0  0  0  0  0  0  0  0  0  0
   30.1519   32.9932   42.8596 N   0  0  0  0  0  0  0  0  0  0  0  0
   29.6307   34.0286   43.5483 C   0  0  1  0  0  0  0  0  0  0  0  0
   29.5698   33.9828   44.9221 C   0  0  1  0  0  0  0  0  0  0  0  0
   30.0970   32.7732   45.6008 C   0  0  0  0  0  0  0  0  0  0  0  0
   30.0670   32.6710   46.8471 O   0  0  0  0  0  0  0  0  0  0  0  0
   29.0138   35.1310   45.3450 N   0  0  0  0  0  0  0  0  0  0  0  0
   28.7384   35.8670   44.2435 C   0  0  0  0  0  0  0  0  0  0  0  0
   29.1209   35.1838   43.1528 N   0  0  1  0  0  0  0  0  0  0  0  0
  1  2  1  0  0  0  0
  3  1  1  1  0  0  0
  3  4  1  0  0  0  0
  3  5  1  0  0  0  0
  5  6  1  6  0  0  0
  5  7  1  0  0  0  0
  7  8  1  0  0  0  0
  8  4  1  1  0  0  0
  8 19  1  0  0  0  0
  9 15  1  0  0  0  0
  9 10  1  0  0  0  0
 10 11  1  1  0  0  0
 10 12  1  0  0  0  0
 13 12  1  1  0  0  0
 13 14  1  0  0  0  0
 13 19  1  0  0  0  0
 14 15  1  1  0  0  0
 14 17  1  0  0  0  0
 15 16  2  0  0  0  0
 17 18  1  0  0  0  0
 19 18  1  1  0  0  0
M  END
>  <CHROM.1>
-61.16202583,-163.02741280,28.87940702,34.75090571,42.94482798,2.60530168
1.00972332,-1.67916152

>  <Name>
ligand

>  <RI>
0

>  <Rbt.Current_Directory>
/home/itssahil/PROJECTS/Mol_Feturizer/New_Systems/rnas/3SKL

>  <Rbt.Executable>
rbdock ($Id: //depot/dev/client3/rdock/2013.1/src/exe/rbdock.cxx#4 $)

>  <Rbt.Library>
libRbt.so (2013.1, Build901 2013/11/27)

>  <Rbt.Parameter_File>
/export/apps/rDock/src/rDock_2013.1_src/data/scripts/dock_solv.prm

>  <Rbt.Receptor>
prm/blind_docking_80.prm

>  <SCORE>
-19.3431

>  <SCORE.INTER>
-18.8067

>  <SCORE.INTER.CONST>
1

>  <SCORE.INTER.POLAR>
0

>  <SCORE.INTER.ROT>
2

>  <SCORE.INTER.SOLV>
12.5794

>  <SCORE.INTER.VDW>
-21.6643

>  <SCORE.INTER.norm>
-0.989825

>  <SCORE.INTRA>
-0.536401

>  <SCORE.INTRA.DIHEDRAL>
-0.274659

>  <SCORE.INTRA.DIHEDRAL.0>
1.50031

>  <SCORE.INTRA.POLAR>
0

>  <SCORE.INTRA.POLAR.0>
0

>  <SCORE.INTRA.REPUL>
0

>  <SCORE.INTRA.REPUL.0>
0

>  <SCORE.INTRA.SOLV>
0.0121004

>  <SCORE.INTRA.SOLV.lig_0>
-37.9941

>  <SCORE.INTRA.VDW>
-0.405122

>  <SCORE.INTRA.VDW.0>
-0.964461

>  <SCORE.INTRA.norm>
-0.0282316

>  <SCORE.RESTR>
0

>  <SCORE.RESTR.CAVITY>
0

>  <SCORE.RESTR.norm>
0

>  <SCORE.SYSTEM>
0

>  <SCORE.SYSTEM.CONST>
0

>  <SCORE.SYSTEM.DIHEDRAL>
0

>  <SCORE.SYSTEM.SOLV>
0

>  <SCORE.SYSTEM.norm>
0

>  <SCORE.heavy>
19

>  <SCORE.norm>
-1.01806

>  <RMSD>
14.317

$$$$
ligand
 OpenBabel11021811483D
libRbt.so/2013.1/901 2013/11/27
 19 21  0  0  0  0  0  0  0  0999 V2000
   23.4705   18.3277   44.3284 C   0  0  0  0  0  0  0  0  0  0  0  0
   23.1228   19.7028   44.0902 O   0  0  0  0  0  0  0  0  0  0  0  0
   22.7966   17.3995   43.3124 C   0  0  1  0  0  0  0  0  0  0  0  0
   23.2081   17.7261   41.9852 O   0  0  0  0  0  0  0  0  0  0  0  0
   23.1641   15.9461   43.5441 C   0  0  1  0  0  0  0  0  0  0  0  0
   21.9756   15.1600   43.4469 O   0  0  0  0  0  0  0  0  0  0  0  0
   24.1035   15.5544   42.4261 C   0  0  0  0  0  0  0  0  0  0  0  0
   23.9517   16.6517   41.3884 C   0  0  2  0  0  0  0  0  0  0  0  0
   28.4230   18.7068   42.9828 N   0  0  0  0  0  0  0  0  0  0  0  0
   27.3255   18.3239   43.6788 C   0  0  2  0  0  0  0  0  0  0  0  0
   27.2965   18.4516   45.0221 N   0  0  0  0  0  0  0  0  0  0  0  0
   26.2412   17.8082   43.0621 N   0  0  0  0  0  0  0  0  0  0  0  0
   26.1999   17.6511   41.7235 C   0  0  1  0  0  0  0  0  0  0  0  0
   27.2765   18.0226   40.9516 C   0  0  1  0  0  0  0  0  0  0  0  0
   28.4636   18.5863   41.6404 C   0  0  0  0  0  0  0  0  0  0  0  0
   29.4721   18.9451   40.9933 O   0  0  0  0  0  0  0  0  0  0  0  0
   26.9706   17.7587   39.6697 N   0  0  0  0  0  0  0  0  0  0  0  0
   25.7235   17.2339   39.6600 C   0  0  0  0  0  0  0  0  0  0  0  0
   25.2640   17.1720   40.9201 N   0  0  1  0  0  0  0  0  0  0  0  0
  1  2  1  0  0  0  0
  3  1  1  1  0  0  0
  3  4  1  0  0  0  0
  3  5  1  0  0  0  0
  5  6  1  6  0  0  0
  5  7  1  0  0  0  0
  7  8  1  0  0  0  0
  8  4  1  1  0  0  0
  8 19  1  0  0  0  0
  9 15  1  0  0  0  0
  9 10  1  0  0  0  0
 10 11  1  1  0  0  0
 10 12  1  0  0  0  0
 13 12  1  1  0  0  0
 13 14  1  0  0  0  0
 13 19  1  0  0  0  0
 14 15  1  1  0  0  0
 14 17  1  0  0  0  0
 15 16  2  0  0  0  0
 17 18  1  0  0  0  0
 19 18  1  1  0  0  0
M  END
>  <CHROM.1>
60.42800684,64.34313204,25.43249361,17.64433389,42.39488948,-2.99502162,-0.38639446
-1.97763600

>  <Name>
ligand

>  <RI>
0

>  <Rbt.Current_Directory>
/home/itssahil/PROJECTS/Mol_Feturizer/New_Systems/rnas/3SKL

>  <Rbt.Executable>
rbdock ($Id: //depot/dev/client3/rdock/2013.1/src/exe/rbdock.cxx#4 $)

>  <Rbt.Library>
libRbt.so (2013.1, Build901 2013/11/27)

>  <Rbt.Parameter_File>
/export/apps/rDock/src/rDock_2013.1_src/data/scripts/dock_solv.prm

>  <Rbt.Receptor>
prm/blind_docking_60.prm

>  <SCORE>
-13.0315

>  <SCORE.INTER>
-12.2977

>  <SCORE.INTER.CONST>
1

>  <SCORE.INTER.POLAR>
0

>  <SCORE.INTER.ROT>
2

>  <SCORE.INTER.SOLV>
8.32121

>  <SCORE.INTER.VDW>
-15.9056

>  <SCORE.INTER.norm>
-0.647249

>  <SCORE.INTRA>
-0.733738

>  <SCORE.INTRA.DIHEDRAL>
-0.292303

>  <SCORE.INTRA.DIHEDRAL.0>
1.50031

>  <SCORE.INTRA.POLAR>
0

>  <SCORE.INTRA.POLAR.0>
0

>  <SCORE.INTRA.REPUL>
0

>  <SCORE.INTRA.REPUL.0>
0

>  <SCORE.INTRA.SOLV>
0.474683

>  <SCORE.INTRA.SOLV.lig_0>
-37.9941

>  <SCORE.INTRA.VDW>
-0.824928

>  <SCORE.INTRA.VDW.0>
-0.964461

>  <SCORE.INTRA.norm>
-0.0386178

>  <SCORE.RESTR>
0

>  <SCORE.RESTR.CAVITY>
0

>  <SCORE.RESTR.norm>
0

>  <SCORE.SYSTEM>
0

>  <SCORE.SYSTEM.CONST>
0

>  <SCORE.SYSTEM.DIHEDRAL>
0

>  <SCORE.SYSTEM.SOLV>
0

>  <SCORE.SYSTEM.norm>
0

>  <SCORE.heavy>
19

>  <SCORE.norm>
-0.685867

>  <RMSD>
14.353

$$$$
ligand
 OpenBabel11021811483D
libRbt.so/2013.1/901 2013/11/27
 19 21  0  0  0  0  0  0  0  0999 V2000
   29.3707   19.4511   44.3305 C   0  0  0  0  0  0  0  0  0  0  0  0
   30.6871   19.9410   44.0214 O   0  0  0  0  0  0  0  0  0  0  0  0
   29.0936   18.1185   43.6269 C   0  0  1  0  0  0  0  0  0  0  0  0
   27.8593   17.5609   44.0776 O   0  0  0  0  0  0  0  0  0  0  0  0
   28.9802   18.2860   42.1236 C   0  0  1  0  0  0  0  0  0  0  0  0
   29.7235   17.2400   41.4965 O   0  0  0  0  0  0  0  0  0  0  0  0
   27.5171   18.1217   41.7796 C   0  0  0  0  0  0  0  0  0  0  0  0
   26.8954   17.4953   43.0145 C   0  0  2  0  0  0  0  0  0  0  0  0
   21.7305   17.3293   42.7826 N   0  0  0  0  0  0  0  0  0  0  0  0
   22.6685   16.5118   42.2465 C   0  0  2  0  0  0  0  0  0  0  0  0
   22.2954   15.4390   41.5174 N   0  0  0  0  0  0  0  0  0  0  0  0
   23.9876   16.7381   42.4218 N   0  0  0  0  0  0  0  0  0  0  0  0
   24.4331   17.7897   43.1386 C   0  0  1  0  0  0  0  0  0  0  0  0
   23.5378   18.6652   43.7087 C   0  0  1  0  0  0  0  0  0  0  0  0
   22.0904   18.4053   43.5111 C   0  0  0  0  0  0  0  0  0  0  0  0
   21.2278   19.1666   44.0021 O   0  0  0  0  0  0  0  0  0  0  0  0
   24.2439   19.6063   44.3584 N   0  0  0  0  0  0  0  0  0  0  0  0
   25.5526   19.3092   44.1860 C   0  0  0  0  0  0  0  0  0  0  0  0
   25.6553   18.1971   43.4407 N   0  0  1  0  0  0  0  0  0  0  0  0
  1  2  1  0  0  0  0
  3  1  1  1  0  0  0
  3  4  1  0  0  0  0
  3  5  1  0  0  0  0
  5  6  1  6  0  0  0
  5  7  1  0  0  0  0
  7  8  1  0  0  0  0
  8  4  1  1  0  0  0
  8 19  1  0  0  0  0
  9 15  1  0  0  0  0
  9 10  1  0  0  0  0
 10 11  1  1  0  0  0
 10 12  1  0  0  0  0
 13 12  1  1  0  0  0
 13 14  1  0  0  0  0
 13 19  1  0  0  0  0
 14 15  1  1  0  0  0
 14 17  1  0  0  0  0
 15 16  2  0  0  0  0
 17 18  1  0  0  0  0
 19 18  1  1  0  0  0
M  END
>  <CHROM.1>
172.46389090,-142.34709744,25.75960757,18.08344179,43.14872481,0.11629589
0.06633339,0.70721955

>  <Name>
ligand

>  <RI>
0

>  <Rbt.Current_Directory>
/home/itssahil/PROJECTS/Mol_Feturizer/New_Systems/rnas/3SKL

>  <Rbt.Executable>
rbdock ($Id: //depot/dev/client3/rdock/2013.1/src/exe/rbdock.cxx#4 $)

>  <Rbt.Library>
libRbt.so (2013.1, Build901 2013/11/27)

>  <Rbt.Parameter_File>
/export/apps/rDock/src/rDock_2013.1_src/data/scripts/dock_solv.prm

>  <Rbt.Receptor>
prm/blind_docking_80.prm

>  <SCORE>
-14.7043

>  <SCORE.INTER>
-14.2309

>  <SCORE.INTER.CONST>
1

>  <SCORE.INTER.POLAR>
0

>  <SCORE.INTER.ROT>
2

>  <SCORE.INTER.SOLV>
6.9894

>  <SCORE.INTER.VDW>
-16.7504

>  <SCORE.INTER.norm>
-0.748995

>  <SCORE.INTRA>
-0.473443

>  <SCORE.INTRA.DIHEDRAL>
-0.0745738

>  <SCORE.INTRA.DIHEDRAL.0>
1.50031

>  <SCORE.INTRA.POLAR>
0

>  <SCORE.INTRA.POLAR.0>
0

>  <SCORE.INTRA.REPUL>
0

>  <SCORE.INTRA.REPUL.0>
0

>  <SCORE.INTRA.SOLV>
-0.496086

>  <SCORE.INTRA.SOLV.lig_0>
-37.9941

>  <SCORE.INTRA.VDW>
-0.188113

>  <SCORE.INTRA.VDW.0>
-0.964461

>  <SCORE.INTRA.norm>
-0.0249181

>  <SCORE.RESTR>
0

>  <SCORE.RESTR.CAVITY>
0

>  <SCORE.RESTR.norm>
0

>  <SCORE.SYSTEM>
0

>  <SCORE.SYSTEM.CONST>
0

>  <SCORE.SYSTEM.DIHEDRAL>
0

>  <SCORE.SYSTEM.SOLV>
0

>  <SCORE.SYSTEM.norm>
0

>  <SCORE.heavy>
19

>  <SCORE.norm>
-0.773913

>  <RMSD>
14.361

$$$$
ligand
 OpenBabel11021811483D
libRbt.so/2013.1/901 2013/11/27
 19 21  0  0  0  0  0  0  0  0999 V2000
    5.0552   22.8159   39.5823 C   0  0  0  0  0  0  0  0  0  0  0  0
    4.3947   24.0588   39.8782 O   0  0  0  0  0  0  0  0  0  0  0  0
    5.1984   21.9492   40.8378 C   0  0  1  0  0  0  0  0  0  0  0  0
    5.7892   20.6910   40.5136 O   0  0  0  0  0  0  0  0  0  0  0  0
    6.0905   22.6021   41.8764 C   0  0  1  0  0  0  0  0  0  0  0  0
    5.4659   22.4697   43.1540 O   0  0  0  0  0  0  0  0  0  0  0  0
    7.3873   21.8247   41.8821 C   0  0  0  0  0  0  0  0  0  0  0  0
    7.0728   20.5385   41.1401 C   0  0  2  0  0  0  0  0  0  0  0  0
   10.7392   17.1497   39.7868 N   0  0  0  0  0  0  0  0  0  0  0  0
    9.9345   17.1971   40.8757 C   0  0  2  0  0  0  0  0  0  0  0  0
   10.0200   16.2400   41.8235 N   0  0  0  0  0  0  0  0  0  0  0  0
    9.0329   18.1871   41.0465 N   0  0  0  0  0  0  0  0  0  0  0  0
    8.8920   19.1759   40.1406 C   0  0  1  0  0  0  0  0  0  0  0  0
    9.6789   19.1952   39.0121 C   0  0  1  0  0  0  0  0  0  0  0  0
   10.6649   18.1009   38.8340 C   0  0  0  0  0  0  0  0  0  0  0  0
   11.4107   18.0648   37.8305 O   0  0  0  0  0  0  0  0  0  0  0  0
    9.3323   20.2751   38.2909 N   0  0  0  0  0  0  0  0  0  0  0  0
    8.3477   20.9064   38.9710 C   0  0  0  0  0  0  0  0  0  0  0  0
    8.0867   20.2249   40.0981 N   0  0  1  0  0  0  0  0  0  0  0  0
  1  2  1  0  0  0  0
  3  1  1  6  0  0  0
  3  4  1  0  0  0  0
  3  5  1  0  0  0  0
  5  6  1  1  0  0  0
  5  7  1  0  0  0  0
  7  8  1  0  0  0  0
  8  4  1  6  0  0  0
  8 19  1  0  0  0  0
  9 15  1  0  0  0  0
  9 10  1  0  0  0  0
 10 11  1  6  0  0  0
 10 12  1  0  0  0  0
 13 12  1  6  0  0  0
 13 14  1  0  0  0  0
 13 19  1  0  0  0  0
 14 15  1  6  0  0  0
 14 17  1  0  0  0  0
 15 16  2  0  0  0  0
 17 18  1  0  0  0  0
 19 18  1  6  0  0  0
M  END
>  <CHROM.1>
176.84232589,-125.91680455,7.95776100,20.15225372,40.31151752,-2.97832259
-0.78100998,2.07107402

>  <Name>
ligand

>  <RI>
0

>  <Rbt.Current_Directory>
/home/itssahil/PROJECTS/Mol_Feturizer/New_Systems/rnas/3SKL

>  <Rbt.Executable>
rbdock ($Id: //depot/dev/client3/rdock/2013.1/src/exe/rbdock.cxx#4 $)

>  <Rbt.Library>
libRbt.so (2013.1, Build901 2013/11/27)

>  <Rbt.Parameter_File>
/export/apps/rDock/src/rDock_2013.1_src/data/scripts/dock_solv.prm

>  <Rbt.Receptor>
prm/blind_docking_60.prm

>  <SCORE>
-9.96386

>  <SCORE.INTER>
-9.44196

>  <SCORE.INTER.CONST>
1

>  <SCORE.INTER.POLAR>
0

>  <SCORE.INTER.ROT>
2

>  <SCORE.INTER.SOLV>
3.9274

>  <SCORE.INTER.VDW>
-12.5371

>  <SCORE.INTER.norm>
-0.496945

>  <SCORE.INTRA>
-0.5219

>  <SCORE.INTRA.DIHEDRAL>
-0.255099

>  <SCORE.INTRA.DIHEDRAL.0>
1.50031

>  <SCORE.INTRA.POLAR>
0

>  <SCORE.INTRA.POLAR.0>
0

>  <SCORE.INTRA.REPUL>
0

>  <SCORE.INTRA.REPUL.0>
0

>  <SCORE.INTRA.SOLV>
-0.47386

>  <SCORE.INTRA.SOLV.lig_0>
-37.9941

>  <SCORE.INTRA.VDW>
-0.15742

>  <SCORE.INTRA.VDW.0>
-0.964461

>  <SCORE.INTRA.norm>
-0.0274684

>  <SCORE.RESTR>
0

>  <SCORE.RESTR.CAVITY>
0

>  <SCORE.RESTR.norm>
0

>  <SCORE.SYSTEM>
0

>  <SCORE.SYSTEM.CONST>
0

>  <SCORE.SYSTEM.DIHEDRAL>
0

>  <SCORE.SYSTEM.SOLV>
0

>  <SCORE.SYSTEM.norm>
0

>  <SCORE.heavy>
19

>  <SCORE.norm>
-0.524414

>  <RMSD>
14.366

$$$$
ligand
 OpenBabel11021811483D
libRbt.so/2013.1/901 2013/11/27
 19 21  0  0  0  0  0  0  0  0999 V2000
   24.0152   18.4426   44.2474 C   0  0  0  0  0  0  0  0  0  0  0  0
   23.6554   19.8255   44.0837 O   0  0  0  0  0  0  0  0  0  0  0  0
   23.1880   17.5397   43.3263 C   0  0  1  0  0  0  0  0  0  0  0  0
   23.4748   17.8233   41.9571 O   0  0  0  0  0  0  0  0  0  0  0  0
   23.4973   16.0713   43.5478 C   0  0  1  0  0  0  0  0  0  0  0  0
   22.2639   15.3527   43.5911 O   0  0  0  0  0  0  0  0  0  0  0  0
   24.2908   15.6109   42.3460 C   0  0  0  0  0  0  0  0  0  0  0  0
   24.0912   16.7000   41.3079 C   0  0  2  0  0  0  0  0  0  0  0  0
   28.7415   18.7023   42.3679 N   0  0  0  0  0  0  0  0  0  0  0  0
   27.6966   18.4097   43.1792 C   0  0  2  0  0  0  0  0  0  0  0  0
   27.7864   18.6341   44.5071 N   0  0  0  0  0  0  0  0  0  0  0  0
   26.5487   17.8904   42.6948 N   0  0  0  0  0  0  0  0  0  0  0  0
   26.3884   17.6395   41.3797 C   0  0  1  0  0  0  0  0  0  0  0  0
   27.4056   17.9161   40.4955 C   0  0  1  0  0  0  0  0  0  0  0  0
   28.6635   18.4847   41.0395 C   0  0  0  0  0  0  0  0  0  0  0  0
   29.6231   18.7599   40.2859 O   0  0  0  0  0  0  0  0  0  0  0  0
   26.9835   17.5723   39.2666 N   0  0  0  0  0  0  0  0  0  0  0  0
   25.7251   17.0932   39.3996 C   0  0  0  0  0  0  0  0  0  0  0  0
   25.3734   17.1380   40.6947 N   0  0  1  0  0  0  0  0  0  0  0  0
  1  2  1  0  0  0  0
  3  1  1  1  0  0  0
  3  4  1  0  0  0  0
  3  5  1  0  0  0  0
  5  6  1  6  0  0  0
  5  7  1  0  0  0  0
  7  8  1  0  0  0  0
  8  4  1  1  0  0  0
  8 19  1  0  0  0  0
  9 15  1  0  0  0  0
  9 10  1  0  0  0  0
 10 11  1  1  0  0  0
 10 12  1  0  0  0  0
 13 12  1  1  0  0  0
 13 14  1  0  0  0  0
 13 19  1  0  0  0  0
 14 15  1  1  0  0  0
 14 17  1  0  0  0  0
 15 16  2  0  0  0  0
 17 18  1  0  0  0  0
 19 18  1  1  0  0  0
M  END
>  <CHROM.1>
64.36303220,60.69105750,25.69808172,17.67260928,42.13313468,-2.89080771,-0.40855073
-2.00179374

>  <Name>
ligand

>  <RI>
0

>  <Rbt.Current_Directory>
/home/itssahil/PROJECTS/Mol_Feturizer/New_Systems/rnas/3SKL

>  <Rbt.Executable>
rbdock ($Id: //depot/dev/client3/rdock/2013.1/src/exe/rbdock.cxx#4 $)

>  <Rbt.Library>
libRbt.so (2013.1, Build901 2013/11/27)

>  <Rbt.Parameter_File>
/export/apps/rDock/src/rDock_2013.1_src/data/scripts/dock_solv.prm

>  <Rbt.Receptor>
prm/blind_docking_60.prm

>  <SCORE>
-13.0992

>  <SCORE.INTER>
-12.4458

>  <SCORE.INTER.CONST>
1

>  <SCORE.INTER.POLAR>
0

>  <SCORE.INTER.ROT>
2

>  <SCORE.INTER.SOLV>
9.37015

>  <SCORE.INTER.VDW>
-16.3539

>  <SCORE.INTER.norm>
-0.655043

>  <SCORE.INTRA>
-0.653337

>  <SCORE.INTRA.DIHEDRAL>
-0.227978

>  <SCORE.INTRA.DIHEDRAL.0>
1.50031

>  <SCORE.INTRA.POLAR>
0

>  <SCORE.INTRA.POLAR.0>
0

>  <SCORE.INTRA.REPUL>
0

>  <SCORE.INTRA.REPUL.0>
0

>  <SCORE.INTRA.SOLV>
0.590791

>  <SCORE.INTRA.SOLV.lig_0>
-37.9941

>  <SCORE.INTRA.VDW>
-0.834744

>  <SCORE.INTRA.VDW.0>
-0.964461

>  <SCORE.INTRA.norm>
-0.0343862

>  <SCORE.RESTR>
0

>  <SCORE.RESTR.CAVITY>
0

>  <SCORE.RESTR.norm>
0

>  <SCORE.SYSTEM>
0

>  <SCORE.SYSTEM.CONST>
0

>  <SCORE.SYSTEM.DIHEDRAL>
0

>  <SCORE.SYSTEM.SOLV>
0

>  <SCORE.SYSTEM.norm>
0

>  <SCORE.heavy>
19

>  <SCORE.norm>
-0.689429

>  <RMSD>
14.395

$$$$
ligand
 OpenBabel11021811483D
libRbt.so/2013.1/901 2013/11/27
 19 21  0  0  0  0  0  0  0  0999 V2000
   28.0252   16.8200   42.4330 C   0  0  0  0  0  0  0  0  0  0  0  0
   29.1897   15.9868   42.5687 O   0  0  0  0  0  0  0  0  0  0  0  0
   28.1965   18.1426   43.1876 C   0  0  1  0  0  0  0  0  0  0  0  0
   27.0917   19.0104   42.9351 O   0  0  0  0  0  0  0  0  0  0  0  0
   28.2597   17.9327   44.6886 C   0  0  1  0  0  0  0  0  0  0  0  0
   29.3243   18.7291   45.2103 O   0  0  0  0  0  0  0  0  0  0  0  0
   26.9498   18.4366   45.2509 C   0  0  0  0  0  0  0  0  0  0  0  0
   26.3370   19.2588   44.1318 C   0  0  2  0  0  0  0  0  0  0  0  0
   23.1791   16.6051   41.0104 N   0  0  0  0  0  0  0  0  0  0  0  0
   24.5231   16.7728   40.9769 C   0  0  2  0  0  0  0  0  0  0  0  0
   25.2556   16.1823   40.0092 N   0  0  0  0  0  0  0  0  0  0  0  0
   25.1654   17.5233   41.8967 N   0  0  0  0  0  0  0  0  0  0  0  0
   24.4984   18.1420   42.8919 C   0  0  1  0  0  0  0  0  0  0  0  0
   23.1311   18.0204   42.9860 C   0  0  1  0  0  0  0  0  0  0  0  0
   22.4360   17.1914   41.9707 C   0  0  0  0  0  0  0  0  0  0  0  0
   21.1941   17.0449   42.0012 O   0  0  0  0  0  0  0  0  0  0  0  0
   22.7307   18.7279   44.0563 N   0  0  0  0  0  0  0  0  0  0  0  0
   23.8391   19.2745   44.6072 C   0  0  0  0  0  0  0  0  0  0  0  0
   24.9123   18.9083   43.8881 N   0  0  1  0  0  0  0  0  0  0  0  0
  1  2  1  0  0  0  0
  3  1  1  6  0  0  0
  3  4  1  0  0  0  0
  3  5  1  0  0  0  0
  5  6  1  1  0  0  0
  5  7  1  0  0  0  0
  7  8  1  0  0  0  0
  8  4  1  6  0  0  0
  8 19  1  0  0  0  0
  9 15  1  0  0  0  0
  9 10  1  0  0  0  0
 10 11  1  1  0  0  0
 10 12  1  0  0  0  0
 13 12  1  1  0  0  0
 13 14  1  0  0  0  0
 13 19  1  0  0  0  0
 14 15  1  1  0  0  0
 14 17  1  0  0  0  0
 15 16  2  0  0  0  0
 17 18  1  0  0  0  0
 19 18  1  1  0  0  0
M  END
>  <CHROM.1>
174.26114517,17.95971362,25.56844704,17.81364371,42.99013693,-0.31960064
0.11708305,-2.20380744

>  <Name>
ligand

>  <RI>
0

>  <Rbt.Current_Directory>
/home/itssahil/PROJECTS/Mol_Feturizer/New_Systems/rnas/3SKL

>  <Rbt.Executable>
rbdock ($Id: //depot/dev/client3/rdock/2013.1/src/exe/rbdock.cxx#4 $)

>  <Rbt.Library>
libRbt.so (2013.1, Build901 2013/11/27)

>  <Rbt.Parameter_File>
/export/apps/rDock/src/rDock_2013.1_src/data/scripts/dock_solv.prm

>  <Rbt.Receptor>
prm/blind_docking_60.prm

>  <SCORE>
-12.9205

>  <SCORE.INTER>
-12.9127

>  <SCORE.INTER.CONST>
1

>  <SCORE.INTER.POLAR>
0

>  <SCORE.INTER.ROT>
2

>  <SCORE.INTER.SOLV>
8.42431

>  <SCORE.INTER.VDW>
-16.3499

>  <SCORE.INTER.norm>
-0.679617

>  <SCORE.INTRA>
-0.00774595

>  <SCORE.INTRA.DIHEDRAL>
-0.20156

>  <SCORE.INTRA.DIHEDRAL.0>
1.50031

>  <SCORE.INTRA.POLAR>
0

>  <SCORE.INTRA.POLAR.0>
0

>  <SCORE.INTRA.REPUL>
0

>  <SCORE.INTRA.REPUL.0>
0

>  <SCORE.INTRA.SOLV>
0.738259

>  <SCORE.INTRA.SOLV.lig_0>
-37.9941

>  <SCORE.INTRA.VDW>
-0.276095

>  <SCORE.INTRA.VDW.0>
-0.964461

>  <SCORE.INTRA.norm>
-0.000407682

>  <SCORE.RESTR>
0

>  <SCORE.RESTR.CAVITY>
0

>  <SCORE.RESTR.norm>
0

>  <SCORE.SYSTEM>
0

>  <SCORE.SYSTEM.CONST>
0

>  <SCORE.SYSTEM.DIHEDRAL>
0

>  <SCORE.SYSTEM.SOLV>
0

>  <SCORE.SYSTEM.norm>
0

>  <SCORE.heavy>
19

>  <SCORE.norm>
-0.680024

>  <RMSD>
14.404

$$$$
ligand
 OpenBabel11021811483D
libRbt.so/2013.1/901 2013/11/27
 19 21  0  0  0  0  0  0  0  0999 V2000
   28.3427   16.9206   42.7444 C   0  0  0  0  0  0  0  0  0  0  0  0
   28.3543   17.0896   41.3161 O   0  0  0  0  0  0  0  0  0  0  0  0
   28.4676   18.2671   43.4650 C   0  0  1  0  0  0  0  0  0  0  0  0
   27.3653   19.1136   43.1400 O   0  0  0  0  0  0  0  0  0  0  0  0
   28.4695   18.1030   44.9730 C   0  0  1  0  0  0  0  0  0  0  0  0
   29.5025   18.9273   45.5145 O   0  0  0  0  0  0  0  0  0  0  0  0
   27.1317   18.6077   45.4642 C   0  0  0  0  0  0  0  0  0  0  0  0
   26.5580   19.3886   44.2959 C   0  0  2  0  0  0  0  0  0  0  0  0
   23.5526   16.7053   41.0516 N   0  0  0  0  0  0  0  0  0  0  0  0
   24.8936   16.8983   41.0630 C   0  0  2  0  0  0  0  0  0  0  0  0
   25.6678   16.3305   40.1144 N   0  0  0  0  0  0  0  0  0  0  0  0
   25.4918   17.6522   42.0094 N   0  0  0  0  0  0  0  0  0  0  0  0
   24.7815   18.2493   42.9878 C   0  0  1  0  0  0  0  0  0  0  0  0
   23.4145   18.1014   43.0367 C   0  0  1  0  0  0  0  0  0  0  0  0
   22.7681   17.2689   41.9924 C   0  0  0  0  0  0  0  0  0  0  0  0
   21.5289   17.0990   41.9817 O   0  0  0  0  0  0  0  0  0  0  0  0
   22.9666   18.7914   44.0996 N   0  0  0  0  0  0  0  0  0  0  0  0
   24.0463   19.3535   44.6905 C   0  0  0  0  0  0  0  0  0  0  0  0
   25.1487   19.0140   44.0033 N   0  0  1  0  0  0  0  0  0  0  0  0
  1  2  1  0  0  0  0
  3  1  1  6  0  0  0
  3  4  1  0  0  0  0
  3  5  1  0  0  0  0
  5  6  1  1  0  0  0
  5  7  1  0  0  0  0
  7  8  1  0  0  0  0
  8  4  1  6  0  0  0
  8 19  1  0  0  0  0
  9 15  1  0  0  0  0
  9 10  1  0  0  0  0
 10 11  1  1  0  0  0
 10 12  1  0  0  0  0
 13 12  1  1  0  0  0
 13 14  1  0  0  0  0
 13 19  1  0  0  0  0
 14 15  1  1  0  0  0
 14 17  1  0  0  0  0
 15 16  2  0  0  0  0
 17 18  1  0  0  0  0
 19 18  1  1  0  0  0
M  END
>  <CHROM.1>
61.44681762,15.61356364,25.78010937,17.98968462,43.04567925,-0.43299373,0.05133458
-2.10974796

>  <Name>
ligand

>  <RI>
0

>  <Rbt.Current_Directory>
/home/itssahil/PROJECTS/Mol_Feturizer/New_Systems/rnas/3SKL

>  <Rbt.Executable>
rbdock ($Id: //depot/dev/client3/rdock/2013.1/src/exe/rbdock.cxx#4 $)

>  <Rbt.Library>
libRbt.so (2013.1, Build901 2013/11/27)

>  <Rbt.Parameter_File>
/export/apps/rDock/src/rDock_2013.1_src/data/scripts/dock_solv.prm

>  <Rbt.Receptor>
prm/blind_docking_100.prm

>  <SCORE>
-12.3533

>  <SCORE.INTER>
-12.6797

>  <SCORE.INTER.CONST>
1

>  <SCORE.INTER.POLAR>
0

>  <SCORE.INTER.ROT>
2

>  <SCORE.INTER.SOLV>
7.02435

>  <SCORE.INTER.VDW>
-15.7279

>  <SCORE.INTER.norm>
-0.667351

>  <SCORE.INTRA>
0.326386

>  <SCORE.INTRA.DIHEDRAL>
-0.308035

>  <SCORE.INTRA.DIHEDRAL.0>
1.50031

>  <SCORE.INTRA.POLAR>
0

>  <SCORE.INTRA.POLAR.0>
0

>  <SCORE.INTRA.REPUL>
0

>  <SCORE.INTRA.REPUL.0>
0

>  <SCORE.INTRA.SOLV>
2.21296

>  <SCORE.INTRA.SOLV.lig_0>
-37.9941

>  <SCORE.INTRA.VDW>
-0.626074

>  <SCORE.INTRA.VDW.0>
-0.964461

>  <SCORE.INTRA.norm>
0.0171782

>  <SCORE.RESTR>
0

>  <SCORE.RESTR.CAVITY>
0

>  <SCORE.RESTR.norm>
0

>  <SCORE.SYSTEM>
0

>  <SCORE.SYSTEM.CONST>
0

>  <SCORE.SYSTEM.DIHEDRAL>
0

>  <SCORE.SYSTEM.SOLV>
0

>  <SCORE.SYSTEM.norm>
0

>  <SCORE.heavy>
19

>  <SCORE.norm>
-0.650173

>  <RMSD>
14.414

$$$$
ligand
 OpenBabel11021811483D
libRbt.so/2013.1/901 2013/11/27
 19 21  0  0  0  0  0  0  0  0999 V2000
   28.0333   16.8939   42.4789 C   0  0  0  0  0  0  0  0  0  0  0  0
   29.1921   16.0470   42.5712 O   0  0  0  0  0  0  0  0  0  0  0  0
   28.2436   18.2090   43.2368 C   0  0  1  0  0  0  0  0  0  0  0  0
   27.1377   19.0878   43.0320 O   0  0  0  0  0  0  0  0  0  0  0  0
   28.3606   17.9865   44.7327 C   0  0  1  0  0  0  0  0  0  0  0  0
   29.4505   18.7700   45.2207 O   0  0  0  0  0  0  0  0  0  0  0  0
   27.0767   18.4967   45.3470 C   0  0  0  0  0  0  0  0  0  0  0  0
   26.4299   19.3328   44.2578 C   0  0  2  0  0  0  0  0  0  0  0  0
   23.1390   16.7100   41.2497 N   0  0  0  0  0  0  0  0  0  0  0  0
   24.4826   16.8649   41.1689 C   0  0  2  0  0  0  0  0  0  0  0  0
   25.1749   16.2676   40.1761 N   0  0  0  0  0  0  0  0  0  0  0  0
   25.1640   17.6091   42.0655 N   0  0  0  0  0  0  0  0  0  0  0  0
   24.5382   18.2339   43.0834 C   0  0  1  0  0  0  0  0  0  0  0  0
   23.1740   18.1253   43.2256 C   0  0  1  0  0  0  0  0  0  0  0  0
   22.4357   17.3032   42.2354 C   0  0  0  0  0  0  0  0  0  0  0  0
   21.1944   17.1685   42.3096 O   0  0  0  0  0  0  0  0  0  0  0  0
   22.8183   18.8364   44.3092 N   0  0  0  0  0  0  0  0  0  0  0  0
   23.9505   19.3722   44.8207 C   0  0  0  0  0  0  0  0  0  0  0  0
   24.9942   18.9960   44.0643 N   0  0  1  0  0  0  0  0  0  0  0  0
  1  2  1  0  0  0  0
  3  1  1  6  0  0  0
  3  4  1  0  0  0  0
  3  5  1  0  0  0  0
  5  6  1  1  0  0  0
  5  7  1  0  0  0  0
  7  8  1  0  0  0  0
  8  4  1  6  0  0  0
  8 19  1  0  0  0  0
  9 15  1  0  0  0  0
  9 10  1  0  0  0  0
 10 11  1  1  0  0  0
 10 12  1  0  0  0  0
 13 12  1  1  0  0  0
 13 14  1  0  0  0  0
 13 19  1  0  0  0  0
 14 15  1  1  0  0  0
 14 17  1  0  0  0  0
 15 16  2  0  0  0  0
 17 18  1  0  0  0  0
 19 18  1  1  0  0  0
M  END
>  <CHROM.1>
174.58621383,18.42536772,25.60800613,17.89729105,43.13879664,-0.28374852
0.10139727,-2.20610188

>  <Name>
ligand

>  <RI>
0

>  <Rbt.Current_Directory>
/home/itssahil/PROJECTS/Mol_Feturizer/New_Systems/rnas/3SKL

>  <Rbt.Executable>
rbdock ($Id: //depot/dev/client3/rdock/2013.1/src/exe/rbdock.cxx#4 $)

>  <Rbt.Library>
libRbt.so (2013.1, Build901 2013/11/27)

>  <Rbt.Parameter_File>
/export/apps/rDock/src/rDock_2013.1_src/data/scripts/dock_solv.prm

>  <Rbt.Receptor>
prm/blind_docking_60.prm

>  <SCORE>
-12.8877

>  <SCORE.INTER>
-12.88

>  <SCORE.INTER.CONST>
1

>  <SCORE.INTER.POLAR>
0

>  <SCORE.INTER.ROT>
2

>  <SCORE.INTER.SOLV>
8.47958

>  <SCORE.INTER.VDW>
-16.3465

>  <SCORE.INTER.norm>
-0.677892

>  <SCORE.INTRA>
-0.00772611

>  <SCORE.INTRA.DIHEDRAL>
-0.214752

>  <SCORE.INTRA.DIHEDRAL.0>
1.50031

>  <SCORE.INTRA.POLAR>
0

>  <SCORE.INTRA.POLAR.0>
0

>  <SCORE.INTRA.REPUL>
0

>  <SCORE.INTRA.REPUL.0>
0

>  <SCORE.INTRA.SOLV>
0.753902

>  <SCORE.INTRA.SOLV.lig_0>
-37.9941

>  <SCORE.INTRA.VDW>
-0.277301

>  <SCORE.INTRA.VDW.0>
-0.964461

>  <SCORE.INTRA.norm>
-0.000406637

>  <SCORE.RESTR>
0

>  <SCORE.RESTR.CAVITY>
0

>  <SCORE.RESTR.norm>
0

>  <SCORE.SYSTEM>
0

>  <SCORE.SYSTEM.CONST>
0

>  <SCORE.SYSTEM.DIHEDRAL>
0

>  <SCORE.SYSTEM.SOLV>
0

>  <SCORE.SYSTEM.norm>
0

>  <SCORE.heavy>
19

>  <SCORE.norm>
-0.678299

>  <RMSD>
14.417

$$$$
ligand
 OpenBabel11021811483D
libRbt.so/2013.1/901 2013/11/27
 19 21  0  0  0  0  0  0  0  0999 V2000
   23.4709   15.2956   42.6862 C   0  0  0  0  0  0  0  0  0  0  0  0
   22.4447   14.6860   41.8837 O   0  0  0  0  0  0  0  0  0  0  0  0
   22.8677   16.1782   43.7840 C   0  0  1  0  0  0  0  0  0  0  0  0
   23.8956   16.7177   44.6146 O   0  0  0  0  0  0  0  0  0  0  0  0
   22.1028   17.3542   43.2070 C   0  0  1  0  0  0  0  0  0  0  0  0
   20.8674   17.4780   43.9128 O   0  0  0  0  0  0  0  0  0  0  0  0
   22.9416   18.5849   43.4675 C   0  0  0  0  0  0  0  0  0  0  0  0
   23.9607   18.1484   44.5042 C   0  0  2  0  0  0  0  0  0  0  0  0
   27.5392   17.7973   40.7854 N   0  0  0  0  0  0  0  0  0  0  0  0
   26.2871   17.2854   40.8618 C   0  0  2  0  0  0  0  0  0  0  0  0
   25.7922   16.5509   39.8433 N   0  0  0  0  0  0  0  0  0  0  0  0
   25.5037   17.4906   41.9416 N   0  0  0  0  0  0  0  0  0  0  0  0
   25.9317   18.2145   42.9956 C   0  0  1  0  0  0  0  0  0  0  0  0
   27.1943   18.7613   42.9901 C   0  0  1  0  0  0  0  0  0  0  0  0
   28.0458   18.5309   41.7970 C   0  0  0  0  0  0  0  0  0  0  0  0
   29.2038   18.9995   41.7337 O   0  0  0  0  0  0  0  0  0  0  0  0
   27.3574   19.4245   44.1476 N   0  0  0  0  0  0  0  0  0  0  0  0
   26.2097   19.2833   44.8502 C   0  0  0  0  0  0  0  0  0  0  0  0
   25.3464   18.5437   44.1357 N   0  0  1  0  0  0  0  0  0  0  0  0
  1  2  1  0  0  0  0
  3  1  1  6  0  0  0
  3  4  1  0  0  0  0
  3  5  1  0  0  0  0
  5  6  1  1  0  0  0
  5  7  1  0  0  0  0
  7  8  1  0  0  0  0
  8  4  1  6  0  0  0
  8 19  1  0  0  0  0
  9 15  1  0  0  0  0
  9 10  1  0  0  0  0
 10 11  1  6  0  0  0
 10 12  1  0  0  0  0
 13 12  1  6  0  0  0
 13 14  1  0  0  0  0
 13 19  1  0  0  0  0
 14 15  1  6  0  0  0
 14 17  1  0  0  0  0
 15 16  2  0  0  0  0
 17 18  1  0  0  0  0
 19 18  1  6  0  0  0
M  END
>  <CHROM.1>
176.89607365,63.96902407,25.03431598,17.60336686,42.84992090,-3.12687170
0.41228342,0.93990952

>  <Name>
ligand

>  <RI>
0

>  <Rbt.Current_Directory>
/home/itssahil/PROJECTS/Mol_Feturizer/New_Systems/rnas/3SKL

>  <Rbt.Executable>
rbdock ($Id: //depot/dev/client3/rdock/2013.1/src/exe/rbdock.cxx#4 $)

>  <Rbt.Library>
libRbt.so (2013.1, Build901 2013/11/27)

>  <Rbt.Parameter_File>
/export/apps/rDock/src/rDock_2013.1_src/data/scripts/dock_solv.prm

>  <Rbt.Receptor>
prm/blind_docking_100.prm

>  <SCORE>
-14.0936

>  <SCORE.INTER>
-13.5242

>  <SCORE.INTER.CONST>
1

>  <SCORE.INTER.POLAR>
0

>  <SCORE.INTER.ROT>
2

>  <SCORE.INTER.SOLV>
7.41357

>  <SCORE.INTER.VDW>
-16.4206

>  <SCORE.INTER.norm>
-0.711799

>  <SCORE.INTRA>
-0.569417

>  <SCORE.INTRA.DIHEDRAL>
-0.259751

>  <SCORE.INTRA.DIHEDRAL.0>
1.50031

>  <SCORE.INTRA.POLAR>
0

>  <SCORE.INTRA.POLAR.0>
0

>  <SCORE.INTRA.REPUL>
0

>  <SCORE.INTRA.REPUL.0>
0

>  <SCORE.INTRA.SOLV>
0.554237

>  <SCORE.INTRA.SOLV.lig_0>
-37.9941

>  <SCORE.INTRA.VDW>
-0.71666

>  <SCORE.INTRA.VDW.0>
-0.964461

>  <SCORE.INTRA.norm>
-0.0299693

>  <SCORE.RESTR>
0

>  <SCORE.RESTR.CAVITY>
0

>  <SCORE.RESTR.norm>
0

>  <SCORE.SYSTEM>
0

>  <SCORE.SYSTEM.CONST>
0

>  <SCORE.SYSTEM.DIHEDRAL>
0

>  <SCORE.SYSTEM.SOLV>
0

>  <SCORE.SYSTEM.norm>
0

>  <SCORE.heavy>
19

>  <SCORE.norm>
-0.741768

>  <RMSD>
14.447

$$$$
ligand
 OpenBabel11021811483D
libRbt.so/2013.1/901 2013/11/27
 19 21  0  0  0  0  0  0  0  0999 V2000
   22.5571   18.9424   44.1441 C   0  0  0  0  0  0  0  0  0  0  0  0
   22.3743   20.3643   44.0279 O   0  0  0  0  0  0  0  0  0  0  0  0
   23.8590   18.6070   44.8793 C   0  0  1  0  0  0  0  0  0  0  0  0
   23.9701   17.1989   45.0847 O   0  0  0  0  0  0  0  0  0  0  0  0
   25.0807   19.0365   44.0895 C   0  0  1  0  0  0  0  0  0  0  0  0
   25.9925   19.6768   44.9830 O   0  0  0  0  0  0  0  0  0  0  0  0
   25.7194   17.7723   43.5604 C   0  0  0  0  0  0  0  0  0  0  0  0
   25.0840   16.6509   44.3619 C   0  0  2  0  0  0  0  0  0  0  0  0
   20.9298   14.7968   41.8995 N   0  0  0  0  0  0  0  0  0  0  0  0
   21.0804   15.8920   42.6827 C   0  0  2  0  0  0  0  0  0  0  0  0
   20.0307   16.7078   42.9157 N   0  0  0  0  0  0  0  0  0  0  0  0
   22.2673   16.2006   43.2466 N   0  0  0  0  0  0  0  0  0  0  0  0
   23.3588   15.4319   43.0569 C   0  0  1  0  0  0  0  0  0  0  0  0
   23.2794   14.3011   42.2772 C   0  0  1  0  0  0  0  0  0  0  0  0
   21.9702   13.9729   41.6608 C   0  0  0  0  0  0  0  0  0  0  0  0
   21.8339   12.9569   40.9440 O   0  0  0  0  0  0  0  0  0  0  0  0
   24.4970   13.7323   42.2570 N   0  0  0  0  0  0  0  0  0  0  0  0
   25.3080   14.5057   43.0152 C   0  0  0  0  0  0  0  0  0  0  0  0
   24.6019   15.5411   43.4970 N   0  0  1  0  0  0  0  0  0  0  0  0
  1  2  1  0  0  0  0
  3  1  1  6  0  0  0
  3  4  1  0  0  0  0
  3  5  1  0  0  0  0
  5  6  1  1  0  0  0
  5  7  1  0  0  0  0
  7  8  1  0  0  0  0
  8  4  1  6  0  0  0
  8 19  1  0  0  0  0
  9 15  1  0  0  0  0
  9 10  1  0  0  0  0
 10 11  1  6  0  0  0
 10 12  1  0  0  0  0
 13 12  1  6  0  0  0
 13 14  1  0  0  0  0
 13 19  1  0  0  0  0
 14 15  1  6  0  0  0
 14 17  1  0  0  0  0
 15 16  2  0  0  0  0
 17 18  1  0  0  0  0
 19 18  1  6  0  0  0
M  END
>  <CHROM.1>
175.15146603,24.68097001,23.36212342,16.51333270,43.32397804,1.16908857,-0.21557326
0.39803242

>  <Name>
ligand

>  <RI>
0

>  <Rbt.Current_Directory>
/home/itssahil/PROJECTS/Mol_Feturizer/New_Systems/rnas/3SKL

>  <Rbt.Executable>
rbdock ($Id: //depot/dev/client3/rdock/2013.1/src/exe/rbdock.cxx#4 $)

>  <Rbt.Library>
libRbt.so (2013.1, Build901 2013/11/27)

>  <Rbt.Parameter_File>
/export/apps/rDock/src/rDock_2013.1_src/data/scripts/dock_solv.prm

>  <Rbt.Receptor>
prm/blind_docking_60.prm

>  <SCORE>
-12.4504

>  <SCORE.INTER>
-12.4851

>  <SCORE.INTER.CONST>
1

>  <SCORE.INTER.POLAR>
0

>  <SCORE.INTER.ROT>
2

>  <SCORE.INTER.SOLV>
13.2748

>  <SCORE.INTER.VDW>
-17.6817

>  <SCORE.INTER.norm>
-0.65711

>  <SCORE.INTRA>
0.0347263

>  <SCORE.INTRA.DIHEDRAL>
-0.238941

>  <SCORE.INTRA.DIHEDRAL.0>
1.50031

>  <SCORE.INTRA.POLAR>
0

>  <SCORE.INTRA.POLAR.0>
0

>  <SCORE.INTRA.REPUL>
0

>  <SCORE.INTRA.REPUL.0>
0

>  <SCORE.INTRA.SOLV>
0.918144

>  <SCORE.INTRA.SOLV.lig_0>
-37.9941

>  <SCORE.INTRA.VDW>
-0.304875

>  <SCORE.INTRA.VDW.0>
-0.964461

>  <SCORE.INTRA.norm>
0.0018277

>  <SCORE.RESTR>
0

>  <SCORE.RESTR.CAVITY>
0

>  <SCORE.RESTR.norm>
0

>  <SCORE.SYSTEM>
0

>  <SCORE.SYSTEM.CONST>
0

>  <SCORE.SYSTEM.DIHEDRAL>
0

>  <SCORE.SYSTEM.SOLV>
0

>  <SCORE.SYSTEM.norm>
0

>  <SCORE.heavy>
19

>  <SCORE.norm>
-0.655282

>  <RMSD>
14.489

$$$$
ligand
 OpenBabel11021811483D
libRbt.so/2013.1/901 2013/11/27
 19 21  0  0  0  0  0  0  0  0999 V2000
   24.4571   19.2755   44.8205 C   0  0  0  0  0  0  0  0  0  0  0  0
   24.2899   19.2581   46.2489 O   0  0  0  0  0  0  0  0  0  0  0  0
   23.4965   18.2975   44.1359 C   0  0  1  0  0  0  0  0  0  0  0  0
   23.6331   18.3712   42.7170 O   0  0  0  0  0  0  0  0  0  0  0  0
   23.7756   16.8603   44.5328 C   0  0  1  0  0  0  0  0  0  0  0  0
   22.5300   16.2207   44.8143 O   0  0  0  0  0  0  0  0  0  0  0  0
   24.4074   16.1951   43.3310 C   0  0  0  0  0  0  0  0  0  0  0  0
   24.1289   17.1372   42.1740 C   0  0  2  0  0  0  0  0  0  0  0  0
   29.0008   18.8535   42.4511 N   0  0  0  0  0  0  0  0  0  0  0  0
   28.0533   18.7170   43.4099 C   0  0  2  0  0  0  0  0  0  0  0  0
   28.3300   19.0503   44.6882 N   0  0  0  0  0  0  0  0  0  0  0  0
   26.8200   18.2488   43.1240 N   0  0  0  0  0  0  0  0  0  0  0  0
   26.4734   17.8958   41.8696 C   0  0  1  0  0  0  0  0  0  0  0  0
   27.3830   18.0122   40.8438 C   0  0  1  0  0  0  0  0  0  0  0  0
   28.7361   18.5260   41.1702 C   0  0  0  0  0  0  0  0  0  0  0  0
   29.6057   18.6571   40.2807 O   0  0  0  0  0  0  0  0  0  0  0  0
   26.7825   17.5952   39.7160 N   0  0  0  0  0  0  0  0  0  0  0  0
   25.5230   17.2303   40.0495 C   0  0  0  0  0  0  0  0  0  0  0  0
   25.3467   17.4171   41.3674 N   0  0  1  0  0  0  0  0  0  0  0  0
  1  2  1  0  0  0  0
  3  1  1  1  0  0  0
  3  4  1  0  0  0  0
  3  5  1  0  0  0  0
  5  6  1  6  0  0  0
  5  7  1  0  0  0  0
  7  8  1  0  0  0  0
  8  4  1  1  0  0  0
  8 19  1  0  0  0  0
  9 15  1  0  0  0  0
  9 10  1  0  0  0  0
 10 11  1  1  0  0  0
 10 12  1  0  0  0  0
 13 12  1  1  0  0  0
 13 14  1  0  0  0  0
 13 19  1  0  0  0  0
 14 15  1  1  0  0  0
 14 17  1  0  0  0  0
 15 16  2  0  0  0  0
 17 18  1  0  0  0  0
 19 18  1  1  0  0  0
M  END
>  <CHROM.1>
177.37984471,64.05896987,25.88170332,17.99765334,42.78562264,-2.61857896
-0.36481206,-1.91196881

>  <Name>
ligand

>  <RI>
0

>  <Rbt.Current_Directory>
/home/itssahil/PROJECTS/Mol_Feturizer/New_Systems/rnas/3SKL

>  <Rbt.Executable>
rbdock ($Id: //depot/dev/client3/rdock/2013.1/src/exe/rbdock.cxx#4 $)

>  <Rbt.Library>
libRbt.so (2013.1, Build901 2013/11/27)

>  <Rbt.Parameter_File>
/export/apps/rDock/src/rDock_2013.1_src/data/scripts/dock_solv.prm

>  <Rbt.Receptor>
prm/blind_docking_60.prm

>  <SCORE>
-13.4497

>  <SCORE.INTER>
-12.8779

>  <SCORE.INTER.CONST>
1

>  <SCORE.INTER.POLAR>
0

>  <SCORE.INTER.ROT>
2

>  <SCORE.INTER.SOLV>
10.3603

>  <SCORE.INTER.VDW>
-16.972

>  <SCORE.INTER.norm>
-0.677784

>  <SCORE.INTRA>
-0.571748

>  <SCORE.INTRA.DIHEDRAL>
-0.269466

>  <SCORE.INTRA.DIHEDRAL.0>
1.50031

>  <SCORE.INTRA.POLAR>
0

>  <SCORE.INTRA.POLAR.0>
0

>  <SCORE.INTRA.REPUL>
0

>  <SCORE.INTRA.REPUL.0>
0

>  <SCORE.INTRA.SOLV>
0.553249

>  <SCORE.INTRA.SOLV.lig_0>
-37.9941

>  <SCORE.INTRA.VDW>
-0.71364

>  <SCORE.INTRA.VDW.0>
-0.964461

>  <SCORE.INTRA.norm>
-0.030092

>  <SCORE.RESTR>
0

>  <SCORE.RESTR.CAVITY>
0

>  <SCORE.RESTR.norm>
0

>  <SCORE.SYSTEM>
0

>  <SCORE.SYSTEM.CONST>
0

>  <SCORE.SYSTEM.DIHEDRAL>
0

>  <SCORE.SYSTEM.SOLV>
0

>  <SCORE.SYSTEM.norm>
0

>  <SCORE.heavy>
19

>  <SCORE.norm>
-0.707876

>  <RMSD>
14.561

$$$$
ligand
 OpenBabel11021811483D
libRbt.so/2013.1/901 2013/11/27
 19 21  0  0  0  0  0  0  0  0999 V2000
   24.4406   19.2790   44.8163 C   0  0  0  0  0  0  0  0  0  0  0  0
   24.2780   19.2543   46.2451 O   0  0  0  0  0  0  0  0  0  0  0  0
   23.4871   18.2947   44.1308 C   0  0  1  0  0  0  0  0  0  0  0  0
   23.6282   18.3657   42.7122 O   0  0  0  0  0  0  0  0  0  0  0  0
   23.7718   16.8598   44.5321 C   0  0  1  0  0  0  0  0  0  0  0  0
   22.5283   16.2149   44.8109 O   0  0  0  0  0  0  0  0  0  0  0  0
   24.4109   16.1948   43.3341 C   0  0  0  0  0  0  0  0  0  0  0  0
   24.1318   17.1328   42.1739 C   0  0  2  0  0  0  0  0  0  0  0  0
   28.9997   18.8580   42.4662 N   0  0  0  0  0  0  0  0  0  0  0  0
   28.0502   18.7177   43.4224 C   0  0  2  0  0  0  0  0  0  0  0  0
   28.3232   19.0489   44.7020 N   0  0  0  0  0  0  0  0  0  0  0  0
   26.8185   18.2477   43.1326 N   0  0  0  0  0  0  0  0  0  0  0  0
   26.4756   17.8966   41.8767 C   0  0  1  0  0  0  0  0  0  0  0  0
   27.3874   18.0168   40.8533 C   0  0  1  0  0  0  0  0  0  0  0  0
   28.7387   18.5325   41.1840 C   0  0  0  0  0  0  0  0  0  0  0  0
   29.6102   18.6671   40.2968 O   0  0  0  0  0  0  0  0  0  0  0  0
   26.7904   17.6009   39.7232 N   0  0  0  0  0  0  0  0  0  0  0  0
   25.5308   17.2328   40.0529 C   0  0  0  0  0  0  0  0  0  0  0  0
   25.3511   17.4167   41.3708 N   0  0  1  0  0  0  0  0  0  0  0  0
  1  2  1  0  0  0  0
  3  1  1  1  0  0  0
  3  4  1  0  0  0  0
  3  5  1  0  0  0  0
  5  6  1  6  0  0  0
  5  7  1  0  0  0  0
  7  8  1  0  0  0  0
  8  4  1  1  0  0  0
  8 19  1  0  0  0  0
  9 15  1  0  0  0  0
  9 10  1  0  0  0  0
 10 11  1  1  0  0  0
 10 12  1  0  0  0  0
 13 12  1  1  0  0  0
 13 14  1  0  0  0  0
 13 19  1  0  0  0  0
 14 15  1  1  0  0  0
 14 17  1  0  0  0  0
 15 16  2  0  0  0  0
 17 18  1  0  0  0  0
 19 18  1  1  0  0  0
M  END
>  <CHROM.1>
177.96502077,64.36805153,25.88043104,17.99821318,42.79022821,-2.62217549
-0.36463645,-1.91197825

>  <Name>
ligand

>  <RI>
0

>  <Rbt.Current_Directory>
/home/itssahil/PROJECTS/Mol_Feturizer/New_Systems/rnas/3SKL

>  <Rbt.Executable>
rbdock ($Id: //depot/dev/client3/rdock/2013.1/src/exe/rbdock.cxx#4 $)

>  <Rbt.Library>
libRbt.so (2013.1, Build901 2013/11/27)

>  <Rbt.Parameter_File>
/export/apps/rDock/src/rDock_2013.1_src/data/scripts/dock_solv.prm

>  <Rbt.Receptor>
prm/blind_docking_60.prm

>  <SCORE>
-13.4489

>  <SCORE.INTER>
-12.8741

>  <SCORE.INTER.CONST>
1

>  <SCORE.INTER.POLAR>
0

>  <SCORE.INTER.ROT>
2

>  <SCORE.INTER.SOLV>
10.3638

>  <SCORE.INTER.VDW>
-16.9707

>  <SCORE.INTER.norm>
-0.677587

>  <SCORE.INTRA>
-0.574712

>  <SCORE.INTRA.DIHEDRAL>
-0.27872

>  <SCORE.INTRA.DIHEDRAL.0>
1.50031

>  <SCORE.INTRA.POLAR>
0

>  <SCORE.INTRA.POLAR.0>
0

>  <SCORE.INTRA.REPUL>
0

>  <SCORE.INTRA.REPUL.0>
0

>  <SCORE.INTRA.SOLV>
0.544556

>  <SCORE.INTRA.SOLV.lig_0>
-37.9941

>  <SCORE.INTRA.VDW>
-0.70763

>  <SCORE.INTRA.VDW.0>
-0.964461

>  <SCORE.INTRA.norm>
-0.030248

>  <SCORE.RESTR>
0

>  <SCORE.RESTR.CAVITY>
0

>  <SCORE.RESTR.norm>
0

>  <SCORE.SYSTEM>
0

>  <SCORE.SYSTEM.CONST>
0

>  <SCORE.SYSTEM.DIHEDRAL>
0

>  <SCORE.SYSTEM.SOLV>
0

>  <SCORE.SYSTEM.norm>
0

>  <SCORE.heavy>
19

>  <SCORE.norm>
-0.707835

>  <RMSD>
14.561

$$$$
ligand
 OpenBabel11021811483D
libRbt.so/2013.1/901 2013/11/27
 19 21  0  0  0  0  0  0  0  0999 V2000
   24.4157   19.2759   44.8527 C   0  0  0  0  0  0  0  0  0  0  0  0
   24.2172   19.2782   46.2772 O   0  0  0  0  0  0  0  0  0  0  0  0
   23.4684   18.2902   44.1606 C   0  0  1  0  0  0  0  0  0  0  0  0
   23.6159   18.3648   42.7428 O   0  0  0  0  0  0  0  0  0  0  0  0
   23.7555   16.8553   44.5601 C   0  0  1  0  0  0  0  0  0  0  0  0
   22.5127   16.2061   44.8316 O   0  0  0  0  0  0  0  0  0  0  0  0
   24.4022   16.1948   43.3637 C   0  0  0  0  0  0  0  0  0  0  0  0
   24.1258   17.1346   42.2042 C   0  0  2  0  0  0  0  0  0  0  0  0
   28.9825   18.8867   42.5209 N   0  0  0  0  0  0  0  0  0  0  0  0
   28.0284   18.7427   43.4720 C   0  0  2  0  0  0  0  0  0  0  0  0
   28.2924   19.0774   44.7527 N   0  0  0  0  0  0  0  0  0  0  0  0
   26.8009   18.2656   43.1761 N   0  0  0  0  0  0  0  0  0  0  0  0
   26.4670   17.9107   41.9188 C   0  0  1  0  0  0  0  0  0  0  0  0
   27.3838   18.0342   40.9004 C   0  0  1  0  0  0  0  0  0  0  0  0
   28.7305   18.5579   41.2378 C   0  0  0  0  0  0  0  0  0  0  0  0
   29.6061   18.6958   40.3553 O   0  0  0  0  0  0  0  0  0  0  0  0
   26.7954   17.6134   39.7677 N   0  0  0  0  0  0  0  0  0  0  0  0
   25.5360   17.2390   40.0909 C   0  0  0  0  0  0  0  0  0  0  0  0
   25.3479   17.4238   41.4075 N   0  0  1  0  0  0  0  0  0  0  0  0
  1  2  1  0  0  0  0
  3  1  1  1  0  0  0
  3  4  1  0  0  0  0
  3  5  1  0  0  0  0
  5  6  1  6  0  0  0
  5  7  1  0  0  0  0
  7  8  1  0  0  0  0
  8  4  1  1  0  0  0
  8 19  1  0  0  0  0
  9 15  1  0  0  0  0
  9 10  1  0  0  0  0
 10 11  1  1  0  0  0
 10 12  1  0  0  0  0
 13 12  1  1  0  0  0
 13 14  1  0  0  0  0
 13 19  1  0  0  0  0
 14 15  1  1  0  0  0
 14 17  1  0  0  0  0
 15 16  2  0  0  0  0
 17 18  1  0  0  0  0
 19 18  1  1  0  0  0
M  END
>  <CHROM.1>
176.14758195,64.10669324,25.86578944,18.00943792,42.82980511,-2.62984334
-0.36906553,-1.91803663

>  <Name>
ligand

>  <RI>
0

>  <Rbt.Current_Directory>
/home/itssahil/PROJECTS/Mol_Feturizer/New_Systems/rnas/3SKL

>  <Rbt.Executable>
rbdock ($Id: //depot/dev/client3/rdock/2013.1/src/exe/rbdock.cxx#4 $)

>  <Rbt.Library>
libRbt.so (2013.1, Build901 2013/11/27)

>  <Rbt.Parameter_File>
/export/apps/rDock/src/rDock_2013.1_src/data/scripts/dock_solv.prm

>  <Rbt.Receptor>
prm/blind_docking_100.prm

>  <SCORE>
-13.491

>  <SCORE.INTER>
-12.9249

>  <SCORE.INTER.CONST>
1

>  <SCORE.INTER.POLAR>
0

>  <SCORE.INTER.ROT>
2

>  <SCORE.INTER.SOLV>
10.4215

>  <SCORE.INTER.VDW>
-17.0238

>  <SCORE.INTER.norm>
-0.68026

>  <SCORE.INTRA>
-0.566109

>  <SCORE.INTRA.DIHEDRAL>
-0.241076

>  <SCORE.INTRA.DIHEDRAL.0>
1.50031

>  <SCORE.INTRA.POLAR>
0

>  <SCORE.INTRA.POLAR.0>
0

>  <SCORE.INTRA.REPUL>
0

>  <SCORE.INTRA.REPUL.0>
0

>  <SCORE.INTRA.SOLV>
0.545484

>  <SCORE.INTRA.SOLV.lig_0>
-37.9941

>  <SCORE.INTRA.VDW>
-0.718313

>  <SCORE.INTRA.VDW.0>
-0.964461

>  <SCORE.INTRA.norm>
-0.0297952

>  <SCORE.RESTR>
0

>  <SCORE.RESTR.CAVITY>
0

>  <SCORE.RESTR.norm>
0

>  <SCORE.SYSTEM>
0

>  <SCORE.SYSTEM.CONST>
0

>  <SCORE.SYSTEM.DIHEDRAL>
0

>  <SCORE.SYSTEM.SOLV>
0

>  <SCORE.SYSTEM.norm>
0

>  <SCORE.heavy>
19

>  <SCORE.norm>
-0.710055

>  <RMSD>
14.562

$$$$
ligand
 OpenBabel11021811483D
libRbt.so/2013.1/901 2013/11/27
 19 21  0  0  0  0  0  0  0  0999 V2000
   24.4716   19.3090   44.8121 C   0  0  0  0  0  0  0  0  0  0  0  0
   24.3434   19.2665   46.2440 O   0  0  0  0  0  0  0  0  0  0  0  0
   23.5316   18.3031   44.1394 C   0  0  1  0  0  0  0  0  0  0  0  0
   23.6713   18.3584   42.7199 O   0  0  0  0  0  0  0  0  0  0  0  0
   23.8362   16.8774   44.5584 C   0  0  1  0  0  0  0  0  0  0  0  0
   22.6018   16.2189   44.8458 O   0  0  0  0  0  0  0  0  0  0  0  0
   24.4841   16.2064   43.3684 C   0  0  0  0  0  0  0  0  0  0  0  0
   24.1917   17.1260   42.1968 C   0  0  2  0  0  0  0  0  0  0  0  0
   29.0514   18.8767   42.4732 N   0  0  0  0  0  0  0  0  0  0  0  0
   28.1059   18.7310   43.4325 C   0  0  2  0  0  0  0  0  0  0  0  0
   28.3815   19.0632   44.7114 N   0  0  0  0  0  0  0  0  0  0  0  0
   26.8757   18.2546   43.1467 N   0  0  0  0  0  0  0  0  0  0  0  0
   26.5304   17.9023   41.8918 C   0  0  1  0  0  0  0  0  0  0  0  0
   27.4381   18.0277   40.8654 C   0  0  1  0  0  0  0  0  0  0  0  0
   28.7878   18.5505   41.1917 C   0  0  0  0  0  0  0  0  0  0  0  0
   29.6555   18.6900   40.3016 O   0  0  0  0  0  0  0  0  0  0  0  0
   26.8394   17.6092   39.7372 N   0  0  0  0  0  0  0  0  0  0  0  0
   25.5829   17.2343   40.0711 C   0  0  0  0  0  0  0  0  0  0  0  0
   25.4067   17.4166   41.3896 N   0  0  1  0  0  0  0  0  0  0  0  0
  1  2  1  0  0  0  0
  3  1  1  1  0  0  0
  3  4  1  0  0  0  0
  3  5  1  0  0  0  0
  5  6  1  6  0  0  0
  5  7  1  0  0  0  0
  7  8  1  0  0  0  0
  8  4  1  1  0  0  0
  8 19  1  0  0  0  0
  9 15  1  0  0  0  0
  9 10  1  0  0  0  0
 10 11  1  1  0  0  0
 10 12  1  0  0  0  0
 13 12  1  1  0  0  0
 13 14  1  0  0  0  0
 13 19  1  0  0  0  0
 14 15  1  1  0  0  0
 14 17  1  0  0  0  0
 15 16  2  0  0  0  0
 17 18  1  0  0  0  0
 19 18  1  1  0  0  0
M  END
>  <CHROM.1>
179.99289645,65.27032819,25.93500612,18.00820860,42.80386031,-2.62201818
-0.36720063,-1.91303566

>  <Name>
ligand

>  <RI>
0

>  <Rbt.Current_Directory>
/home/itssahil/PROJECTS/Mol_Feturizer/New_Systems/rnas/3SKL

>  <Rbt.Executable>
rbdock ($Id: //depot/dev/client3/rdock/2013.1/src/exe/rbdock.cxx#4 $)

>  <Rbt.Library>
libRbt.so (2013.1, Build901 2013/11/27)

>  <Rbt.Parameter_File>
/export/apps/rDock/src/rDock_2013.1_src/data/scripts/dock_solv.prm

>  <Rbt.Receptor>
prm/blind_docking_60.prm

>  <SCORE>
-13.3279

>  <SCORE.INTER>
-12.7559

>  <SCORE.INTER.CONST>
1

>  <SCORE.INTER.POLAR>
0

>  <SCORE.INTER.ROT>
2

>  <SCORE.INTER.SOLV>
10.3908

>  <SCORE.INTER.VDW>
-16.9009

>  <SCORE.INTER.norm>
-0.671364

>  <SCORE.INTRA>
-0.571936

>  <SCORE.INTRA.DIHEDRAL>
-0.291919

>  <SCORE.INTRA.DIHEDRAL.0>
1.50031

>  <SCORE.INTRA.POLAR>
0

>  <SCORE.INTRA.POLAR.0>
0

>  <SCORE.INTRA.REPUL>
0

>  <SCORE.INTRA.REPUL.0>
0

>  <SCORE.INTRA.SOLV>
0.520164

>  <SCORE.INTRA.SOLV.lig_0>
-37.9941

>  <SCORE.INTRA.VDW>
-0.686059

>  <SCORE.INTRA.VDW.0>
-0.964461

>  <SCORE.INTRA.norm>
-0.0301019

>  <SCORE.RESTR>
0

>  <SCORE.RESTR.CAVITY>
0

>  <SCORE.RESTR.norm>
0

>  <SCORE.SYSTEM>
0

>  <SCORE.SYSTEM.CONST>
0

>  <SCORE.SYSTEM.DIHEDRAL>
0

>  <SCORE.SYSTEM.SOLV>
0

>  <SCORE.SYSTEM.norm>
0

>  <SCORE.heavy>
19

>  <SCORE.norm>
-0.701466

>  <RMSD>
14.588

$$$$
ligand
 OpenBabel11021811483D
libRbt.so/2013.1/901 2013/11/27
 19 21  0  0  0  0  0  0  0  0999 V2000
   28.8015   17.5472   41.6164 C   0  0  0  0  0  0  0  0  0  0  0  0
   28.7749   17.8069   40.2020 O   0  0  0  0  0  0  0  0  0  0  0  0
   27.8199   18.4533   42.3669 C   0  0  1  0  0  0  0  0  0  0  0  0
   26.4734   18.1243   42.0263 O   0  0  0  0  0  0  0  0  0  0  0  0
   27.9458   18.2996   43.8707 C   0  0  1  0  0  0  0  0  0  0  0  0
   27.9371   19.6011   44.4589 O   0  0  0  0  0  0  0  0  0  0  0  0
   26.7194   17.5452   44.3321 C   0  0  0  0  0  0  0  0  0  0  0  0
   25.7542   17.6203   43.1631 C   0  0  2  0  0  0  0  0  0  0  0  0
   21.3133   15.1151   42.2911 N   0  0  0  0  0  0  0  0  0  0  0  0
   21.5517   16.4062   42.6252 C   0  0  2  0  0  0  0  0  0  0  0  0
   20.5241   17.2689   42.7720 N   0  0  0  0  0  0  0  0  0  0  0  0
   22.8057   16.8670   42.8181 N   0  0  0  0  0  0  0  0  0  0  0  0
   23.8799   16.0625   42.6880 C   0  0  1  0  0  0  0  0  0  0  0  0
   23.7138   14.7379   42.3552 C   0  0  1  0  0  0  0  0  0  0  0  0
   22.3311   14.2430   42.1435 C   0  0  0  0  0  0  0  0  0  0  0  0
   22.1151   13.0485   41.8419 O   0  0  0  0  0  0  0  0  0  0  0  0
   24.9333   14.1765   42.2916 N   0  0  0  0  0  0  0  0  0  0  0  0
   25.8313   15.1459   42.5827 C   0  0  0  0  0  0  0  0  0  0  0  0
   25.1760   16.2932   42.8215 N   0  0  1  0  0  0  0  0  0  0  0  0
  1  2  1  0  0  0  0
  3  1  1  6  0  0  0
  3  4  1  0  0  0  0
  3  5  1  0  0  0  0
  5  6  1  1  0  0  0
  5  7  1  0  0  0  0
  7  8  1  0  0  0  0
  8  4  1  6  0  0  0
  8 19  1  0  0  0  0
  9 15  1  0  0  0  0
  9 10  1  0  0  0  0
 10 11  1  6  0  0  0
 10 12  1  0  0  0  0
 13 12  1  6  0  0  0
 13 14  1  0  0  0  0
 13 19  1  0  0  0  0
 14 15  1  6  0  0  0
 14 17  1  0  0  0  0
 15 16  2  0  0  0  0
 17 18  1  0  0  0  0
 19 18  1  6  0  0  0
M  END
>  <CHROM.1>
67.20994609,-111.67069180,25.04287587,16.59279846,42.57723221,-0.44946933
-0.21297775,-2.63985050

>  <Name>
ligand

>  <RI>
0

>  <Rbt.Current_Directory>
/home/itssahil/PROJECTS/Mol_Feturizer/New_Systems/rnas/3SKL

>  <Rbt.Executable>
rbdock ($Id: //depot/dev/client3/rdock/2013.1/src/exe/rbdock.cxx#4 $)

>  <Rbt.Library>
libRbt.so (2013.1, Build901 2013/11/27)

>  <Rbt.Parameter_File>
/export/apps/rDock/src/rDock_2013.1_src/data/scripts/dock_solv.prm

>  <Rbt.Receptor>
prm/blind_docking_80.prm

>  <SCORE>
-14.1397

>  <SCORE.INTER>
-13.6698

>  <SCORE.INTER.CONST>
1

>  <SCORE.INTER.POLAR>
0

>  <SCORE.INTER.ROT>
2

>  <SCORE.INTER.SOLV>
9.48715

>  <SCORE.INTER.VDW>
-17.2089

>  <SCORE.INTER.norm>
-0.719464

>  <SCORE.INTRA>
-0.470965

>  <SCORE.INTRA.DIHEDRAL>
-0.120385

>  <SCORE.INTRA.DIHEDRAL.0>
1.50031

>  <SCORE.INTRA.POLAR>
0

>  <SCORE.INTRA.POLAR.0>
0

>  <SCORE.INTRA.REPUL>
0

>  <SCORE.INTRA.REPUL.0>
0

>  <SCORE.INTRA.SOLV>
-0.587533

>  <SCORE.INTRA.SOLV.lig_0>
-37.9941

>  <SCORE.INTRA.VDW>
-0.117006

>  <SCORE.INTRA.VDW.0>
-0.964461

>  <SCORE.INTRA.norm>
-0.0247876

>  <SCORE.RESTR>
0.00111027

>  <SCORE.RESTR.CAVITY>
0.00111027

>  <SCORE.RESTR.norm>
5.84354e-05

>  <SCORE.SYSTEM>
0

>  <SCORE.SYSTEM.CONST>
0

>  <SCORE.SYSTEM.DIHEDRAL>
0

>  <SCORE.SYSTEM.SOLV>
0

>  <SCORE.SYSTEM.norm>
0

>  <SCORE.heavy>
19

>  <SCORE.norm>
-0.744193

>  <RMSD>
14.635

$$$$
ligand
 OpenBabel11021811483D
libRbt.so/2013.1/901 2013/11/27
 19 21  0  0  0  0  0  0  0  0999 V2000
   22.1576   16.7113   43.9717 C   0  0  0  0  0  0  0  0  0  0  0  0
   23.3968   16.4903   44.6675 O   0  0  0  0  0  0  0  0  0  0  0  0
   22.3650   16.7144   42.4535 C   0  0  1  0  0  0  0  0  0  0  0  0
   23.2599   17.7590   42.0720 O   0  0  0  0  0  0  0  0  0  0  0  0
   22.9701   15.4128   41.9631 C   0  0  1  0  0  0  0  0  0  0  0  0
   22.2634   15.0003   40.7926 O   0  0  0  0  0  0  0  0  0  0  0  0
   24.4032   15.7165   41.5888 C   0  0  0  0  0  0  0  0  0  0  0  0
   24.4719   17.2308   41.5104 C   0  0  2  0  0  0  0  0  0  0  0  0
   29.4006   18.7253   41.0283 N   0  0  0  0  0  0  0  0  0  0  0  0
   28.5384   18.2080   40.1202 C   0  0  2  0  0  0  0  0  0  0  0  0
   28.9325   18.0185   38.8433 N   0  0  0  0  0  0  0  0  0  0  0  0
   27.2752   17.8713   40.4560 N   0  0  0  0  0  0  0  0  0  0  0  0
   26.8128   18.0336   41.7122 C   0  0  1  0  0  0  0  0  0  0  0  0
   27.6339   18.5491   42.6885 C   0  0  1  0  0  0  0  0  0  0  0  0
   29.0197   18.9175   42.3074 C   0  0  0  0  0  0  0  0  0  0  0  0
   29.8146   19.3883   43.1507 O   0  0  0  0  0  0  0  0  0  0  0  0
   26.9268   18.6034   43.8303 N   0  0  0  0  0  0  0  0  0  0  0  0
   25.6911   18.1265   43.5541 C   0  0  0  0  0  0  0  0  0  0  0  0
   25.6334   17.7832   42.2573 N   0  0  1  0  0  0  0  0  0  0  0  0
  1  2  1  0  0  0  0
  3  1  1  1  0  0  0
  3  4  1  0  0  0  0
  3  5  1  0  0  0  0
  5  6  1  6  0  0  0
  5  7  1  0  0  0  0
  7  8  1  0  0  0  0
  8  4  1  1  0  0  0
  8 19  1  0  0  0  0
  9 15  1  0  0  0  0
  9 10  1  0  0  0  0
 10 11  1  6  0  0  0
 10 12  1  0  0  0  0
 13 12  1  6  0  0  0
 13 14  1  0  0  0  0
 13 19  1  0  0  0  0
 14 15  1  6  0  0  0
 14 17  1  0  0  0  0
 15 16  2  0  0  0  0
 17 18  1  0  0  0  0
 19 18  1  6  0  0  0
M  END
>  <CHROM.1>
-60.78247678,-147.54379776,25.76893581,17.50892974,42.06985063,-3.09602065
-0.41412679,-1.88544327

>  <Name>
ligand

>  <RI>
0

>  <Rbt.Current_Directory>
/home/itssahil/PROJECTS/Mol_Feturizer/New_Systems/rnas/3SKL

>  <Rbt.Executable>
rbdock ($Id: //depot/dev/client3/rdock/2013.1/src/exe/rbdock.cxx#4 $)

>  <Rbt.Library>
libRbt.so (2013.1, Build901 2013/11/27)

>  <Rbt.Parameter_File>
/export/apps/rDock/src/rDock_2013.1_src/data/scripts/dock_solv.prm

>  <Rbt.Receptor>
prm/blind_docking_60.prm

>  <SCORE>
-12.394

>  <SCORE.INTER>
-11.8086

>  <SCORE.INTER.CONST>
1

>  <SCORE.INTER.POLAR>
0

>  <SCORE.INTER.ROT>
2

>  <SCORE.INTER.SOLV>
10.0356

>  <SCORE.INTER.VDW>
-16.1509

>  <SCORE.INTER.norm>
-0.621506

>  <SCORE.INTRA>
-0.585346

>  <SCORE.INTRA.DIHEDRAL>
-0.271446

>  <SCORE.INTRA.DIHEDRAL.0>
1.50031

>  <SCORE.INTRA.POLAR>
0

>  <SCORE.INTRA.POLAR.0>
0

>  <SCORE.INTRA.REPUL>
0

>  <SCORE.INTRA.REPUL.0>
0

>  <SCORE.INTRA.SOLV>
0.0298418

>  <SCORE.INTRA.SOLV.lig_0>
-37.9941

>  <SCORE.INTRA.VDW>
-0.464544

>  <SCORE.INTRA.VDW.0>
-0.964461

>  <SCORE.INTRA.norm>
-0.0308077

>  <SCORE.RESTR>
0

>  <SCORE.RESTR.CAVITY>
0

>  <SCORE.RESTR.norm>
0

>  <SCORE.SYSTEM>
0

>  <SCORE.SYSTEM.CONST>
0

>  <SCORE.SYSTEM.DIHEDRAL>
0

>  <SCORE.SYSTEM.SOLV>
0

>  <SCORE.SYSTEM.norm>
0

>  <SCORE.heavy>
19

>  <SCORE.norm>
-0.652313

>  <RMSD>
14.641

$$$$
ligand
 OpenBabel11021811483D
libRbt.so/2013.1/901 2013/11/27
 19 21  0  0  0  0  0  0  0  0999 V2000
   24.1543   18.2164   46.0766 C   0  0  0  0  0  0  0  0  0  0  0  0
   24.3734   19.5969   46.4158 O   0  0  0  0  0  0  0  0  0  0  0  0
   23.3387   18.0833   44.7863 C   0  0  1  0  0  0  0  0  0  0  0  0
   24.0005   18.7393   43.7051 O   0  0  0  0  0  0  0  0  0  0  0  0
   23.1576   16.6333   44.3793 C   0  0  1  0  0  0  0  0  0  0  0  0
   21.7949   16.4393   43.9980 O   0  0  0  0  0  0  0  0  0  0  0  0
   24.0407   16.4097   43.1726 C   0  0  0  0  0  0  0  0  0  0  0  0
   24.4033   17.8032   42.6927 C   0  0  2  0  0  0  0  0  0  0  0  0
   28.0095   17.8937   38.9853 N   0  0  0  0  0  0  0  0  0  0  0  0
   26.6698   17.7046   38.9142 C   0  0  2  0  0  0  0  0  0  0  0  0
   26.0762   17.5053   37.7185 N   0  0  0  0  0  0  0  0  0  0  0  0
   25.8950   17.7104   40.0194 N   0  0  0  0  0  0  0  0  0  0  0  0
   26.4191   17.9041   41.2465 C   0  0  1  0  0  0  0  0  0  0  0  0
   27.7731   18.0980   41.3958 C   0  0  1  0  0  0  0  0  0  0  0  0
   28.6146   18.0917   40.1738 C   0  0  0  0  0  0  0  0  0  0  0  0
   29.8521   18.2597   40.2447 O   0  0  0  0  0  0  0  0  0  0  0  0
   28.0199   18.2650   42.7064 N   0  0  0  0  0  0  0  0  0  0  0  0
   26.8321   18.1731   43.3480 C   0  0  0  0  0  0  0  0  0  0  0  0
   25.8622   17.9541   42.4458 N   0  0  1  0  0  0  0  0  0  0  0  0
  1  2  1  0  0  0  0
  3  1  1  1  0  0  0
  3  4  1  0  0  0  0
  3  5  1  0  0  0  0
  5  6  1  6  0  0  0
  5  7  1  0  0  0  0
  7  8  1  0  0  0  0
  8  4  1  1  0  0  0
  8 19  1  0  0  0  0
  9 15  1  0  0  0  0
  9 10  1  0  0  0  0
 10 11  1  6  0  0  0
 10 12  1  0  0  0  0
 13 12  1  6  0  0  0
 13 14  1  0  0  0  0
 13 19  1  0  0  0  0
 14 15  1  6  0  0  0
 14 17  1  0  0  0  0
 15 16  2  0  0  0  0
 17 18  1  0  0  0  0
 19 18  1  6  0  0  0
M  END
>  <CHROM.1>
58.13308217,-139.86280121,25.69524927,17.87852460,42.30168848,-2.30979207
-0.32346592,-1.83700358

>  <Name>
ligand

>  <RI>
0

>  <Rbt.Current_Directory>
/home/itssahil/PROJECTS/Mol_Feturizer/New_Systems/rnas/3SKL

>  <Rbt.Executable>
rbdock ($Id: //depot/dev/client3/rdock/2013.1/src/exe/rbdock.cxx#4 $)

>  <Rbt.Library>
libRbt.so (2013.1, Build901 2013/11/27)

>  <Rbt.Parameter_File>
/export/apps/rDock/src/rDock_2013.1_src/data/scripts/dock_solv.prm

>  <Rbt.Receptor>
prm/blind_docking_100.prm

>  <SCORE>
-13.6525

>  <SCORE.INTER>
-12.9832

>  <SCORE.INTER.CONST>
1

>  <SCORE.INTER.POLAR>
0

>  <SCORE.INTER.ROT>
2

>  <SCORE.INTER.SOLV>
8.37107

>  <SCORE.INTER.VDW>
-16.3791

>  <SCORE.INTER.norm>
-0.683324

>  <SCORE.INTRA>
-0.669359

>  <SCORE.INTRA.DIHEDRAL>
-0.264423

>  <SCORE.INTRA.DIHEDRAL.0>
1.50031

>  <SCORE.INTRA.POLAR>
0

>  <SCORE.INTRA.POLAR.0>
0

>  <SCORE.INTRA.REPUL>
0

>  <SCORE.INTRA.REPUL.0>
0

>  <SCORE.INTRA.SOLV>
-0.543715

>  <SCORE.INTRA.SOLV.lig_0>
-37.9941

>  <SCORE.INTRA.VDW>
-0.26529

>  <SCORE.INTRA.VDW.0>
-0.964461

>  <SCORE.INTRA.norm>
-0.0352294

>  <SCORE.RESTR>
0

>  <SCORE.RESTR.CAVITY>
0

>  <SCORE.RESTR.norm>
0

>  <SCORE.SYSTEM>
0

>  <SCORE.SYSTEM.CONST>
0

>  <SCORE.SYSTEM.DIHEDRAL>
0

>  <SCORE.SYSTEM.SOLV>
0

>  <SCORE.SYSTEM.norm>
0

>  <SCORE.heavy>
19

>  <SCORE.norm>
-0.718553

>  <RMSD>
14.651

$$$$
ligand
 OpenBabel11021811483D
libRbt.so/2013.1/901 2013/11/27
 19 21  0  0  0  0  0  0  0  0999 V2000
   25.8704   17.8779   43.4658 C   0  0  0  0  0  0  0  0  0  0  0  0
   26.8493   18.8930   43.1829 O   0  0  0  0  0  0  0  0  0  0  0  0
   26.4655   16.4739   43.3158 C   0  0  1  0  0  0  0  0  0  0  0  0
   25.5264   15.4841   43.7350 O   0  0  0  0  0  0  0  0  0  0  0  0
   26.8225   16.1624   41.8748 C   0  0  1  0  0  0  0  0  0  0  0  0
   28.1132   15.5514   41.8525 O   0  0  0  0  0  0  0  0  0  0  0  0
   25.7992   15.1642   41.3822 C   0  0  0  0  0  0  0  0  0  0  0  0
   25.1252   14.6459   42.6396 C   0  0  2  0  0  0  0  0  0  0  0  0
   20.9060   17.4256   43.7482 N   0  0  0  0  0  0  0  0  0  0  0  0
   22.2158   17.6644   43.9990 C   0  0  2  0  0  0  0  0  0  0  0  0
   22.5888   18.7956   44.6339 N   0  0  0  0  0  0  0  0  0  0  0  0
   23.1775   16.7934   43.6269 N   0  0  0  0  0  0  0  0  0  0  0  0
   22.8786   15.6439   42.9885 C   0  0  1  0  0  0  0  0  0  0  0  0
   21.5688   15.3327   42.7047 C   0  0  1  0  0  0  0  0  0  0  0  0
   20.5204   16.2984   43.1166 C   0  0  0  0  0  0  0  0  0  0  0  0
   19.3116   16.0707   42.8892 O   0  0  0  0  0  0  0  0  0  0  0  0
   21.5585   14.1471   42.0716 N   0  0  0  0  0  0  0  0  0  0  0  0
   22.8450   13.7403   41.9714 C   0  0  0  0  0  0  0  0  0  0  0  0
   23.6418   14.6634   42.5337 N   0  0  1  0  0  0  0  0  0  0  0  0
  1  2  1  0  0  0  0
  3  1  1  6  0  0  0
  3  4  1  0  0  0  0
  3  5  1  0  0  0  0
  5  6  1  1  0  0  0
  5  7  1  0  0  0  0
  7  8  1  0  0  0  0
  8  4  1  1  0  0  0
  8 19  1  0  0  0  0
  9 15  1  0  0  0  0
  9 10  1  0  0  0  0
 10 11  1  6  0  0  0
 10 12  1  0  0  0  0
 13 12  1  6  0  0  0
 13 14  1  0  0  0  0
 13 19  1  0  0  0  0
 14 15  1  6  0  0  0
 14 17  1  0  0  0  0
 15 16  2  0  0  0  0
 17 18  1  0  0  0  0
 19 18  1  6  0  0  0
M  END
>  <CHROM.1>
173.88700370,23.99494923,23.85515535,16.17980981,42.93544081,0.00128506,0.10591930
0.44190916

>  <Name>
ligand

>  <RI>
0

>  <Rbt.Current_Directory>
/home/itssahil/PROJECTS/Mol_Feturizer/New_Systems/rnas/3SKL

>  <Rbt.Executable>
rbdock ($Id: //depot/dev/client3/rdock/2013.1/src/exe/rbdock.cxx#4 $)

>  <Rbt.Library>
libRbt.so (2013.1, Build901 2013/11/27)

>  <Rbt.Parameter_File>
/export/apps/rDock/src/rDock_2013.1_src/data/scripts/dock_solv.prm

>  <Rbt.Receptor>
prm/blind_docking_100.prm

>  <SCORE>
-13.9582

>  <SCORE.INTER>
-14.0007

>  <SCORE.INTER.CONST>
1

>  <SCORE.INTER.POLAR>
0

>  <SCORE.INTER.ROT>
2

>  <SCORE.INTER.SOLV>
10.2718

>  <SCORE.INTER.VDW>
-17.6911

>  <SCORE.INTER.norm>
-0.736881

>  <SCORE.INTRA>
0.0425219

>  <SCORE.INTRA.DIHEDRAL>
-0.189605

>  <SCORE.INTRA.DIHEDRAL.0>
1.50031

>  <SCORE.INTRA.POLAR>
0

>  <SCORE.INTRA.POLAR.0>
0

>  <SCORE.INTRA.REPUL>
0

>  <SCORE.INTRA.REPUL.0>
0

>  <SCORE.INTRA.SOLV>
0.896884

>  <SCORE.INTRA.SOLV.lig_0>
-37.9941

>  <SCORE.INTRA.VDW>
-0.311118

>  <SCORE.INTRA.VDW.0>
-0.964461

>  <SCORE.INTRA.norm>
0.00223799

>  <SCORE.RESTR>
0

>  <SCORE.RESTR.CAVITY>
0

>  <SCORE.RESTR.norm>
0

>  <SCORE.SYSTEM>
0

>  <SCORE.SYSTEM.CONST>
0

>  <SCORE.SYSTEM.DIHEDRAL>
0

>  <SCORE.SYSTEM.SOLV>
0

>  <SCORE.SYSTEM.norm>
0

>  <SCORE.heavy>
19

>  <SCORE.norm>
-0.734643

>  <RMSD>
14.669

$$$$
ligand
 OpenBabel11021811483D
libRbt.so/2013.1/901 2013/11/27
 19 21  0  0  0  0  0  0  0  0999 V2000
   26.3487   34.7889   46.5487 C   0  0  0  0  0  0  0  0  0  0  0  0
   24.9832   34.9389   46.9748 O   0  0  0  0  0  0  0  0  0  0  0  0
   26.8263   36.0183   45.7687 C   0  0  1  0  0  0  0  0  0  0  0  0
   28.1938   35.8697   45.3873 O   0  0  0  0  0  0  0  0  0  0  0  0
   26.0312   36.2223   44.4932 C   0  0  1  0  0  0  0  0  0  0  0  0
   25.7006   37.6075   44.3851 O   0  0  0  0  0  0  0  0  0  0  0  0
   26.9455   35.8461   43.3493 C   0  0  0  0  0  0  0  0  0  0  0  0
   28.3348   35.8056   43.9593 C   0  0  2  0  0  0  0  0  0  0  0  0
   30.0069   31.2737   45.8098 N   0  0  0  0  0  0  0  0  0  0  0  0
   29.3319   32.2823   46.4121 C   0  0  2  0  0  0  0  0  0  0  0  0
   28.9822   32.1821   47.7119 N   0  0  0  0  0  0  0  0  0  0  0  0
   28.9903   33.4036   45.7428 N   0  0  0  0  0  0  0  0  0  0  0  0
   29.3060   33.5721   44.4428 C   0  0  1  0  0  0  0  0  0  0  0  0
   29.9953   32.5915   43.7673 C   0  0  1  0  0  0  0  0  0  0  0  0
   30.3638   31.3625   44.5125 C   0  0  0  0  0  0  0  0  0  0  0  0
   30.9930   30.4368   43.9544 O   0  0  0  0  0  0  0  0  0  0  0  0
   30.1735   33.0138   42.5038 N   0  0  0  0  0  0  0  0  0  0  0  0
   29.6011   34.2363   42.4103 C   0  0  0  0  0  0  0  0  0  0  0  0
   29.0736   34.5657   43.6003 N   0  0  1  0  0  0  0  0  0  0  0  0
  1  2  1  0  0  0  0
  3  1  1  6  0  0  0
  3  4  1  0  0  0  0
  3  5  1  0  0  0  0
  5  6  1  6  0  0  0
  5  7  1  0  0  0  0
  7  8  1  0  0  0  0
  8  4  1  1  0  0  0
  8 19  1  0  0  0  0
  9 15  1  0  0  0  0
  9 10  1  0  0  0  0
 10 11  1  6  0  0  0
 10 12  1  0  0  0  0
 13 12  1  6  0  0  0
 13 14  1  0  0  0  0
 13 19  1  0  0  0  0
 14 15  1  6  0  0  0
 14 17  1  0  0  0  0
 15 16  2  0  0  0  0
 17 18  1  0  0  0  0
 19 18  1  6  0  0  0
M  END
>  <CHROM.1>
178.31547500,12.63081421,28.36720642,34.04555065,44.85956532,2.78358688,0.78101120
-0.95226700

>  <Name>
ligand

>  <RI>
0

>  <Rbt.Current_Directory>
/home/itssahil/PROJECTS/Mol_Feturizer/New_Systems/rnas/3SKL

>  <Rbt.Executable>
rbdock ($Id: //depot/dev/client3/rdock/2013.1/src/exe/rbdock.cxx#4 $)

>  <Rbt.Library>
libRbt.so (2013.1, Build901 2013/11/27)

>  <Rbt.Parameter_File>
/export/apps/rDock/src/rDock_2013.1_src/data/scripts/dock_solv.prm

>  <Rbt.Receptor>
prm/blind_docking_100.prm

>  <SCORE>
-14.111

>  <SCORE.INTER>
-14.0471

>  <SCORE.INTER.CONST>
1

>  <SCORE.INTER.POLAR>
0

>  <SCORE.INTER.ROT>
2

>  <SCORE.INTER.SOLV>
11.3417

>  <SCORE.INTER.VDW>
-18.0786

>  <SCORE.INTER.norm>
-0.739319

>  <SCORE.INTRA>
-0.0639706

>  <SCORE.INTRA.DIHEDRAL>
-0.303368

>  <SCORE.INTRA.DIHEDRAL.0>
1.50031

>  <SCORE.INTRA.POLAR>
0

>  <SCORE.INTRA.POLAR.0>
0

>  <SCORE.INTRA.REPUL>
0

>  <SCORE.INTRA.REPUL.0>
0

>  <SCORE.INTRA.SOLV>
0.581865

>  <SCORE.INTRA.SOLV.lig_0>
-37.9941

>  <SCORE.INTRA.VDW>
-0.203219

>  <SCORE.INTRA.VDW.0>
-0.964461

>  <SCORE.INTRA.norm>
-0.00336687

>  <SCORE.RESTR>
0

>  <SCORE.RESTR.CAVITY>
0

>  <SCORE.RESTR.norm>
0

>  <SCORE.SYSTEM>
0

>  <SCORE.SYSTEM.CONST>
0

>  <SCORE.SYSTEM.DIHEDRAL>
0

>  <SCORE.SYSTEM.SOLV>
0

>  <SCORE.SYSTEM.norm>
0

>  <SCORE.heavy>
19

>  <SCORE.norm>
-0.742686

>  <RMSD>
14.671

$$$$
ligand
 OpenBabel11021811483D
libRbt.so/2013.1/901 2013/11/27
 19 21  0  0  0  0  0  0  0  0999 V2000
   25.9000   17.8709   43.5391 C   0  0  0  0  0  0  0  0  0  0  0  0
   26.8824   18.8832   43.2584 O   0  0  0  0  0  0  0  0  0  0  0  0
   26.4900   16.4652   43.3853 C   0  0  1  0  0  0  0  0  0  0  0  0
   25.5409   15.4768   43.7849 O   0  0  0  0  0  0  0  0  0  0  0  0
   26.8633   16.1633   41.9464 C   0  0  1  0  0  0  0  0  0  0  0  0
   28.1512   15.5461   41.9352 O   0  0  0  0  0  0  0  0  0  0  0  0
   25.8414   15.1742   41.4333 C   0  0  0  0  0  0  0  0  0  0  0  0
   25.1493   14.6493   42.6780 C   0  0  2  0  0  0  0  0  0  0  0  0
   20.9293   17.4357   43.7671 N   0  0  0  0  0  0  0  0  0  0  0  0
   22.2370   17.6652   44.0370 C   0  0  2  0  0  0  0  0  0  0  0  0
   22.6072   18.7870   44.6899 N   0  0  0  0  0  0  0  0  0  0  0  0
   23.1992   16.7942   43.6665 N   0  0  0  0  0  0  0  0  0  0  0  0
   22.9031   15.6538   43.0109 C   0  0  1  0  0  0  0  0  0  0  0  0
   21.5955   15.3521   42.7071 C   0  0  1  0  0  0  0  0  0  0  0  0
   20.5464   16.3179   43.1174 C   0  0  0  0  0  0  0  0  0  0  0  0
   19.3396   16.0986   42.8723 O   0  0  0  0  0  0  0  0  0  0  0  0
   21.5876   14.1742   42.0598 N   0  0  0  0  0  0  0  0  0  0  0  0
   22.8735   13.7626   41.9708 C   0  0  0  0  0  0  0  0  0  0  0  0
   23.6674   14.6751   42.5539 N   0  0  1  0  0  0  0  0  0  0  0  0
  1  2  1  0  0  0  0
  3  1  1  6  0  0  0
  3  4  1  0  0  0  0
  3  5  1  0  0  0  0
  5  6  1  1  0  0  0
  5  7  1  0  0  0  0
  7  8  1  0  0  0  0
  8  4  1  1  0  0  0
  8 19  1  0  0  0  0
  9 15  1  0  0  0  0
  9 10  1  0  0  0  0
 10 11  1  6  0  0  0
 10 12  1  0  0  0  0
 13 12  1  6  0  0  0
 13 14  1  0  0  0  0
 13 19  1  0  0  0  0
 14 15  1  6  0  0  0
 14 17  1  0  0  0  0
 15 16  2  0  0  0  0
 17 18  1  0  0  0  0
 19 18  1  6  0  0  0
M  END
>  <CHROM.1>
174.68540508,23.76782343,23.88259898,16.18559152,42.97226083,0.00124030,0.09429004
0.45143544

>  <Name>
ligand

>  <RI>
0

>  <Rbt.Current_Directory>
/home/itssahil/PROJECTS/Mol_Feturizer/New_Systems/rnas/3SKL

>  <Rbt.Executable>
rbdock ($Id: //depot/dev/client3/rdock/2013.1/src/exe/rbdock.cxx#4 $)

>  <Rbt.Library>
libRbt.so (2013.1, Build901 2013/11/27)

>  <Rbt.Parameter_File>
/export/apps/rDock/src/rDock_2013.1_src/data/scripts/dock_solv.prm

>  <Rbt.Receptor>
prm/blind_docking_80.prm

>  <SCORE>
-14.0231

>  <SCORE.INTER>
-14.0525

>  <SCORE.INTER.CONST>
1

>  <SCORE.INTER.POLAR>
0

>  <SCORE.INTER.ROT>
2

>  <SCORE.INTER.SOLV>
10.2639

>  <SCORE.INTER.VDW>
-17.723

>  <SCORE.INTER.norm>
-0.739604

>  <SCORE.INTRA>
0.0293544

>  <SCORE.INTRA.DIHEDRAL>
-0.221774

>  <SCORE.INTRA.DIHEDRAL.0>
1.50031

>  <SCORE.INTRA.POLAR>
0

>  <SCORE.INTRA.POLAR.0>
0

>  <SCORE.INTRA.REPUL>
0

>  <SCORE.INTRA.REPUL.0>
0

>  <SCORE.INTRA.SOLV>
0.895639

>  <SCORE.INTRA.SOLV.lig_0>
-37.9941

>  <SCORE.INTRA.VDW>
-0.307578

>  <SCORE.INTRA.VDW.0>
-0.964461

>  <SCORE.INTRA.norm>
0.00154497

>  <SCORE.RESTR>
0

>  <SCORE.RESTR.CAVITY>
0

>  <SCORE.RESTR.norm>
0

>  <SCORE.SYSTEM>
0

>  <SCORE.SYSTEM.CONST>
0

>  <SCORE.SYSTEM.DIHEDRAL>
0

>  <SCORE.SYSTEM.SOLV>
0

>  <SCORE.SYSTEM.norm>
0

>  <SCORE.heavy>
19

>  <SCORE.norm>
-0.738059

>  <RMSD>
14.693

$$$$
ligand
 OpenBabel11021811483D
libRbt.so/2013.1/901 2013/11/27
 19 21  0  0  0  0  0  0  0  0999 V2000
   24.1725   18.3558   46.1008 C   0  0  0  0  0  0  0  0  0  0  0  0
   25.4654   17.7352   45.9924 O   0  0  0  0  0  0  0  0  0  0  0  0
   23.3558   18.1678   44.8179 C   0  0  1  0  0  0  0  0  0  0  0  0
   24.0083   18.7920   43.7125 O   0  0  0  0  0  0  0  0  0  0  0  0
   23.1899   16.7023   44.4634 C   0  0  1  0  0  0  0  0  0  0  0  0
   21.8287   16.4800   44.0923 O   0  0  0  0  0  0  0  0  0  0  0  0
   24.0730   16.4455   43.2634 C   0  0  0  0  0  0  0  0  0  0  0  0
   24.4194   17.8249   42.7332 C   0  0  2  0  0  0  0  0  0  0  0  0
   28.0079   17.8939   39.0082 N   0  0  0  0  0  0  0  0  0  0  0  0
   26.6692   17.6947   38.9457 C   0  0  2  0  0  0  0  0  0  0  0  0
   26.0716   17.4764   37.7553 N   0  0  0  0  0  0  0  0  0  0  0  0
   25.8995   17.7090   40.0543 N   0  0  0  0  0  0  0  0  0  0  0  0
   26.4279   17.9216   41.2765 C   0  0  1  0  0  0  0  0  0  0  0  0
   27.7811   18.1267   41.4171 C   0  0  1  0  0  0  0  0  0  0  0  0
   28.6171   18.1109   40.1914 C   0  0  0  0  0  0  0  0  0  0  0  0
   29.8536   18.2883   40.2544 O   0  0  0  0  0  0  0  0  0  0  0  0
   28.0327   18.3117   42.7243 N   0  0  0  0  0  0  0  0  0  0  0  0
   26.8486   18.2197   43.3725 C   0  0  0  0  0  0  0  0  0  0  0  0
   25.8760   17.9827   42.4776 N   0  0  1  0  0  0  0  0  0  0  0  0
  1  2  1  0  0  0  0
  3  1  1  1  0  0  0
  3  4  1  0  0  0  0
  3  5  1  0  0  0  0
  5  6  1  6  0  0  0
  5  7  1  0  0  0  0
  7  8  1  0  0  0  0
  8  4  1  1  0  0  0
  8 19  1  0  0  0  0
  9 15  1  0  0  0  0
  9 10  1  0  0  0  0
 10 11  1  6  0  0  0
 10 12  1  0  0  0  0
 13 12  1  6  0  0  0
 13 14  1  0  0  0  0
 13 19  1  0  0  0  0
 14 15  1  6  0  0  0
 14 17  1  0  0  0  0
 15 16  2  0  0  0  0
 17 18  1  0  0  0  0
 19 18  1  6  0  0  0
M  END
>  <CHROM.1>
-62.11363869,-138.50605115,25.77371552,17.79723271,42.31001406,-2.28816419
-0.25185509,-1.70289404

>  <Name>
ligand

>  <RI>
0

>  <Rbt.Current_Directory>
/home/itssahil/PROJECTS/Mol_Feturizer/New_Systems/rnas/3SKL

>  <Rbt.Executable>
rbdock ($Id: //depot/dev/client3/rdock/2013.1/src/exe/rbdock.cxx#4 $)

>  <Rbt.Library>
libRbt.so (2013.1, Build901 2013/11/27)

>  <Rbt.Parameter_File>
/export/apps/rDock/src/rDock_2013.1_src/data/scripts/dock_solv.prm

>  <Rbt.Receptor>
prm/blind_docking_100.prm

>  <SCORE>
-13.6902

>  <SCORE.INTER>
-13.1105

>  <SCORE.INTER.CONST>
1

>  <SCORE.INTER.POLAR>
0

>  <SCORE.INTER.ROT>
2

>  <SCORE.INTER.SOLV>
7.47462

>  <SCORE.INTER.VDW>
-16.1652

>  <SCORE.INTER.norm>
-0.690026

>  <SCORE.INTRA>
-0.57986

>  <SCORE.INTRA.DIHEDRAL>
-0.261872

>  <SCORE.INTRA.DIHEDRAL.0>
1.50031

>  <SCORE.INTRA.POLAR>
0

>  <SCORE.INTRA.POLAR.0>
0

>  <SCORE.INTRA.REPUL>
0

>  <SCORE.INTRA.REPUL.0>
0

>  <SCORE.INTRA.SOLV>
0.0315474

>  <SCORE.INTRA.SOLV.lig_0>
-37.9941

>  <SCORE.INTRA.VDW>
-0.464698

>  <SCORE.INTRA.VDW.0>
-0.964461

>  <SCORE.INTRA.norm>
-0.030519

>  <SCORE.RESTR>
0.000166433

>  <SCORE.RESTR.CAVITY>
0.000166433

>  <SCORE.RESTR.norm>
8.75961e-06

>  <SCORE.SYSTEM>
0

>  <SCORE.SYSTEM.CONST>
0

>  <SCORE.SYSTEM.DIHEDRAL>
0

>  <SCORE.SYSTEM.SOLV>
0

>  <SCORE.SYSTEM.norm>
0

>  <SCORE.heavy>
19

>  <SCORE.norm>
-0.720536

>  <RMSD>
14.707

$$$$
ligand
 OpenBabel11021811483D
libRbt.so/2013.1/901 2013/11/27
 19 21  0  0  0  0  0  0  0  0999 V2000
   24.8333   16.8757   45.5716 C   0  0  0  0  0  0  0  0  0  0  0  0
   25.7227   16.1201   44.7310 O   0  0  0  0  0  0  0  0  0  0  0  0
   23.7227   17.5401   44.7512 C   0  0  1  0  0  0  0  0  0  0  0  0
   24.2782   18.4338   43.7868 O   0  0  0  0  0  0  0  0  0  0  0  0
   22.8984   16.5216   43.9869 C   0  0  1  0  0  0  0  0  0  0  0  0
   21.5177   16.8539   44.1390 O   0  0  0  0  0  0  0  0  0  0  0  0
   23.2788   16.6632   42.5304 C   0  0  0  0  0  0  0  0  0  0  0  0
   24.0102   17.9906   42.4470 C   0  0  2  0  0  0  0  0  0  0  0  0
   29.1158   18.7229   42.8403 N   0  0  0  0  0  0  0  0  0  0  0  0
   28.1179   18.9415   43.7303 C   0  0  2  0  0  0  0  0  0  0  0  0
   28.3996   19.4235   44.9591 N   0  0  0  0  0  0  0  0  0  0  0  0
   26.8283   18.6872   43.4235 N   0  0  0  0  0  0  0  0  0  0  0  0
   26.4732   18.2042   42.2157 C   0  0  1  0  0  0  0  0  0  0  0  0
   27.4328   17.9624   41.2599 C   0  0  1  0  0  0  0  0  0  0  0  0
   28.8473   18.2437   41.6089 C   0  0  0  0  0  0  0  0  0  0  0  0
   29.7647   18.0470   40.7818 O   0  0  0  0  0  0  0  0  0  0  0  0
   26.8105   17.4896   40.1665 N   0  0  0  0  0  0  0  0  0  0  0  0
   25.4885   17.4446   40.4514 C   0  0  0  0  0  0  0  0  0  0  0  0
   25.2953   17.8821   41.7061 N   0  0  1  0  0  0  0  0  0  0  0  0
  1  2  1  0  0  0  0
  3  1  1  6  0  0  0
  3  4  1  0  0  0  0
  3  5  1  0  0  0  0
  5  6  1  6  0  0  0
  5  7  1  0  0  0  0
  7  8  1  0  0  0  0
  8  4  1  1  0  0  0
  8 19  1  0  0  0  0
  9 15  1  0  0  0  0
  9 10  1  0  0  0  0
 10 11  1  1  0  0  0
 10 12  1  0  0  0  0
 13 12  1  1  0  0  0
 13 14  1  0  0  0  0
 13 19  1  0  0  0  0
 14 15  1  1  0  0  0
 14 17  1  0  0  0  0
 15 16  2  0  0  0  0
 17 18  1  0  0  0  0
 19 18  1  1  0  0  0
M  END
>  <CHROM.1>
-60.16066816,-2.53670619,25.89583434,17.76972268,42.94413715,-2.81216139
-0.28162391,-1.66677686

>  <Name>
ligand

>  <RI>
0

>  <Rbt.Current_Directory>
/home/itssahil/PROJECTS/Mol_Feturizer/New_Systems/rnas/3SKL

>  <Rbt.Executable>
rbdock ($Id: //depot/dev/client3/rdock/2013.1/src/exe/rbdock.cxx#4 $)

>  <Rbt.Library>
libRbt.so (2013.1, Build901 2013/11/27)

>  <Rbt.Parameter_File>
/export/apps/rDock/src/rDock_2013.1_src/data/scripts/dock_solv.prm

>  <Rbt.Receptor>
prm/blind_docking_60.prm

>  <SCORE>
-12.7838

>  <SCORE.INTER>
-12.4626

>  <SCORE.INTER.CONST>
1

>  <SCORE.INTER.POLAR>
0

>  <SCORE.INTER.ROT>
2

>  <SCORE.INTER.SOLV>
9.72917

>  <SCORE.INTER.VDW>
-16.4848

>  <SCORE.INTER.norm>
-0.655927

>  <SCORE.INTRA>
-0.321215

>  <SCORE.INTRA.DIHEDRAL>
-0.294351

>  <SCORE.INTRA.DIHEDRAL.0>
1.50031

>  <SCORE.INTRA.POLAR>
0

>  <SCORE.INTRA.POLAR.0>
0

>  <SCORE.INTRA.REPUL>
0

>  <SCORE.INTRA.REPUL.0>
0

>  <SCORE.INTRA.SOLV>
0.572887

>  <SCORE.INTRA.SOLV.lig_0>
-37.9941

>  <SCORE.INTRA.VDW>
-0.460483

>  <SCORE.INTRA.VDW.0>
-0.964461

>  <SCORE.INTRA.norm>
-0.016906

>  <SCORE.RESTR>
0

>  <SCORE.RESTR.CAVITY>
0

>  <SCORE.RESTR.norm>
0

>  <SCORE.SYSTEM>
0

>  <SCORE.SYSTEM.CONST>
0

>  <SCORE.SYSTEM.DIHEDRAL>
0

>  <SCORE.SYSTEM.SOLV>
0

>  <SCORE.SYSTEM.norm>
0

>  <SCORE.heavy>
19

>  <SCORE.norm>
-0.672833

>  <RMSD>
14.717

$$$$
ligand
 OpenBabel11021811483D
libRbt.so/2013.1/901 2013/11/27
 19 21  0  0  0  0  0  0  0  0999 V2000
   23.9473   18.0695   43.1798 C   0  0  0  0  0  0  0  0  0  0  0  0
   22.9072   17.5161   44.0047 O   0  0  0  0  0  0  0  0  0  0  0  0
   24.1224   17.2625   41.8891 C   0  0  1  0  0  0  0  0  0  0  0  0
   25.1062   17.8667   41.0497 O   0  0  0  0  0  0  0  0  0  0  0  0
   24.5883   15.8459   42.1672 C   0  0  1  0  0  0  0  0  0  0  0  0
   23.8207   14.9525   41.3594 O   0  0  0  0  0  0  0  0  0  0  0  0
   26.0359   15.7748   41.7368 C   0  0  0  0  0  0  0  0  0  0  0  0
   26.2494   17.0126   40.8848 C   0  0  2  0  0  0  0  0  0  0  0  0
   28.6868   19.2206   44.8775 N   0  0  0  0  0  0  0  0  0  0  0  0
   27.4918   18.5858   44.8097 C   0  0  2  0  0  0  0  0  0  0  0  0
   26.7351   18.4461   45.9186 N   0  0  0  0  0  0  0  0  0  0  0  0
   27.0252   18.0783   43.6493 N   0  0  0  0  0  0  0  0  0  0  0  0
   27.7273   18.1803   42.5026 C   0  0  1  0  0  0  0  0  0  0  0  0
   28.9473   18.8163   42.4948 C   0  0  1  0  0  0  0  0  0  0  0  0
   29.4511   19.3685   43.7765 C   0  0  0  0  0  0  0  0  0  0  0  0
   30.5518   19.9599   43.8331 O   0  0  0  0  0  0  0  0  0  0  0  0
   29.4227   18.7728   41.2384 N   0  0  0  0  0  0  0  0  0  0  0  0
   28.5042   18.1197   40.4897 C   0  0  0  0  0  0  0  0  0  0  0  0
   27.4742   17.7617   41.2732 N   0  0  1  0  0  0  0  0  0  0  0  0
  1  2  1  0  0  0  0
  3  1  1  1  0  0  0
  3  4  1  0  0  0  0
  3  5  1  0  0  0  0
  5  6  1  6  0  0  0
  5  7  1  0  0  0  0
  7  8  1  0  0  0  0
  8  4  1  1  0  0  0
  8 19  1  0  0  0  0
  9 15  1  0  0  0  0
  9 10  1  0  0  0  0
 10 11  1  1  0  0  0
 10 12  1  0  0  0  0
 13 12  1  1  0  0  0
 13 14  1  0  0  0  0
 13 19  1  0  0  0  0
 14 15  1  1  0  0  0
 14 17  1  0  0  0  0
 15 16  2  0  0  0  0
 17 18  1  0  0  0  0
 19 18  1  1  0  0  0
M  END
>  <CHROM.1>
176.81912414,65.49859910,26.69977595,17.84989973,42.69446664,2.76150832,-0.37162797
-1.93682098

>  <Name>
ligand

>  <RI>
0

>  <Rbt.Current_Directory>
/home/itssahil/PROJECTS/Mol_Feturizer/New_Systems/rnas/3SKL

>  <Rbt.Executable>
rbdock ($Id: //depot/dev/client3/rdock/2013.1/src/exe/rbdock.cxx#4 $)

>  <Rbt.Library>
libRbt.so (2013.1, Build901 2013/11/27)

>  <Rbt.Parameter_File>
/export/apps/rDock/src/rDock_2013.1_src/data/scripts/dock_solv.prm

>  <Rbt.Receptor>
prm/blind_docking_100.prm

>  <SCORE>
-13.0134

>  <SCORE.INTER>
-12.4353

>  <SCORE.INTER.CONST>
1

>  <SCORE.INTER.POLAR>
0

>  <SCORE.INTER.ROT>
2

>  <SCORE.INTER.SOLV>
5.98696

>  <SCORE.INTER.VDW>
-15.2192

>  <SCORE.INTER.norm>
-0.65449

>  <SCORE.INTRA>
-0.578074

>  <SCORE.INTRA.DIHEDRAL>
-0.256089

>  <SCORE.INTRA.DIHEDRAL.0>
1.50031

>  <SCORE.INTRA.POLAR>
0

>  <SCORE.INTRA.POLAR.0>
0

>  <SCORE.INTRA.REPUL>
0

>  <SCORE.INTRA.REPUL.0>
0

>  <SCORE.INTRA.SOLV>
0.496013

>  <SCORE.INTRA.SOLV.lig_0>
-37.9941

>  <SCORE.INTRA.VDW>
-0.698037

>  <SCORE.INTRA.VDW.0>
-0.964461

>  <SCORE.INTRA.norm>
-0.030425

>  <SCORE.RESTR>
0

>  <SCORE.RESTR.CAVITY>
0

>  <SCORE.RESTR.norm>
0

>  <SCORE.SYSTEM>
0

>  <SCORE.SYSTEM.CONST>
0

>  <SCORE.SYSTEM.DIHEDRAL>
0

>  <SCORE.SYSTEM.SOLV>
0

>  <SCORE.SYSTEM.norm>
0

>  <SCORE.heavy>
19

>  <SCORE.norm>
-0.684915

>  <RMSD>
14.776

$$$$
ligand
 OpenBabel11021811483D
libRbt.so/2013.1/901 2013/11/27
 19 21  0  0  0  0  0  0  0  0999 V2000
   29.1754   17.3051   41.9298 C   0  0  0  0  0  0  0  0  0  0  0  0
   28.8307   15.9916   42.4035 O   0  0  0  0  0  0  0  0  0  0  0  0
   28.1394   18.3449   42.3699 C   0  0  1  0  0  0  0  0  0  0  0  0
   26.8464   18.0075   41.8682 O   0  0  0  0  0  0  0  0  0  0  0  0
   28.0216   18.4210   43.8803 C   0  0  1  0  0  0  0  0  0  0  0  0
   27.9918   19.7973   44.2609 O   0  0  0  0  0  0  0  0  0  0  0  0
   26.6996   17.7835   44.2432 C   0  0  0  0  0  0  0  0  0  0  0  0
   25.9332   17.7062   42.9353 C   0  0  2  0  0  0  0  0  0  0  0  0
   21.4661   15.1530   42.4031 N   0  0  0  0  0  0  0  0  0  0  0  0
   21.7151   16.4630   42.6425 C   0  0  2  0  0  0  0  0  0  0  0  0
   20.6925   17.3343   42.7727 N   0  0  0  0  0  0  0  0  0  0  0  0
   22.9748   16.9344   42.7558 N   0  0  0  0  0  0  0  0  0  0  0  0
   24.0446   16.1223   42.6366 C   0  0  1  0  0  0  0  0  0  0  0  0
   23.8678   14.7788   42.3978 C   0  0  1  0  0  0  0  0  0  0  0  0
   22.4788   14.2723   42.2731 C   0  0  0  0  0  0  0  0  0  0  0  0
   22.2533   13.0608   42.0590 O   0  0  0  0  0  0  0  0  0  0  0  0
   25.0849   14.2135   42.3235 N   0  0  0  0  0  0  0  0  0  0  0  0
   25.9919   15.1991   42.5154 C   0  0  0  0  0  0  0  0  0  0  0  0
   25.3445   16.3601   42.7041 N   0  0  1  0  0  0  0  0  0  0  0  0
  1  2  1  0  0  0  0
  3  1  1  1  0  0  0
  3  4  1  0  0  0  0
  3  5  1  0  0  0  0
  5  6  1  6  0  0  0
  5  7  1  0  0  0  0
  7  8  1  0  0  0  0
  8  4  1  6  0  0  0
  8 19  1  0  0  0  0
  9 15  1  0  0  0  0
  9 10  1  0  0  0  0
 10 11  1  6  0  0  0
 10 12  1  0  0  0  0
 13 12  1  6  0  0  0
 13 14  1  0  0  0  0
 13 19  1  0  0  0  0
 14 15  1  6  0  0  0
 14 17  1  0  0  0  0
 15 16  2  0  0  0  0
 17 18  1  0  0  0  0
 19 18  1  6  0  0  0
M  END
>  <CHROM.1>
-59.35076520,-124.33863104,25.20841373,16.51769762,42.70628321,-0.45718865
-0.04700641,-2.84236898

>  <Name>
ligand

>  <RI>
0

>  <Rbt.Current_Directory>
/home/itssahil/PROJECTS/Mol_Feturizer/New_Systems/rnas/3SKL

>  <Rbt.Executable>
rbdock ($Id: //depot/dev/client3/rdock/2013.1/src/exe/rbdock.cxx#4 $)

>  <Rbt.Library>
libRbt.so (2013.1, Build901 2013/11/27)

>  <Rbt.Parameter_File>
/export/apps/rDock/src/rDock_2013.1_src/data/scripts/dock_solv.prm

>  <Rbt.Receptor>
prm/blind_docking_60.prm

>  <SCORE>
-15.1111

>  <SCORE.INTER>
-14.5412

>  <SCORE.INTER.CONST>
1

>  <SCORE.INTER.POLAR>
0

>  <SCORE.INTER.ROT>
2

>  <SCORE.INTER.SOLV>
10.3843

>  <SCORE.INTER.VDW>
-18.0889

>  <SCORE.INTER.norm>
-0.765324

>  <SCORE.INTRA>
-0.569931

>  <SCORE.INTRA.DIHEDRAL>
-0.29037

>  <SCORE.INTRA.DIHEDRAL.0>
1.50031

>  <SCORE.INTRA.POLAR>
0

>  <SCORE.INTRA.POLAR.0>
0

>  <SCORE.INTRA.REPUL>
0

>  <SCORE.INTRA.REPUL.0>
0

>  <SCORE.INTRA.SOLV>
0.0416911

>  <SCORE.INTRA.SOLV.lig_0>
-37.9941

>  <SCORE.INTRA.VDW>
-0.445591

>  <SCORE.INTRA.VDW.0>
-0.964461

>  <SCORE.INTRA.norm>
-0.0299964

>  <SCORE.RESTR>
0

>  <SCORE.RESTR.CAVITY>
0

>  <SCORE.RESTR.norm>
0

>  <SCORE.SYSTEM>
0

>  <SCORE.SYSTEM.CONST>
0

>  <SCORE.SYSTEM.DIHEDRAL>
0

>  <SCORE.SYSTEM.SOLV>
0

>  <SCORE.SYSTEM.norm>
0

>  <SCORE.heavy>
19

>  <SCORE.norm>
-0.795321

>  <RMSD>
14.802

$$$$
ligand
 OpenBabel11021811483D
libRbt.so/2013.1/901 2013/11/27
 19 21  0  0  0  0  0  0  0  0999 V2000
   23.9139   18.0876   43.1489 C   0  0  0  0  0  0  0  0  0  0  0  0
   22.8784   17.5314   43.9777 O   0  0  0  0  0  0  0  0  0  0  0  0
   24.1141   17.2575   41.8765 C   0  0  1  0  0  0  0  0  0  0  0  0
   25.1246   17.8388   41.0528 O   0  0  0  0  0  0  0  0  0  0  0  0
   24.5593   15.8417   42.1898 C   0  0  1  0  0  0  0  0  0  0  0  0
   23.8042   14.9419   41.3774 O   0  0  0  0  0  0  0  0  0  0  0  0
   26.0167   15.7503   41.7977 C   0  0  0  0  0  0  0  0  0  0  0  0
   26.2635   16.9718   40.9312 C   0  0  2  0  0  0  0  0  0  0  0  0
   28.6564   19.1541   44.9647 N   0  0  0  0  0  0  0  0  0  0  0  0
   27.4609   18.5224   44.8790 C   0  0  2  0  0  0  0  0  0  0  0  0
   26.6903   18.3788   45.9778 N   0  0  0  0  0  0  0  0  0  0  0  0
   27.0076   18.0218   43.7104 N   0  0  0  0  0  0  0  0  0  0  0  0
   27.7239   18.1280   42.5730 C   0  0  1  0  0  0  0  0  0  0  0  0
   28.9453   18.7613   42.5833 C   0  0  1  0  0  0  0  0  0  0  0  0
   29.4345   19.3059   43.8739 C   0  0  0  0  0  0  0  0  0  0  0  0
   30.5357   19.8946   43.9471 O   0  0  0  0  0  0  0  0  0  0  0  0
   29.4360   18.7231   41.3327 N   0  0  0  0  0  0  0  0  0  0  0  0
   28.5253   18.0758   40.5694 C   0  0  0  0  0  0  0  0  0  0  0  0
   27.4850   17.7162   41.3384 N   0  0  1  0  0  0  0  0  0  0  0  0
  1  2  1  0  0  0  0
  3  1  1  1  0  0  0
  3  4  1  0  0  0  0
  3  5  1  0  0  0  0
  5  6  1  6  0  0  0
  5  7  1  0  0  0  0
  7  8  1  0  0  0  0
  8  4  1  1  0  0  0
  8 19  1  0  0  0  0
  9 15  1  0  0  0  0
  9 10  1  0  0  0  0
 10 11  1  1  0  0  0
 10 12  1  0  0  0  0
 13 12  1  1  0  0  0
 13 14  1  0  0  0  0
 13 19  1  0  0  0  0
 14 15  1  1  0  0  0
 14 17  1  0  0  0  0
 15 16  2  0  0  0  0
 17 18  1  0  0  0  0
 19 18  1  1  0  0  0
M  END
>  <CHROM.1>
178.77000369,67.00610980,26.68802117,17.81358694,42.74381052,2.74974554,-0.35718921
-1.93452858

>  <Name>
ligand

>  <RI>
0

>  <Rbt.Current_Directory>
/home/itssahil/PROJECTS/Mol_Feturizer/New_Systems/rnas/3SKL

>  <Rbt.Executable>
rbdock ($Id: //depot/dev/client3/rdock/2013.1/src/exe/rbdock.cxx#4 $)

>  <Rbt.Library>
libRbt.so (2013.1, Build901 2013/11/27)

>  <Rbt.Parameter_File>
/export/apps/rDock/src/rDock_2013.1_src/data/scripts/dock_solv.prm

>  <Rbt.Receptor>
prm/blind_docking_80.prm

>  <SCORE>
-12.9405

>  <SCORE.INTER>
-12.3741

>  <SCORE.INTER.CONST>
1

>  <SCORE.INTER.POLAR>
0

>  <SCORE.INTER.ROT>
2

>  <SCORE.INTER.SOLV>
5.90906

>  <SCORE.INTER.VDW>
-15.1524

>  <SCORE.INTER.norm>
-0.651271

>  <SCORE.INTRA>
-0.566333

>  <SCORE.INTRA.DIHEDRAL>
-0.284658

>  <SCORE.INTRA.DIHEDRAL.0>
1.50031

>  <SCORE.INTRA.POLAR>
0

>  <SCORE.INTRA.POLAR.0>
0

>  <SCORE.INTRA.REPUL>
0

>  <SCORE.INTRA.REPUL.0>
0

>  <SCORE.INTRA.SOLV>
0.446294

>  <SCORE.INTRA.SOLV.lig_0>
-37.9941

>  <SCORE.INTRA.VDW>
-0.647151

>  <SCORE.INTRA.VDW.0>
-0.964461

>  <SCORE.INTRA.norm>
-0.029807

>  <SCORE.RESTR>
0

>  <SCORE.RESTR.CAVITY>
0

>  <SCORE.RESTR.norm>
0

>  <SCORE.SYSTEM>
0

>  <SCORE.SYSTEM.CONST>
0

>  <SCORE.SYSTEM.DIHEDRAL>
0

>  <SCORE.SYSTEM.SOLV>
0

>  <SCORE.SYSTEM.norm>
0

>  <SCORE.heavy>
19

>  <SCORE.norm>
-0.681078

>  <RMSD>
14.808

$$$$
ligand
 OpenBabel11021811483D
libRbt.so/2013.1/901 2013/11/27
 19 21  0  0  0  0  0  0  0  0999 V2000
   23.9403   18.1041   43.1723 C   0  0  0  0  0  0  0  0  0  0  0  0
   22.9155   17.5589   44.0215 O   0  0  0  0  0  0  0  0  0  0  0  0
   24.1402   17.2447   41.9196 C   0  0  1  0  0  0  0  0  0  0  0  0
   25.1314   17.8210   41.0694 O   0  0  0  0  0  0  0  0  0  0  0  0
   24.6128   15.8450   42.2640 C   0  0  1  0  0  0  0  0  0  0  0  0
   23.8639   14.9120   41.4840 O   0  0  0  0  0  0  0  0  0  0  0  0
   26.0670   15.7677   41.8575 C   0  0  0  0  0  0  0  0  0  0  0  0
   26.2833   16.9702   40.9569 C   0  0  2  0  0  0  0  0  0  0  0  0
   28.7134   19.2444   44.9168 N   0  0  0  0  0  0  0  0  0  0  0  0
   27.5305   18.5859   44.8630 C   0  0  2  0  0  0  0  0  0  0  0  0
   26.7870   18.4365   45.9795 N   0  0  0  0  0  0  0  0  0  0  0  0
   27.0634   18.0638   43.7093 N   0  0  0  0  0  0  0  0  0  0  0  0
   27.7527   18.1743   42.5557 C   0  0  1  0  0  0  0  0  0  0  0  0
   28.9599   18.8341   42.5336 C   0  0  1  0  0  0  0  0  0  0  0  0
   29.4644   19.4022   43.8081 C   0  0  0  0  0  0  0  0  0  0  0  0
   30.5537   20.0154   43.8518 O   0  0  0  0  0  0  0  0  0  0  0  0
   29.4244   18.7941   41.2731 N   0  0  0  0  0  0  0  0  0  0  0  0
   28.5121   18.1196   40.5359 C   0  0  0  0  0  0  0  0  0  0  0  0
   27.4966   17.7450   41.3306 N   0  0  1  0  0  0  0  0  0  0  0  0
  1  2  1  0  0  0  0
  3  1  1  1  0  0  0
  3  4  1  0  0  0  0
  3  5  1  0  0  0  0
  5  6  1  6  0  0  0
  5  7  1  0  0  0  0
  7  8  1  0  0  0  0
  8  4  1  1  0  0  0
  8 19  1  0  0  0  0
  9 15  1  0  0  0  0
  9 10  1  0  0  0  0
 10 11  1  1  0  0  0
 10 12  1  0  0  0  0
 13 12  1  1  0  0  0
 13 14  1  0  0  0  0
 13 19  1  0  0  0  0
 14 15  1  1  0  0  0
 14 17  1  0  0  0  0
 15 16  2  0  0  0  0
 17 18  1  0  0  0  0
 19 18  1  1  0  0  0
M  END
>  <CHROM.1>
178.26726866,68.13617281,26.72173854,17.85140505,42.74527996,2.76221667,-0.37681671
-1.94095251

>  <Name>
ligand

>  <RI>
0

>  <Rbt.Current_Directory>
/home/itssahil/PROJECTS/Mol_Feturizer/New_Systems/rnas/3SKL

>  <Rbt.Executable>
rbdock ($Id: //depot/dev/client3/rdock/2013.1/src/exe/rbdock.cxx#4 $)

>  <Rbt.Library>
libRbt.so (2013.1, Build901 2013/11/27)

>  <Rbt.Parameter_File>
/export/apps/rDock/src/rDock_2013.1_src/data/scripts/dock_solv.prm

>  <Rbt.Receptor>
prm/blind_docking_60.prm

>  <SCORE>
-13.0434

>  <SCORE.INTER>
-12.4598

>  <SCORE.INTER.CONST>
1

>  <SCORE.INTER.POLAR>
0

>  <SCORE.INTER.ROT>
2

>  <SCORE.INTER.SOLV>
6.10166

>  <SCORE.INTER.VDW>
-15.2737

>  <SCORE.INTER.norm>
-0.655777

>  <SCORE.INTRA>
-0.583682

>  <SCORE.INTRA.DIHEDRAL>
-0.278058

>  <SCORE.INTRA.DIHEDRAL.0>
1.50031

>  <SCORE.INTRA.POLAR>
0

>  <SCORE.INTRA.POLAR.0>
0

>  <SCORE.INTRA.REPUL>
0

>  <SCORE.INTRA.REPUL.0>
0

>  <SCORE.INTRA.SOLV>
0.398161

>  <SCORE.INTRA.SOLV.lig_0>
-37.9941

>  <SCORE.INTRA.VDW>
-0.643733

>  <SCORE.INTRA.VDW.0>
-0.964461

>  <SCORE.INTRA.norm>
-0.0307201

>  <SCORE.RESTR>
0

>  <SCORE.RESTR.CAVITY>
0

>  <SCORE.RESTR.norm>
0

>  <SCORE.SYSTEM>
0

>  <SCORE.SYSTEM.CONST>
0

>  <SCORE.SYSTEM.DIHEDRAL>
0

>  <SCORE.SYSTEM.SOLV>
0

>  <SCORE.SYSTEM.norm>
0

>  <SCORE.heavy>
19

>  <SCORE.norm>
-0.686497

>  <RMSD>
14.811

$$$$
ligand
 OpenBabel11021811483D
libRbt.so/2013.1/901 2013/11/27
 19 21  0  0  0  0  0  0  0  0999 V2000
   24.0852   17.8644   43.8472 C   0  0  0  0  0  0  0  0  0  0  0  0
   23.5724   19.2066   43.7837 O   0  0  0  0  0  0  0  0  0  0  0  0
   24.0997   17.2083   42.4625 C   0  0  1  0  0  0  0  0  0  0  0  0
   24.9883   17.9032   41.5880 O   0  0  0  0  0  0  0  0  0  0  0  0
   24.5754   15.7692   42.5241 C   0  0  1  0  0  0  0  0  0  0  0  0
   23.7081   14.9731   41.7155 O   0  0  0  0  0  0  0  0  0  0  0  0
   25.9628   15.7468   41.9235 C   0  0  0  0  0  0  0  0  0  0  0  0
   26.0933   17.0729   41.1968 C   0  0  2  0  0  0  0  0  0  0  0  0
   28.7662   19.2753   45.0391 N   0  0  0  0  0  0  0  0  0  0  0  0
   27.5409   18.6973   45.0296 C   0  0  2  0  0  0  0  0  0  0  0  0
   26.8164   18.6264   46.1662 N   0  0  0  0  0  0  0  0  0  0  0  0
   27.0118   18.1794   43.9009 N   0  0  0  0  0  0  0  0  0  0  0  0
   27.6787   18.2142   42.7295 C   0  0  1  0  0  0  0  0  0  0  0  0
   28.9265   18.7900   42.6627 C   0  0  1  0  0  0  0  0  0  0  0  0
   29.4989   19.3541   43.9100 C   0  0  0  0  0  0  0  0  0  0  0  0
   30.6277   19.8931   43.9128 O   0  0  0  0  0  0  0  0  0  0  0  0
   29.3565   18.6873   41.3935 N   0  0  0  0  0  0  0  0  0  0  0  0
   28.3833   18.0579   40.6952 C   0  0  0  0  0  0  0  0  0  0  0  0
   27.3647   17.7729   41.5223 N   0  0  1  0  0  0  0  0  0  0  0  0
  1  2  1  0  0  0  0
  3  1  1  1  0  0  0
  3  4  1  0  0  0  0
  3  5  1  0  0  0  0
  5  6  1  6  0  0  0
  5  7  1  0  0  0  0
  7  8  1  0  0  0  0
  8  4  1  1  0  0  0
  8 19  1  0  0  0  0
  9 15  1  0  0  0  0
  9 10  1  0  0  0  0
 10 11  1  1  0  0  0
 10 12  1  0  0  0  0
 13 12  1  1  0  0  0
 13 14  1  0  0  0  0
 13 19  1  0  0  0  0
 14 15  1  1  0  0  0
 14 17  1  0  0  0  0
 15 16  2  0  0  0  0
 17 18  1  0  0  0  0
 19 18  1  1  0  0  0
M  END
>  <CHROM.1>
63.67025202,55.74962544,26.71917063,17.95284394,42.94933715,2.70739931,-0.32050189
-2.04599349

>  <Name>
ligand

>  <RI>
0

>  <Rbt.Current_Directory>
/home/itssahil/PROJECTS/Mol_Feturizer/New_Systems/rnas/3SKL

>  <Rbt.Executable>
rbdock ($Id: //depot/dev/client3/rdock/2013.1/src/exe/rbdock.cxx#4 $)

>  <Rbt.Library>
libRbt.so (2013.1, Build901 2013/11/27)

>  <Rbt.Parameter_File>
/export/apps/rDock/src/rDock_2013.1_src/data/scripts/dock_solv.prm

>  <Rbt.Receptor>
prm/blind_docking_80.prm

>  <SCORE>
-12.8178

>  <SCORE.INTER>
-12.4202

>  <SCORE.INTER.CONST>
1

>  <SCORE.INTER.POLAR>
0

>  <SCORE.INTER.ROT>
2

>  <SCORE.INTER.SOLV>
6.3294

>  <SCORE.INTER.VDW>
-15.3233

>  <SCORE.INTER.norm>
-0.653695

>  <SCORE.INTRA>
-0.397617

>  <SCORE.INTRA.DIHEDRAL>
-0.25455

>  <SCORE.INTRA.DIHEDRAL.0>
1.50031

>  <SCORE.INTRA.POLAR>
0

>  <SCORE.INTRA.POLAR.0>
0

>  <SCORE.INTRA.REPUL>
0

>  <SCORE.INTRA.REPUL.0>
0

>  <SCORE.INTRA.SOLV>
1.05444

>  <SCORE.INTRA.SOLV.lig_0>
-37.9941

>  <SCORE.INTRA.VDW>
-0.797562

>  <SCORE.INTRA.VDW.0>
-0.964461

>  <SCORE.INTRA.norm>
-0.0209272

>  <SCORE.RESTR>
0

>  <SCORE.RESTR.CAVITY>
0

>  <SCORE.RESTR.norm>
0

>  <SCORE.SYSTEM>
0

>  <SCORE.SYSTEM.CONST>
0

>  <SCORE.SYSTEM.DIHEDRAL>
0

>  <SCORE.SYSTEM.SOLV>
0

>  <SCORE.SYSTEM.norm>
0

>  <SCORE.heavy>
19

>  <SCORE.norm>
-0.674622

>  <RMSD>
14.840

$$$$
ligand
 OpenBabel11021811483D
libRbt.so/2013.1/901 2013/11/27
 19 21  0  0  0  0  0  0  0  0999 V2000
   27.9466   35.3084   45.3796 C   0  0  0  0  0  0  0  0  0  0  0  0
   26.7446   36.0617   45.1422 O   0  0  0  0  0  0  0  0  0  0  0  0
   29.0330   35.6574   44.3568 C   0  0  1  0  0  0  0  0  0  0  0  0
   30.2295   34.9279   44.6279 O   0  0  0  0  0  0  0  0  0  0  0  0
   28.6117   35.3059   42.9427 C   0  0  1  0  0  0  0  0  0  0  0  0
   28.9549   36.3960   42.0862 O   0  0  0  0  0  0  0  0  0  0  0  0
   29.4197   34.0931   42.5400 C   0  0  0  0  0  0  0  0  0  0  0  0
   30.5369   34.0127   43.5643 C   0  0  2  0  0  0  0  0  0  0  0  0
   29.0034   30.9039   47.4037 N   0  0  0  0  0  0  0  0  0  0  0  0
   28.6972   32.1957   47.1333 C   0  0  2  0  0  0  0  0  0  0  0  0
   27.8511   32.8739   47.9369 N   0  0  0  0  0  0  0  0  0  0  0  0
   29.2187   32.8378   46.0667 N   0  0  0  0  0  0  0  0  0  0  0  0
   30.0699   32.2230   45.2208 C   0  0  1  0  0  0  0  0  0  0  0  0
   30.4298   30.9125   45.4356 C   0  0  1  0  0  0  0  0  0  0  0  0
   29.8489   30.2161   46.6099 C   0  0  0  0  0  0  0  0  0  0  0  0
   30.1397   29.0255   46.8598 O   0  0  0  0  0  0  0  0  0  0  0  0
   31.2757   30.5550   44.4542 N   0  0  0  0  0  0  0  0  0  0  0  0
   31.4303   31.6336   43.6520 C   0  0  0  0  0  0  0  0  0  0  0  0
   30.6879   32.6453   44.1297 N   0  0  1  0  0  0  0  0  0  0  0  0
  1  2  1  0  0  0  0
  3  1  1  1  0  0  0
  3  4  1  0  0  0  0
  3  5  1  0  0  0  0
  5  6  1  6  0  0  0
  5  7  1  0  0  0  0
  7  8  1  0  0  0  0
  8  4  1  1  0  0  0
  8 19  1  0  0  0  0
  9 15  1  0  0  0  0
  9 10  1  0  0  0  0
 10 11  1  6  0  0  0
 10 12  1  0  0  0  0
 13 12  1  6  0  0  0
 13 14  1  0  0  0  0
 13 19  1  0  0  0  0
 14 15  1  6  0  0  0
 14 17  1  0  0  0  0
 15 16  2  0  0  0  0
 17 18  1  0  0  0  0
 19 18  1  6  0  0  0
M  END
>  <CHROM.1>
178.47019571,28.35382755,29.44373752,33.11318326,45.01143977,1.88720384,0.81884287
-0.73650304

>  <Name>
ligand

>  <RI>
0

>  <Rbt.Current_Directory>
/home/itssahil/PROJECTS/Mol_Feturizer/New_Systems/rnas/3SKL

>  <Rbt.Executable>
rbdock ($Id: //depot/dev/client3/rdock/2013.1/src/exe/rbdock.cxx#4 $)

>  <Rbt.Library>
libRbt.so (2013.1, Build901 2013/11/27)

>  <Rbt.Parameter_File>
/export/apps/rDock/src/rDock_2013.1_src/data/scripts/dock_solv.prm

>  <Rbt.Receptor>
prm/blind_docking_100.prm

>  <SCORE>
-16.8957

>  <SCORE.INTER>
-16.9199

>  <SCORE.INTER.CONST>
1

>  <SCORE.INTER.POLAR>
0

>  <SCORE.INTER.ROT>
2

>  <SCORE.INTER.SOLV>
12.4034

>  <SCORE.INTER.VDW>
-20.3477

>  <SCORE.INTER.norm>
-0.89052

>  <SCORE.INTRA>
0.0242157

>  <SCORE.INTRA.DIHEDRAL>
-0.315007

>  <SCORE.INTRA.DIHEDRAL.0>
1.50031

>  <SCORE.INTRA.POLAR>
0

>  <SCORE.INTRA.POLAR.0>
0

>  <SCORE.INTRA.REPUL>
0

>  <SCORE.INTRA.REPUL.0>
0

>  <SCORE.INTRA.SOLV>
1.00322

>  <SCORE.INTRA.SOLV.lig_0>
-37.9941

>  <SCORE.INTRA.VDW>
-0.319891

>  <SCORE.INTRA.VDW.0>
-0.964461

>  <SCORE.INTRA.norm>
0.00127451

>  <SCORE.RESTR>
0

>  <SCORE.RESTR.CAVITY>
0

>  <SCORE.RESTR.norm>
0

>  <SCORE.SYSTEM>
0

>  <SCORE.SYSTEM.CONST>
0

>  <SCORE.SYSTEM.DIHEDRAL>
0

>  <SCORE.SYSTEM.SOLV>
0

>  <SCORE.SYSTEM.norm>
0

>  <SCORE.heavy>
19

>  <SCORE.norm>
-0.889246

>  <RMSD>
14.843

$$$$
ligand
 OpenBabel11021811483D
libRbt.so/2013.1/901 2013/11/27
 19 21  0  0  0  0  0  0  0  0999 V2000
   27.9602   35.3332   45.3966 C   0  0  0  0  0  0  0  0  0  0  0  0
   26.7690   36.1129   45.1925 O   0  0  0  0  0  0  0  0  0  0  0  0
   29.0374   35.6826   44.3643 C   0  0  1  0  0  0  0  0  0  0  0  0
   30.2343   34.9485   44.6209 O   0  0  0  0  0  0  0  0  0  0  0  0
   28.6009   35.3375   42.9532 C   0  0  1  0  0  0  0  0  0  0  0  0
   28.9391   36.4297   42.0973 O   0  0  0  0  0  0  0  0  0  0  0  0
   29.4012   34.1237   42.5381 C   0  0  0  0  0  0  0  0  0  0  0  0
   30.5283   34.0362   43.5509 C   0  0  2  0  0  0  0  0  0  0  0  0
   29.0093   30.9124   47.3839 N   0  0  0  0  0  0  0  0  0  0  0  0
   28.7030   32.2055   47.1203 C   0  0  2  0  0  0  0  0  0  0  0  0
   27.8610   32.8811   47.9306 N   0  0  0  0  0  0  0  0  0  0  0  0
   29.2202   32.8518   46.0542 N   0  0  0  0  0  0  0  0  0  0  0  0
   30.0672   32.2399   45.2019 C   0  0  1  0  0  0  0  0  0  0  0  0
   30.4270   30.9282   45.4095 C   0  0  1  0  0  0  0  0  0  0  0  0
   29.8507   30.2273   46.5834 C   0  0  0  0  0  0  0  0  0  0  0  0
   30.1417   29.0354   46.8270 O   0  0  0  0  0  0  0  0  0  0  0  0
   31.2683   30.5743   44.4229 N   0  0  0  0  0  0  0  0  0  0  0  0
   31.4201   31.6561   43.6246 C   0  0  0  0  0  0  0  0  0  0  0  0
   30.6807   32.6664   44.1098 N   0  0  1  0  0  0  0  0  0  0  0  0
  1  2  1  0  0  0  0
  3  1  1  1  0  0  0
  3  4  1  0  0  0  0
  3  5  1  0  0  0  0
  5  6  1  6  0  0  0
  5  7  1  0  0  0  0
  7  8  1  0  0  0  0
  8  4  1  1  0  0  0
  8 19  1  0  0  0  0
  9 15  1  0  0  0  0
  9 10  1  0  0  0  0
 10 11  1  6  0  0  0
 10 12  1  0  0  0  0
 13 12  1  6  0  0  0
 13 14  1  0  0  0  0
 13 19  1  0  0  0  0
 14 15  1  6  0  0  0
 14 17  1  0  0  0  0
 15 16  2  0  0  0  0
 17 18  1  0  0  0  0
 19 18  1  6  0  0  0
M  END
>  <CHROM.1>
177.15960428,28.69759573,29.44344110,33.13449610,45.00383730,1.89147408,0.82680153
-0.73287452

>  <Name>
ligand

>  <RI>
0

>  <Rbt.Current_Directory>
/home/itssahil/PROJECTS/Mol_Feturizer/New_Systems/rnas/3SKL

>  <Rbt.Executable>
rbdock ($Id: //depot/dev/client3/rdock/2013.1/src/exe/rbdock.cxx#4 $)

>  <Rbt.Library>
libRbt.so (2013.1, Build901 2013/11/27)

>  <Rbt.Parameter_File>
/export/apps/rDock/src/rDock_2013.1_src/data/scripts/dock_solv.prm

>  <Rbt.Receptor>
prm/blind_docking_100.prm

>  <SCORE>
-16.9137

>  <SCORE.INTER>
-16.9406

>  <SCORE.INTER.CONST>
1

>  <SCORE.INTER.POLAR>
0

>  <SCORE.INTER.ROT>
2

>  <SCORE.INTER.SOLV>
12.5264

>  <SCORE.INTER.VDW>
-20.4025

>  <SCORE.INTER.norm>
-0.891609

>  <SCORE.INTRA>
0.0268831

>  <SCORE.INTRA.DIHEDRAL>
-0.294784

>  <SCORE.INTRA.DIHEDRAL.0>
1.50031

>  <SCORE.INTRA.POLAR>
0

>  <SCORE.INTRA.POLAR.0>
0

>  <SCORE.INTRA.REPUL>
0

>  <SCORE.INTRA.REPUL.0>
0

>  <SCORE.INTRA.SOLV>
1.00226

>  <SCORE.INTRA.SOLV.lig_0>
-37.9941

>  <SCORE.INTRA.VDW>
-0.326854

>  <SCORE.INTRA.VDW.0>
-0.964461

>  <SCORE.INTRA.norm>
0.0014149

>  <SCORE.RESTR>
0

>  <SCORE.RESTR.CAVITY>
0

>  <SCORE.RESTR.norm>
0

>  <SCORE.SYSTEM>
0

>  <SCORE.SYSTEM.CONST>
0

>  <SCORE.SYSTEM.DIHEDRAL>
0

>  <SCORE.SYSTEM.SOLV>
0

>  <SCORE.SYSTEM.norm>
0

>  <SCORE.heavy>
19

>  <SCORE.norm>
-0.890194

>  <RMSD>
14.848

$$$$
ligand
 OpenBabel11021811483D
libRbt.so/2013.1/901 2013/11/27
 19 21  0  0  0  0  0  0  0  0999 V2000
   24.0410   17.8232   43.6855 C   0  0  0  0  0  0  0  0  0  0  0  0
   23.4629   19.1367   43.5888 O   0  0  0  0  0  0  0  0  0  0  0  0
   24.1182   17.1469   42.3127 C   0  0  1  0  0  0  0  0  0  0  0  0
   25.0185   17.8506   41.4573 O   0  0  0  0  0  0  0  0  0  0  0  0
   24.6267   15.7213   42.4129 C   0  0  1  0  0  0  0  0  0  0  0  0
   23.8068   14.8917   41.5886 O   0  0  0  0  0  0  0  0  0  0  0  0
   26.0336   15.7245   41.8593 C   0  0  0  0  0  0  0  0  0  0  0  0
   26.1561   17.0424   41.1164 C   0  0  2  0  0  0  0  0  0  0  0  0
   28.7588   19.1502   45.0586 N   0  0  0  0  0  0  0  0  0  0  0  0
   27.5596   18.5206   45.0240 C   0  0  2  0  0  0  0  0  0  0  0  0
   26.8471   18.3573   46.1586 N   0  0  0  0  0  0  0  0  0  0  0  0
   27.0453   18.0414   43.8717 N   0  0  0  0  0  0  0  0  0  0  0  0
   27.7016   18.1680   42.7006 C   0  0  1  0  0  0  0  0  0  0  0  0
   28.9227   18.8005   42.6588 C   0  0  1  0  0  0  0  0  0  0  0  0
   29.4791   19.3214   43.9318 C   0  0  0  0  0  0  0  0  0  0  0  0
   30.5835   19.9083   43.9581 O   0  0  0  0  0  0  0  0  0  0  0  0
   29.3475   18.7849   41.3837 N   0  0  0  0  0  0  0  0  0  0  0  0
   28.3975   18.1520   40.6574 C   0  0  0  0  0  0  0  0  0  0  0  0
   27.3982   17.7788   41.4729 N   0  0  1  0  0  0  0  0  0  0  0  0
  1  2  1  0  0  0  0
  3  1  1  1  0  0  0
  3  4  1  0  0  0  0
  3  5  1  0  0  0  0
  5  6  1  6  0  0  0
  5  7  1  0  0  0  0
  7  8  1  0  0  0  0
  8  4  1  1  0  0  0
  8 19  1  0  0  0  0
  9 15  1  0  0  0  0
  9 10  1  0  0  0  0
 10 11  1  1  0  0  0
 10 12  1  0  0  0  0
 13 12  1  1  0  0  0
 13 14  1  0  0  0  0
 13 19  1  0  0  0  0
 14 15  1  1  0  0  0
 14 17  1  0  0  0  0
 15 16  2  0  0  0  0
 17 18  1  0  0  0  0
 19 18  1  1  0  0  0
M  END
>  <CHROM.1>
65.30343766,60.44661953,26.73151627,17.90097857,42.88864866,2.69939761,-0.33040265
-2.00108297

>  <Name>
ligand

>  <RI>
0

>  <Rbt.Current_Directory>
/home/itssahil/PROJECTS/Mol_Feturizer/New_Systems/rnas/3SKL

>  <Rbt.Executable>
rbdock ($Id: //depot/dev/client3/rdock/2013.1/src/exe/rbdock.cxx#4 $)

>  <Rbt.Library>
libRbt.so (2013.1, Build901 2013/11/27)

>  <Rbt.Parameter_File>
/export/apps/rDock/src/rDock_2013.1_src/data/scripts/dock_solv.prm

>  <Rbt.Receptor>
prm/blind_docking_80.prm

>  <SCORE>
-12.9413

>  <SCORE.INTER>
-12.3068

>  <SCORE.INTER.CONST>
1

>  <SCORE.INTER.POLAR>
0

>  <SCORE.INTER.ROT>
2

>  <SCORE.INTER.SOLV>
6.6106

>  <SCORE.INTER.VDW>
-15.3414

>  <SCORE.INTER.norm>
-0.647726

>  <SCORE.INTRA>
-0.634522

>  <SCORE.INTRA.DIHEDRAL>
-0.195503

>  <SCORE.INTRA.DIHEDRAL.0>
1.50031

>  <SCORE.INTRA.POLAR>
0

>  <SCORE.INTRA.POLAR.0>
0

>  <SCORE.INTRA.REPUL>
0

>  <SCORE.INTRA.REPUL.0>
0

>  <SCORE.INTRA.SOLV>
0.593367

>  <SCORE.INTRA.SOLV.lig_0>
-37.9941

>  <SCORE.INTRA.VDW>
-0.833454

>  <SCORE.INTRA.VDW.0>
-0.964461

>  <SCORE.INTRA.norm>
-0.0333959

>  <SCORE.RESTR>
0

>  <SCORE.RESTR.CAVITY>
0

>  <SCORE.RESTR.norm>
0

>  <SCORE.SYSTEM>
0

>  <SCORE.SYSTEM.CONST>
0

>  <SCORE.SYSTEM.DIHEDRAL>
0

>  <SCORE.SYSTEM.SOLV>
0

>  <SCORE.SYSTEM.norm>
0

>  <SCORE.heavy>
19

>  <SCORE.norm>
-0.681122

>  <RMSD>
14.850

$$$$
ligand
 OpenBabel11021811483D
libRbt.so/2013.1/901 2013/11/27
 19 21  0  0  0  0  0  0  0  0999 V2000
   27.9575   35.3015   45.3984 C   0  0  0  0  0  0  0  0  0  0  0  0
   26.7698   36.0917   45.2148 O   0  0  0  0  0  0  0  0  0  0  0  0
   29.0318   35.6641   44.3677 C   0  0  1  0  0  0  0  0  0  0  0  0
   30.2333   34.9357   44.6187 O   0  0  0  0  0  0  0  0  0  0  0  0
   28.5964   35.3255   42.9547 C   0  0  1  0  0  0  0  0  0  0  0  0
   28.9272   36.4253   42.1056 O   0  0  0  0  0  0  0  0  0  0  0  0
   29.4037   34.1194   42.5312 C   0  0  0  0  0  0  0  0  0  0  0  0
   30.5321   34.0322   43.5426 C   0  0  2  0  0  0  0  0  0  0  0  0
   29.0773   30.8915   47.3868 N   0  0  0  0  0  0  0  0  0  0  0  0
   28.7673   32.1861   47.1345 C   0  0  2  0  0  0  0  0  0  0  0  0
   27.9398   32.8583   47.9622 N   0  0  0  0  0  0  0  0  0  0  0  0
   29.2665   32.8370   46.0626 N   0  0  0  0  0  0  0  0  0  0  0  0
   30.0983   32.2285   45.1930 C   0  0  1  0  0  0  0  0  0  0  0  0
   30.4609   30.9157   45.3884 C   0  0  1  0  0  0  0  0  0  0  0  0
   29.9044   30.2097   46.5688 C   0  0  0  0  0  0  0  0  0  0  0  0
   30.1988   29.0166   46.8019 O   0  0  0  0  0  0  0  0  0  0  0  0
   31.2848   30.5659   44.3859 N   0  0  0  0  0  0  0  0  0  0  0  0
   31.4236   31.6513   43.5900 C   0  0  0  0  0  0  0  0  0  0  0  0
   30.6932   32.6597   44.0926 N   0  0  1  0  0  0  0  0  0  0  0  0
  1  2  1  0  0  0  0
  3  1  1  1  0  0  0
  3  4  1  0  0  0  0
  3  5  1  0  0  0  0
  5  6  1  6  0  0  0
  5  7  1  0  0  0  0
  7  8  1  0  0  0  0
  8  4  1  1  0  0  0
  8 19  1  0  0  0  0
  9 15  1  0  0  0  0
  9 10  1  0  0  0  0
 10 11  1  6  0  0  0
 10 12  1  0  0  0  0
 13 12  1  6  0  0  0
 13 14  1  0  0  0  0
 13 19  1  0  0  0  0
 14 15  1  6  0  0  0
 14 17  1  0  0  0  0
 15 16  2  0  0  0  0
 17 18  1  0  0  0  0
 19 18  1  6  0  0  0
M  END
>  <CHROM.1>
176.14859986,27.67283914,29.46635669,33.12035397,45.00001587,1.90820009,0.83456821
-0.74504305

>  <Name>
ligand

>  <RI>
0

>  <Rbt.Current_Directory>
/home/itssahil/PROJECTS/Mol_Feturizer/New_Systems/rnas/3SKL

>  <Rbt.Executable>
rbdock ($Id: //depot/dev/client3/rdock/2013.1/src/exe/rbdock.cxx#4 $)

>  <Rbt.Library>
libRbt.so (2013.1, Build901 2013/11/27)

>  <Rbt.Parameter_File>
/export/apps/rDock/src/rDock_2013.1_src/data/scripts/dock_solv.prm

>  <Rbt.Receptor>
prm/blind_docking_100.prm

>  <SCORE>
-16.8637

>  <SCORE.INTER>
-16.8855

>  <SCORE.INTER.CONST>
1

>  <SCORE.INTER.POLAR>
0

>  <SCORE.INTER.ROT>
2

>  <SCORE.INTER.SOLV>
12.5949

>  <SCORE.INTER.VDW>
-20.3886

>  <SCORE.INTER.norm>
-0.888711

>  <SCORE.INTRA>
0.0218141

>  <SCORE.INTRA.DIHEDRAL>
-0.270596

>  <SCORE.INTRA.DIHEDRAL.0>
1.50031

>  <SCORE.INTRA.POLAR>
0

>  <SCORE.INTRA.POLAR.0>
0

>  <SCORE.INTRA.REPUL>
0

>  <SCORE.INTRA.REPUL.0>
0

>  <SCORE.INTRA.SOLV>
0.980702

>  <SCORE.INTRA.SOLV.lig_0>
-37.9941

>  <SCORE.INTRA.VDW>
-0.333239

>  <SCORE.INTRA.VDW.0>
-0.964461

>  <SCORE.INTRA.norm>
0.00114811

>  <SCORE.RESTR>
0

>  <SCORE.RESTR.CAVITY>
0

>  <SCORE.RESTR.norm>
0

>  <SCORE.SYSTEM>
0

>  <SCORE.SYSTEM.CONST>
0

>  <SCORE.SYSTEM.DIHEDRAL>
0

>  <SCORE.SYSTEM.SOLV>
0

>  <SCORE.SYSTEM.norm>
0

>  <SCORE.heavy>
19

>  <SCORE.norm>
-0.887563

>  <RMSD>
14.859

$$$$
ligand
 OpenBabel11021811483D
libRbt.so/2013.1/901 2013/11/27
 19 21  0  0  0  0  0  0  0  0999 V2000
   28.4608   17.3488   42.0751 C   0  0  0  0  0  0  0  0  0  0  0  0
   29.8275   17.6244   42.4287 O   0  0  0  0  0  0  0  0  0  0  0  0
   27.4875   18.1188   42.9739 C   0  0  1  0  0  0  0  0  0  0  0  0
   26.1371   17.8384   42.6062 O   0  0  0  0  0  0  0  0  0  0  0  0
   27.6382   17.7312   44.4326 C   0  0  1  0  0  0  0  0  0  0  0  0
   27.6333   18.9238   45.2184 O   0  0  0  0  0  0  0  0  0  0  0  0
   26.4227   16.9052   44.7879 C   0  0  0  0  0  0  0  0  0  0  0  0
   25.4385   17.1568   43.6602 C   0  0  2  0  0  0  0  0  0  0  0  0
   21.0590   14.9629   41.9976 N   0  0  0  0  0  0  0  0  0  0  0  0
   21.2998   16.2053   42.4814 C   0  0  2  0  0  0  0  0  0  0  0  0
   20.2947   17.1009   42.5790 N   0  0  0  0  0  0  0  0  0  0  0  0
   22.5342   16.5843   42.8746 N   0  0  0  0  0  0  0  0  0  0  0  0
   23.5854   15.7428   42.8048 C   0  0  1  0  0  0  0  0  0  0  0  0
   23.4147   14.4634   42.3283 C   0  0  1  0  0  0  0  0  0  0  0  0
   22.0540   14.0585   41.8970 C   0  0  0  0  0  0  0  0  0  0  0  0
   21.8347   12.9081   41.4575 O   0  0  0  0  0  0  0  0  0  0  0  0
   24.6103   13.8504   42.3660 N   0  0  0  0  0  0  0  0  0  0  0  0
   25.4982   14.7440   42.8598 C   0  0  0  0  0  0  0  0  0  0  0  0
   24.8607   15.8962   43.1226 N   0  0  1  0  0  0  0  0  0  0  0  0
  1  2  1  0  0  0  0
  3  1  1  6  0  0  0
  3  4  1  0  0  0  0
  3  5  1  0  0  0  0
  5  6  1  1  0  0  0
  5  7  1  0  0  0  0
  7  8  1  0  0  0  0
  8  4  1  6  0  0  0
  8 19  1  0  0  0  0
  9 15  1  0  0  0  0
  9 10  1  0  0  0  0
 10 11  1  6  0  0  0
 10 12  1  0  0  0  0
 13 12  1  6  0  0  0
 13 14  1  0  0  0  0
 13 19  1  0  0  0  0
 14 15  1  6  0  0  0
 14 17  1  0  0  0  0
 15 16  2  0  0  0  0
 17 18  1  0  0  0  0
 19 18  1  6  0  0  0
M  END
>  <CHROM.1>
179.76432642,-102.16587933,24.82745590,16.26624694,42.90028953,-0.47879617
-0.01399479,-2.68921104

>  <Name>
ligand

>  <RI>
0

>  <Rbt.Current_Directory>
/home/itssahil/PROJECTS/Mol_Feturizer/New_Systems/rnas/3SKL

>  <Rbt.Executable>
rbdock ($Id: //depot/dev/client3/rdock/2013.1/src/exe/rbdock.cxx#4 $)

>  <Rbt.Library>
libRbt.so (2013.1, Build901 2013/11/27)

>  <Rbt.Parameter_File>
/export/apps/rDock/src/rDock_2013.1_src/data/scripts/dock_solv.prm

>  <Rbt.Receptor>
prm/blind_docking_60.prm

>  <SCORE>
-13.4991

>  <SCORE.INTER>
-13.1912

>  <SCORE.INTER.CONST>
1

>  <SCORE.INTER.POLAR>
0

>  <SCORE.INTER.ROT>
2

>  <SCORE.INTER.SOLV>
8.77811

>  <SCORE.INTER.VDW>
-16.6535

>  <SCORE.INTER.norm>
-0.694276

>  <SCORE.INTRA>
-0.307815

>  <SCORE.INTRA.DIHEDRAL>
-0.317812

>  <SCORE.INTRA.DIHEDRAL.0>
1.50031

>  <SCORE.INTRA.POLAR>
0

>  <SCORE.INTRA.POLAR.0>
0

>  <SCORE.INTRA.REPUL>
0

>  <SCORE.INTRA.REPUL.0>
0

>  <SCORE.INTRA.SOLV>
-0.455892

>  <SCORE.INTRA.SOLV.lig_0>
-37.9941

>  <SCORE.INTRA.VDW>
0.0790364

>  <SCORE.INTRA.VDW.0>
-0.964461

>  <SCORE.INTRA.norm>
-0.0162008

>  <SCORE.RESTR>
0

>  <SCORE.RESTR.CAVITY>
0

>  <SCORE.RESTR.norm>
0

>  <SCORE.SYSTEM>
0

>  <SCORE.SYSTEM.CONST>
0

>  <SCORE.SYSTEM.DIHEDRAL>
0

>  <SCORE.SYSTEM.SOLV>
0

>  <SCORE.SYSTEM.norm>
0

>  <SCORE.heavy>
19

>  <SCORE.norm>
-0.710477

>  <RMSD>
15.012

$$$$
ligand
 OpenBabel11021811483D
libRbt.so/2013.1/901 2013/11/27
 19 21  0  0  0  0  0  0  0  0999 V2000
    6.1552   26.1512   41.2714 C   0  0  0  0  0  0  0  0  0  0  0  0
    7.5681   26.1249   41.0033 O   0  0  0  0  0  0  0  0  0  0  0  0
    5.3447   25.8004   40.0193 C   0  0  1  0  0  0  0  0  0  0  0  0
    5.7146   24.5124   39.5275 O   0  0  0  0  0  0  0  0  0  0  0  0
    3.8557   25.7538   40.3047 C   0  0  1  0  0  0  0  0  0  0  0  0
    3.1738   26.4385   39.2529 O   0  0  0  0  0  0  0  0  0  0  0  0
    3.4564   24.2958   40.2797 C   0  0  0  0  0  0  0  0  0  0  0  0
    4.6210   23.5850   39.6148 C   0  0  2  0  0  0  0  0  0  0  0  0
    5.9810   21.9120   44.3168 N   0  0  0  0  0  0  0  0  0  0  0  0
    5.6240   23.1452   43.8838 C   0  0  2  0  0  0  0  0  0  0  0  0
    5.5763   24.1797   44.7494 N   0  0  0  0  0  0  0  0  0  0  0  0
    5.3074   23.3771   42.5923 N   0  0  0  0  0  0  0  0  0  0  0  0
    5.3327   22.3915   41.6725 C   0  0  1  0  0  0  0  0  0  0  0  0
    5.6905   21.1146   42.0391 C   0  0  1  0  0  0  0  0  0  0  0  0
    6.0345   20.8709   43.4617 C   0  0  0  0  0  0  0  0  0  0  0  0
    6.3702   19.7323   43.8558 O   0  0  0  0  0  0  0  0  0  0  0  0
    5.6301   20.3421   40.9408 N   0  0  0  0  0  0  0  0  0  0  0  0
    5.2413   21.1378   39.9178 C   0  0  0  0  0  0  0  0  0  0  0  0
    5.0615   22.3865   40.3774 N   0  0  1  0  0  0  0  0  0  0  0  0
  1  2  1  0  0  0  0
  3  1  1  1  0  0  0
  3  4  1  0  0  0  0
  3  5  1  0  0  0  0
  5  6  1  6  0  0  0
  5  7  1  0  0  0  0
  7  8  1  0  0  0  0
  8  4  1  1  0  0  0
  8 19  1  0  0  0  0
  9 15  1  0  0  0  0
  9 10  1  0  0  0  0
 10 11  1  1  0  0  0
 10 12  1  0  0  0  0
 13 12  1  1  0  0  0
 13 14  1  0  0  0  0
 13 19  1  0  0  0  0
 14 15  1  1  0  0  0
 14 17  1  0  0  0  0
 15 16  2  0  0  0  0
 17 18  1  0  0  0  0
 19 18  1  1  0  0  0
M  END
>  <CHROM.1>
57.96980831,68.95716699,5.36504113,23.39750381,41.50373193,-2.14830081,1.19499035
3.07821083

>  <Name>
ligand

>  <RI>
0

>  <Rbt.Current_Directory>
/home/itssahil/PROJECTS/Mol_Feturizer/New_Systems/rnas/3SKL

>  <Rbt.Executable>
rbdock ($Id: //depot/dev/client3/rdock/2013.1/src/exe/rbdock.cxx#4 $)

>  <Rbt.Library>
libRbt.so (2013.1, Build901 2013/11/27)

>  <Rbt.Parameter_File>
/export/apps/rDock/src/rDock_2013.1_src/data/scripts/dock_solv.prm

>  <Rbt.Receptor>
prm/blind_docking_60.prm

>  <SCORE>
-8.36709

>  <SCORE.INTER>
-7.65994

>  <SCORE.INTER.CONST>
1

>  <SCORE.INTER.POLAR>
0

>  <SCORE.INTER.ROT>
2

>  <SCORE.INTER.SOLV>
2.44144

>  <SCORE.INTER.VDW>
-10.8538

>  <SCORE.INTER.norm>
-0.403155

>  <SCORE.INTRA>
-0.707149

>  <SCORE.INTRA.DIHEDRAL>
-0.273131

>  <SCORE.INTRA.DIHEDRAL.0>
1.50031

>  <SCORE.INTRA.POLAR>
0

>  <SCORE.INTRA.POLAR.0>
0

>  <SCORE.INTRA.REPUL>
0

>  <SCORE.INTRA.REPUL.0>
0

>  <SCORE.INTRA.SOLV>
0.291072

>  <SCORE.INTRA.SOLV.lig_0>
-37.9941

>  <SCORE.INTRA.VDW>
-0.71612

>  <SCORE.INTRA.VDW.0>
-0.964461

>  <SCORE.INTRA.norm>
-0.0372184

>  <SCORE.RESTR>
0

>  <SCORE.RESTR.CAVITY>
0

>  <SCORE.RESTR.norm>
0

>  <SCORE.SYSTEM>
0

>  <SCORE.SYSTEM.CONST>
0

>  <SCORE.SYSTEM.DIHEDRAL>
0

>  <SCORE.SYSTEM.SOLV>
0

>  <SCORE.SYSTEM.norm>
0

>  <SCORE.heavy>
19

>  <SCORE.norm>
-0.440373

>  <RMSD>
15.024

$$$$
ligand
 OpenBabel11021811483D
libRbt.so/2013.1/901 2013/11/27
 19 21  0  0  0  0  0  0  0  0999 V2000
   29.4644   17.2621   41.7475 C   0  0  0  0  0  0  0  0  0  0  0  0
   28.8686   16.1932   42.5034 O   0  0  0  0  0  0  0  0  0  0  0  0
   29.0766   18.6303   42.3180 C   0  0  1  0  0  0  0  0  0  0  0  0
   27.6610   18.8085   42.2744 O   0  0  0  0  0  0  0  0  0  0  0  0
   29.4962   18.7775   43.7682 C   0  0  1  0  0  0  0  0  0  0  0  0
   30.0889   20.0659   43.9371 O   0  0  0  0  0  0  0  0  0  0  0  0
   28.2311   18.7081   44.5933 C   0  0  0  0  0  0  0  0  0  0  0  0
   27.1048   18.9058   43.5952 C   0  0  2  0  0  0  0  0  0  0  0  0
   24.2803   15.4242   41.0149 N   0  0  0  0  0  0  0  0  0  0  0  0
   25.2355   16.2840   40.5860 C   0  0  2  0  0  0  0  0  0  0  0  0
   25.5888   16.3094   39.2836 N   0  0  0  0  0  0  0  0  0  0  0  0
   25.8577   17.1303   41.4337 N   0  0  0  0  0  0  0  0  0  0  0  0
   25.5564   17.1596   42.7477 C   0  0  1  0  0  0  0  0  0  0  0  0
   24.5928   16.3179   43.2537 C   0  0  1  0  0  0  0  0  0  0  0  0
   23.9170   15.3906   42.3130 C   0  0  0  0  0  0  0  0  0  0  0  0
   23.0307   14.6034   42.7120 O   0  0  0  0  0  0  0  0  0  0  0  0
   24.4968   16.5533   44.5735 N   0  0  0  0  0  0  0  0  0  0  0  0
   25.3895   17.5264   44.8683 C   0  0  0  0  0  0  0  0  0  0  0  0
   26.0314   17.8874   43.7455 N   0  0  1  0  0  0  0  0  0  0  0  0
  1  2  1  0  0  0  0
  3  1  1  1  0  0  0
  3  4  1  0  0  0  0
  3  5  1  0  0  0  0
  5  6  1  6  0  0  0
  5  7  1  0  0  0  0
  7  8  1  0  0  0  0
  8  4  1  6  0  0  0
  8 19  1  0  0  0  0
  9 15  1  0  0  0  0
  9 10  1  0  0  0  0
 10 11  1  1  0  0  0
 10 12  1  0  0  0  0
 13 12  1  1  0  0  0
 13 14  1  0  0  0  0
 13 19  1  0  0  0  0
 14 15  1  1  0  0  0
 14 17  1  0  0  0  0
 15 16  2  0  0  0  0
 17 18  1  0  0  0  0
 19 18  1  1  0  0  0
M  END
>  <CHROM.1>
-60.51204806,-8.94339185,26.58963171,17.27534306,42.69515167,-0.40838644
-0.45995243,-1.94599460

>  <Name>
ligand

>  <RI>
0

>  <Rbt.Current_Directory>
/home/itssahil/PROJECTS/Mol_Feturizer/New_Systems/rnas/3SKL

>  <Rbt.Executable>
rbdock ($Id: //depot/dev/client3/rdock/2013.1/src/exe/rbdock.cxx#4 $)

>  <Rbt.Library>
libRbt.so (2013.1, Build901 2013/11/27)

>  <Rbt.Parameter_File>
/export/apps/rDock/src/rDock_2013.1_src/data/scripts/dock_solv.prm

>  <Rbt.Receptor>
prm/blind_docking_100.prm

>  <SCORE>
-12.58

>  <SCORE.INTER>
-12.1716

>  <SCORE.INTER.CONST>
1

>  <SCORE.INTER.POLAR>
0

>  <SCORE.INTER.ROT>
2

>  <SCORE.INTER.SOLV>
7.10458

>  <SCORE.INTER.VDW>
-15.4159

>  <SCORE.INTER.norm>
-0.64061

>  <SCORE.INTRA>
-0.408408

>  <SCORE.INTRA.DIHEDRAL>
-0.285705

>  <SCORE.INTRA.DIHEDRAL.0>
1.50031

>  <SCORE.INTRA.POLAR>
0

>  <SCORE.INTRA.POLAR.0>
0

>  <SCORE.INTRA.REPUL>
0

>  <SCORE.INTRA.REPUL.0>
0

>  <SCORE.INTRA.SOLV>
0.144407

>  <SCORE.INTRA.SOLV.lig_0>
-37.9941

>  <SCORE.INTRA.VDW>
-0.337759

>  <SCORE.INTRA.VDW.0>
-0.964461

>  <SCORE.INTRA.norm>
-0.0214952

>  <SCORE.RESTR>
0

>  <SCORE.RESTR.CAVITY>
0

>  <SCORE.RESTR.norm>
0

>  <SCORE.SYSTEM>
0

>  <SCORE.SYSTEM.CONST>
0

>  <SCORE.SYSTEM.DIHEDRAL>
0

>  <SCORE.SYSTEM.SOLV>
0

>  <SCORE.SYSTEM.norm>
0

>  <SCORE.heavy>
19

>  <SCORE.norm>
-0.662105

>  <RMSD>
15.029

$$$$
ligand
 OpenBabel11021811483D
libRbt.so/2013.1/901 2013/11/27
 19 21  0  0  0  0  0  0  0  0999 V2000
   21.9689   14.6084   41.3922 C   0  0  0  0  0  0  0  0  0  0  0  0
   22.1822   13.1947   41.5490 O   0  0  0  0  0  0  0  0  0  0  0  0
   21.3528   15.2214   42.6543 C   0  0  1  0  0  0  0  0  0  0  0  0
   22.2378   15.0773   43.7648 O   0  0  0  0  0  0  0  0  0  0  0  0
   21.0876   16.7058   42.4899 C   0  0  1  0  0  0  0  0  0  0  0  0
   19.7875   16.9911   43.0077 O   0  0  0  0  0  0  0  0  0  0  0  0
   22.1184   17.4245   43.3306 C   0  0  0  0  0  0  0  0  0  0  0  0
   22.6930   16.3541   44.2404 C   0  0  2  0  0  0  0  0  0  0  0  0
   26.8870   16.1287   41.2210 N   0  0  0  0  0  0  0  0  0  0  0  0
   25.5689   16.0725   40.9127 C   0  0  2  0  0  0  0  0  0  0  0  0
   25.1787   15.9446   39.6270 N   0  0  0  0  0  0  0  0  0  0  0  0
   24.6159   16.1429   41.8660 N   0  0  0  0  0  0  0  0  0  0  0  0
   24.9321   16.2717   43.1704 C   0  0  1  0  0  0  0  0  0  0  0  0
   26.2509   16.3305   43.5583 C   0  0  1  0  0  0  0  0  0  0  0  0
   27.2897   16.2542   42.5017 C   0  0  0  0  0  0  0  0  0  0  0  0
   28.5057   16.2994   42.7914 O   0  0  0  0  0  0  0  0  0  0  0  0
   26.2780   16.4590   44.8959 N   0  0  0  0  0  0  0  0  0  0  0  0
   24.9927   16.4774   45.3183 C   0  0  0  0  0  0  0  0  0  0  0  0
   24.1802   16.3638   44.2553 N   0  0  1  0  0  0  0  0  0  0  0  0
  1  2  1  0  0  0  0
  3  1  1  6  0  0  0
  3  4  1  0  0  0  0
  3  5  1  0  0  0  0
  5  6  1  1  0  0  0
  5  7  1  0  0  0  0
  7  8  1  0  0  0  0
  8  4  1  6  0  0  0
  8 19  1  0  0  0  0
  9 15  1  0  0  0  0
  9 10  1  0  0  0  0
 10 11  1  6  0  0  0
 10 12  1  0  0  0  0
 13 12  1  6  0  0  0
 13 14  1  0  0  0  0
 13 19  1  0  0  0  0
 14 15  1  6  0  0  0
 14 17  1  0  0  0  0
 15 16  2  0  0  0  0
 17 18  1  0  0  0  0
 19 18  1  6  0  0  0
M  END
>  <CHROM.1>
62.45522813,64.63795693,24.04460449,15.98685970,42.74934429,-3.13261266,0.08581019
1.20204122

>  <Name>
ligand

>  <RI>
0

>  <Rbt.Current_Directory>
/home/itssahil/PROJECTS/Mol_Feturizer/New_Systems/rnas/3SKL

>  <Rbt.Executable>
rbdock ($Id: //depot/dev/client3/rdock/2013.1/src/exe/rbdock.cxx#4 $)

>  <Rbt.Library>
libRbt.so (2013.1, Build901 2013/11/27)

>  <Rbt.Parameter_File>
/export/apps/rDock/src/rDock_2013.1_src/data/scripts/dock_solv.prm

>  <Rbt.Receptor>
prm/blind_docking_100.prm

>  <SCORE>
-13.0098

>  <SCORE.INTER>
-12.3001

>  <SCORE.INTER.CONST>
1

>  <SCORE.INTER.POLAR>
0

>  <SCORE.INTER.ROT>
2

>  <SCORE.INTER.SOLV>
8.26141

>  <SCORE.INTER.VDW>
-15.8872

>  <SCORE.INTER.norm>
-0.647376

>  <SCORE.INTRA>
-0.709694

>  <SCORE.INTRA.DIHEDRAL>
-0.270208

>  <SCORE.INTRA.DIHEDRAL.0>
1.50031

>  <SCORE.INTRA.POLAR>
0

>  <SCORE.INTRA.POLAR.0>
0

>  <SCORE.INTRA.REPUL>
0

>  <SCORE.INTRA.REPUL.0>
0

>  <SCORE.INTRA.SOLV>
0.447992

>  <SCORE.INTRA.SOLV.lig_0>
-37.9941

>  <SCORE.INTRA.VDW>
-0.798586

>  <SCORE.INTRA.VDW.0>
-0.964461

>  <SCORE.INTRA.norm>
-0.0373523

>  <SCORE.RESTR>
0

>  <SCORE.RESTR.CAVITY>
0

>  <SCORE.RESTR.norm>
0

>  <SCORE.SYSTEM>
0

>  <SCORE.SYSTEM.CONST>
0

>  <SCORE.SYSTEM.DIHEDRAL>
0

>  <SCORE.SYSTEM.SOLV>
0

>  <SCORE.SYSTEM.norm>
0

>  <SCORE.heavy>
19

>  <SCORE.norm>
-0.684728

>  <RMSD>
15.065

$$$$
ligand
 OpenBabel11021811483D
libRbt.so/2013.1/901 2013/11/27
 19 21  0  0  0  0  0  0  0  0999 V2000
   22.6632   16.0059   43.2369 C   0  0  0  0  0  0  0  0  0  0  0  0
   21.4764   16.1572   42.4388 O   0  0  0  0  0  0  0  0  0  0  0  0
   22.6954   17.0212   44.3841 C   0  0  1  0  0  0  0  0  0  0  0  0
   23.8596   16.8324   45.1881 O   0  0  0  0  0  0  0  0  0  0  0  0
   22.7372   18.4491   43.8739 C   0  0  1  0  0  0  0  0  0  0  0  0
   21.8095   19.2259   44.6327 O   0  0  0  0  0  0  0  0  0  0  0  0
   24.1353   18.9611   44.1369 C   0  0  0  0  0  0  0  0  0  0  0  0
   24.7342   17.9697   45.1179 C   0  0  2  0  0  0  0  0  0  0  0  0
   27.4013   15.8164   41.2439 N   0  0  0  0  0  0  0  0  0  0  0  0
   26.0843   16.1141   41.3552 C   0  0  2  0  0  0  0  0  0  0  0  0
   25.2416   15.8510   40.3342 N   0  0  0  0  0  0  0  0  0  0  0  0
   25.5782   16.6768   42.4729 N   0  0  0  0  0  0  0  0  0  0  0  0
   26.3607   16.9679   43.5317 C   0  0  1  0  0  0  0  0  0  0  0  0
   27.7074   16.6889   43.4919 C   0  0  1  0  0  0  0  0  0  0  0  0
   28.2529   16.0724   42.2575 C   0  0  0  0  0  0  0  0  0  0  0  0
   29.4683   15.7927   42.1617 O   0  0  0  0  0  0  0  0  0  0  0  0
   28.2400   17.0775   44.6632 N   0  0  0  0  0  0  0  0  0  0  0  0
   27.2311   17.5859   45.4078 C   0  0  0  0  0  0  0  0  0  0  0  0
   26.0889   17.5148   44.7055 N   0  0  1  0  0  0  0  0  0  0  0  0
  1  2  1  0  0  0  0
  3  1  1  6  0  0  0
  3  4  1  0  0  0  0
  3  5  1  0  0  0  0
  5  6  1  1  0  0  0
  5  7  1  0  0  0  0
  7  8  1  0  0  0  0
  8  4  1  6  0  0  0
  8 19  1  0  0  0  0
  9 15  1  0  0  0  0
  9 10  1  0  0  0  0
 10 11  1  6  0  0  0
 10 12  1  0  0  0  0
 13 12  1  6  0  0  0
 13 14  1  0  0  0  0
 13 19  1  0  0  0  0
 14 15  1  6  0  0  0
 14 17  1  0  0  0  0
 15 16  2  0  0  0  0
 17 18  1  0  0  0  0
 19 18  1  6  0  0  0
M  END
>  <CHROM.1>
178.34085062,64.18638730,25.27372192,16.99116761,43.40346145,2.79494094,-0.09125070
1.04829184

>  <Name>
ligand

>  <RI>
0

>  <Rbt.Current_Directory>
/home/itssahil/PROJECTS/Mol_Feturizer/New_Systems/rnas/3SKL

>  <Rbt.Executable>
rbdock ($Id: //depot/dev/client3/rdock/2013.1/src/exe/rbdock.cxx#4 $)

>  <Rbt.Library>
libRbt.so (2013.1, Build901 2013/11/27)

>  <Rbt.Parameter_File>
/export/apps/rDock/src/rDock_2013.1_src/data/scripts/dock_solv.prm

>  <Rbt.Receptor>
prm/blind_docking_60.prm

>  <SCORE>
-12.5764

>  <SCORE.INTER>
-12.0032

>  <SCORE.INTER.CONST>
1

>  <SCORE.INTER.POLAR>
0

>  <SCORE.INTER.ROT>
2

>  <SCORE.INTER.SOLV>
8.34612

>  <SCORE.INTER.VDW>
-15.7175

>  <SCORE.INTER.norm>
-0.631749

>  <SCORE.INTRA>
-0.573222

>  <SCORE.INTRA.DIHEDRAL>
-0.283851

>  <SCORE.INTRA.DIHEDRAL.0>
1.50031

>  <SCORE.INTRA.POLAR>
0

>  <SCORE.INTRA.POLAR.0>
0

>  <SCORE.INTRA.REPUL>
0

>  <SCORE.INTRA.REPUL.0>
0

>  <SCORE.INTRA.SOLV>
0.553168

>  <SCORE.INTRA.SOLV.lig_0>
-37.9941

>  <SCORE.INTRA.VDW>
-0.70788

>  <SCORE.INTRA.VDW.0>
-0.964461

>  <SCORE.INTRA.norm>
-0.0301696

>  <SCORE.RESTR>
0

>  <SCORE.RESTR.CAVITY>
0

>  <SCORE.RESTR.norm>
0

>  <SCORE.SYSTEM>
0

>  <SCORE.SYSTEM.CONST>
0

>  <SCORE.SYSTEM.DIHEDRAL>
0

>  <SCORE.SYSTEM.SOLV>
0

>  <SCORE.SYSTEM.norm>
0

>  <SCORE.heavy>
19

>  <SCORE.norm>
-0.661918

>  <RMSD>
15.121

$$$$
ligand
 OpenBabel11021811483D
libRbt.so/2013.1/901 2013/11/27
 19 21  0  0  0  0  0  0  0  0999 V2000
   24.8261   15.1134   42.3167 C   0  0  0  0  0  0  0  0  0  0  0  0
   25.5139   13.8567   42.4439 O   0  0  0  0  0  0  0  0  0  0  0  0
   24.8008   15.8711   43.6483 C   0  0  1  0  0  0  0  0  0  0  0  0
   26.1185   16.2736   44.0211 O   0  0  0  0  0  0  0  0  0  0  0  0
   23.9603   17.1311   43.5656 C   0  0  1  0  0  0  0  0  0  0  0  0
   23.1402   17.2030   44.7327 O   0  0  0  0  0  0  0  0  0  0  0  0
   24.9252   18.2952   43.5723 C   0  0  0  0  0  0  0  0  0  0  0  0
   26.2438   17.7045   44.0372 C   0  0  2  0  0  0  0  0  0  0  0  0
   27.8224   17.9511   39.1173 N   0  0  0  0  0  0  0  0  0  0  0  0
   26.6664   17.4932   39.6553 C   0  0  2  0  0  0  0  0  0  0  0  0
   25.6940   17.0052   38.8565 N   0  0  0  0  0  0  0  0  0  0  0  0
   26.4505   17.5107   40.9876 N   0  0  0  0  0  0  0  0  0  0  0  0
   27.3767   17.9844   41.8455 C   0  0  1  0  0  0  0  0  0  0  0  0
   28.5768   18.4614   41.3710 C   0  0  1  0  0  0  0  0  0  0  0  0
   28.8022   18.4392   39.9046 C   0  0  0  0  0  0  0  0  0  0  0  0
   29.8739   18.8565   39.4127 O   0  0  0  0  0  0  0  0  0  0  0  0
   29.3018   18.8669   42.4276 N   0  0  0  0  0  0  0  0  0  0  0  0
   28.5539   18.6393   43.5320 C   0  0  0  0  0  0  0  0  0  0  0  0
   27.3801   18.1016   43.1635 N   0  0  1  0  0  0  0  0  0  0  0  0
  1  2  1  0  0  0  0
  3  1  1  6  0  0  0
  3  4  1  0  0  0  0
  3  5  1  0  0  0  0
  5  6  1  1  0  0  0
  5  7  1  0  0  0  0
  7  8  1  0  0  0  0
  8  4  1  6  0  0  0
  8 19  1  0  0  0  0
  9 15  1  0  0  0  0
  9 10  1  0  0  0  0
 10 11  1  6  0  0  0
 10 12  1  0  0  0  0
 13 12  1  6  0  0  0
 13 14  1  0  0  0  0
 13 19  1  0  0  0  0
 14 15  1  6  0  0  0
 14 17  1  0  0  0  0
 15 16  2  0  0  0  0
 17 18  1  0  0  0  0
 19 18  1  6  0  0  0
M  END
>  <CHROM.1>
66.65893351,68.90775235,26.58483618,17.35730895,42.06118960,2.63856148,0.63882306
1.26916713

>  <Name>
ligand

>  <RI>
0

>  <Rbt.Current_Directory>
/home/itssahil/PROJECTS/Mol_Feturizer/New_Systems/rnas/3SKL

>  <Rbt.Executable>
rbdock ($Id: //depot/dev/client3/rdock/2013.1/src/exe/rbdock.cxx#4 $)

>  <Rbt.Library>
libRbt.so (2013.1, Build901 2013/11/27)

>  <Rbt.Parameter_File>
/export/apps/rDock/src/rDock_2013.1_src/data/scripts/dock_solv.prm

>  <Rbt.Receptor>
prm/blind_docking_60.prm

>  <SCORE>
-14.798

>  <SCORE.INTER>
-14.1702

>  <SCORE.INTER.CONST>
1

>  <SCORE.INTER.POLAR>
0

>  <SCORE.INTER.ROT>
2

>  <SCORE.INTER.SOLV>
8.03011

>  <SCORE.INTER.VDW>
-17.0568

>  <SCORE.INTER.norm>
-0.745798

>  <SCORE.INTRA>
-0.62782

>  <SCORE.INTRA.DIHEDRAL>
-0.126763

>  <SCORE.INTRA.DIHEDRAL.0>
1.50031

>  <SCORE.INTRA.POLAR>
0

>  <SCORE.INTRA.POLAR.0>
0

>  <SCORE.INTRA.REPUL>
0

>  <SCORE.INTRA.REPUL.0>
0

>  <SCORE.INTRA.SOLV>
0.247955

>  <SCORE.INTRA.SOLV.lig_0>
-37.9941

>  <SCORE.INTRA.VDW>
-0.688416

>  <SCORE.INTRA.VDW.0>
-0.964461

>  <SCORE.INTRA.norm>
-0.0330432

>  <SCORE.RESTR>
0

>  <SCORE.RESTR.CAVITY>
0

>  <SCORE.RESTR.norm>
0

>  <SCORE.SYSTEM>
0

>  <SCORE.SYSTEM.CONST>
0

>  <SCORE.SYSTEM.DIHEDRAL>
0

>  <SCORE.SYSTEM.SOLV>
0

>  <SCORE.SYSTEM.norm>
0

>  <SCORE.heavy>
19

>  <SCORE.norm>
-0.778841

>  <RMSD>
15.123

$$$$
ligand
 OpenBabel11021811483D
libRbt.so/2013.1/901 2013/11/27
 19 21  0  0  0  0  0  0  0  0999 V2000
   26.2259   17.4451   44.0148 C   0  0  0  0  0  0  0  0  0  0  0  0
   25.9278   18.4891   43.0714 O   0  0  0  0  0  0  0  0  0  0  0  0
   27.7338   17.3342   44.2638 C   0  0  1  0  0  0  0  0  0  0  0  0
   28.4011   16.8583   43.0952 O   0  0  0  0  0  0  0  0  0  0  0  0
   28.3498   18.6767   44.6089 C   0  0  1  0  0  0  0  0  0  0  0  0
   29.2342   18.4954   45.7155 O   0  0  0  0  0  0  0  0  0  0  0  0
   29.1551   19.1053   43.4031 C   0  0  0  0  0  0  0  0  0  0  0  0
   29.2932   17.8496   42.5616 C   0  0  2  0  0  0  0  0  0  0  0  0
   25.6914   17.0192   38.9429 N   0  0  0  0  0  0  0  0  0  0  0  0
   25.7442   16.6435   40.2435 C   0  0  2  0  0  0  0  0  0  0  0  0
   24.7309   15.9358   40.7860 N   0  0  0  0  0  0  0  0  0  0  0  0
   26.7949   16.9605   41.0293 N   0  0  0  0  0  0  0  0  0  0  0  0
   27.8419   17.6657   40.5554 C   0  0  1  0  0  0  0  0  0  0  0  0
   27.8593   18.0770   39.2425 C   0  0  1  0  0  0  0  0  0  0  0  0
   26.6981   17.7245   38.3887 C   0  0  0  0  0  0  0  0  0  0  0  0
   26.6567   18.0674   37.1865 O   0  0  0  0  0  0  0  0  0  0  0  0
   29.0036   18.7525   39.0411 N   0  0  0  0  0  0  0  0  0  0  0  0
   29.6757   18.7524   40.2155 C   0  0  0  0  0  0  0  0  0  0  0  0
   28.9555   18.0870   41.1327 N   0  0  1  0  0  0  0  0  0  0  0  0
  1  2  1  0  0  0  0
  3  1  1  6  0  0  0
  3  4  1  0  0  0  0
  3  5  1  0  0  0  0
  5  6  1  1  0  0  0
  5  7  1  0  0  0  0
  7  8  1  0  0  0  0
  8  4  1  1  0  0  0
  8 19  1  0  0  0  0
  9 15  1  0  0  0  0
  9 10  1  0  0  0  0
 10 11  1  1  0  0  0
 10 12  1  0  0  0  0
 13 12  1  1  0  0  0
 13 14  1  0  0  0  0
 13 19  1  0  0  0  0
 14 15  1  1  0  0  0
 14 17  1  0  0  0  0
 15 16  2  0  0  0  0
 17 18  1  0  0  0  0
 19 18  1  1  0  0  0
M  END
>  <CHROM.1>
-68.08636523,13.25511954,27.56737860,17.79081109,41.51146837,1.25472276,0.43573962
1.60424220

>  <Name>
ligand

>  <RI>
0

>  <Rbt.Current_Directory>
/home/itssahil/PROJECTS/Mol_Feturizer/New_Systems/rnas/3SKL

>  <Rbt.Executable>
rbdock ($Id: //depot/dev/client3/rdock/2013.1/src/exe/rbdock.cxx#4 $)

>  <Rbt.Library>
libRbt.so (2013.1, Build901 2013/11/27)

>  <Rbt.Parameter_File>
/export/apps/rDock/src/rDock_2013.1_src/data/scripts/dock_solv.prm

>  <Rbt.Receptor>
prm/blind_docking_100.prm

>  <SCORE>
-13.2957

>  <SCORE.INTER>
-13.6425

>  <SCORE.INTER.CONST>
1

>  <SCORE.INTER.POLAR>
0

>  <SCORE.INTER.ROT>
2

>  <SCORE.INTER.SOLV>
5.06201

>  <SCORE.INTER.VDW>
-15.7157

>  <SCORE.INTER.norm>
-0.718027

>  <SCORE.INTRA>
0.344814

>  <SCORE.INTRA.DIHEDRAL>
-0.0832047

>  <SCORE.INTRA.DIHEDRAL.0>
1.50031

>  <SCORE.INTRA.POLAR>
0

>  <SCORE.INTRA.POLAR.0>
0

>  <SCORE.INTRA.REPUL>
0

>  <SCORE.INTRA.REPUL.0>
0

>  <SCORE.INTRA.SOLV>
2.01753

>  <SCORE.INTRA.SOLV.lig_0>
-37.9941

>  <SCORE.INTRA.VDW>
-0.622346

>  <SCORE.INTRA.VDW.0>
-0.964461

>  <SCORE.INTRA.norm>
0.0181481

>  <SCORE.RESTR>
0.00201284

>  <SCORE.RESTR.CAVITY>
0.00201284

>  <SCORE.RESTR.norm>
0.000105939

>  <SCORE.SYSTEM>
0

>  <SCORE.SYSTEM.CONST>
0

>  <SCORE.SYSTEM.DIHEDRAL>
0

>  <SCORE.SYSTEM.SOLV>
0

>  <SCORE.SYSTEM.norm>
0

>  <SCORE.heavy>
19

>  <SCORE.norm>
-0.699773

>  <RMSD>
15.132

$$$$
ligand
 OpenBabel11021811483D
libRbt.so/2013.1/901 2013/11/27
 19 21  0  0  0  0  0  0  0  0999 V2000
   25.3066   14.9730   42.6136 C   0  0  0  0  0  0  0  0  0  0  0  0
   24.0727   14.3416   42.2297 O   0  0  0  0  0  0  0  0  0  0  0  0
   25.1195   15.8511   43.8553 C   0  0  1  0  0  0  0  0  0  0  0  0
   26.3616   16.4336   44.2491 O   0  0  0  0  0  0  0  0  0  0  0  0
   24.1564   16.9947   43.5988 C   0  0  1  0  0  0  0  0  0  0  0  0
   23.2635   17.0893   44.7094 O   0  0  0  0  0  0  0  0  0  0  0  0
   24.9898   18.2544   43.5314 C   0  0  0  0  0  0  0  0  0  0  0  0
   26.3328   17.8641   44.1210 C   0  0  2  0  0  0  0  0  0  0  0  0
   28.0305   18.0812   39.2395 N   0  0  0  0  0  0  0  0  0  0  0  0
   26.8839   17.5788   39.7576 C   0  0  2  0  0  0  0  0  0  0  0  0
   25.9585   17.0262   38.9453 N   0  0  0  0  0  0  0  0  0  0  0  0
   26.6314   17.6145   41.0831 N   0  0  0  0  0  0  0  0  0  0  0  0
   27.5098   18.1517   41.9537 C   0  0  1  0  0  0  0  0  0  0  0  0
   28.6977   18.6768   41.4998 C   0  0  1  0  0  0  0  0  0  0  0  0
   28.9637   18.6339   40.0407 C   0  0  0  0  0  0  0  0  0  0  0  0
   30.0268   19.0927   39.5673 O   0  0  0  0  0  0  0  0  0  0  0  0
   29.3732   19.1404   42.5653 N   0  0  0  0  0  0  0  0  0  0  0  0
   28.6076   18.9003   43.6547 C   0  0  0  0  0  0  0  0  0  0  0  0
   27.4717   18.2975   43.2683 N   0  0  1  0  0  0  0  0  0  0  0  0
  1  2  1  0  0  0  0
  3  1  1  6  0  0  0
  3  4  1  0  0  0  0
  3  5  1  0  0  0  0
  5  6  1  1  0  0  0
  5  7  1  0  0  0  0
  7  8  1  0  0  0  0
  8  4  1  6  0  0  0
  8 19  1  0  0  0  0
  9 15  1  0  0  0  0
  9 10  1  0  0  0  0
 10 11  1  6  0  0  0
 10 12  1  0  0  0  0
 13 12  1  6  0  0  0
 13 14  1  0  0  0  0
 13 19  1  0  0  0  0
 14 15  1  6  0  0  0
 14 17  1  0  0  0  0
 15 16  2  0  0  0  0
 17 18  1  0  0  0  0
 19 18  1  6  0  0  0
M  END
>  <CHROM.1>
178.03711615,74.90184064,26.66309610,17.47606681,42.15691771,2.68798633,0.62955125
1.32189734

>  <Name>
ligand

>  <RI>
0

>  <Rbt.Current_Directory>
/home/itssahil/PROJECTS/Mol_Feturizer/New_Systems/rnas/3SKL

>  <Rbt.Executable>
rbdock ($Id: //depot/dev/client3/rdock/2013.1/src/exe/rbdock.cxx#4 $)

>  <Rbt.Library>
libRbt.so (2013.1, Build901 2013/11/27)

>  <Rbt.Parameter_File>
/export/apps/rDock/src/rDock_2013.1_src/data/scripts/dock_solv.prm

>  <Rbt.Receptor>
prm/blind_docking_80.prm

>  <SCORE>
-15.0445

>  <SCORE.INTER>
-14.571

>  <SCORE.INTER.CONST>
1

>  <SCORE.INTER.POLAR>
0

>  <SCORE.INTER.ROT>
2

>  <SCORE.INTER.SOLV>
7.43117

>  <SCORE.INTER.VDW>
-17.1244

>  <SCORE.INTER.norm>
-0.766896

>  <SCORE.INTRA>
-0.473441

>  <SCORE.INTRA.DIHEDRAL>
-0.267718

>  <SCORE.INTRA.DIHEDRAL.0>
1.50031

>  <SCORE.INTRA.POLAR>
0

>  <SCORE.INTRA.POLAR.0>
0

>  <SCORE.INTRA.REPUL>
0

>  <SCORE.INTRA.REPUL.0>
0

>  <SCORE.INTRA.SOLV>
0.102506

>  <SCORE.INTRA.SOLV.lig_0>
-37.9941

>  <SCORE.INTRA.VDW>
-0.390835

>  <SCORE.INTRA.VDW.0>
-0.964461

>  <SCORE.INTRA.norm>
-0.0249179

>  <SCORE.RESTR>
0

>  <SCORE.RESTR.CAVITY>
0

>  <SCORE.RESTR.norm>
0

>  <SCORE.SYSTEM>
0

>  <SCORE.SYSTEM.CONST>
0

>  <SCORE.SYSTEM.DIHEDRAL>
0

>  <SCORE.SYSTEM.SOLV>
0

>  <SCORE.SYSTEM.norm>
0

>  <SCORE.heavy>
19

>  <SCORE.norm>
-0.791814

>  <RMSD>
15.145

$$$$
ligand
 OpenBabel11021811483D
libRbt.so/2013.1/901 2013/11/27
 19 21  0  0  0  0  0  0  0  0999 V2000
   24.6957   16.7882   44.8730 C   0  0  0  0  0  0  0  0  0  0  0  0
   24.2455   18.0387   45.4228 O   0  0  0  0  0  0  0  0  0  0  0  0
   24.3325   16.6702   43.3890 C   0  0  1  0  0  0  0  0  0  0  0  0
   24.9557   17.7105   42.6362 O   0  0  0  0  0  0  0  0  0  0  0  0
   24.7997   15.3545   42.7959 C   0  0  1  0  0  0  0  0  0  0  0  0
   23.7422   14.8188   41.9993 O   0  0  0  0  0  0  0  0  0  0  0  0
   25.9734   15.6775   41.8991 C   0  0  0  0  0  0  0  0  0  0  0  0
   25.9099   17.1811   41.7020 C   0  0  2  0  0  0  0  0  0  0  0  0
   28.8398   19.5086   45.2736 N   0  0  0  0  0  0  0  0  0  0  0  0
   27.5888   18.9942   45.3514 C   0  0  2  0  0  0  0  0  0  0  0  0
   26.9088   19.0398   46.5163 N   0  0  0  0  0  0  0  0  0  0  0  0
   26.9899   18.4261   44.2834 N   0  0  0  0  0  0  0  0  0  0  0  0
   27.6093   18.3450   43.0884 C   0  0  1  0  0  0  0  0  0  0  0  0
   28.8795   18.8508   42.9339 C   0  0  1  0  0  0  0  0  0  0  0  0
   29.5287   19.4711   44.1151 C   0  0  0  0  0  0  0  0  0  0  0  0
   30.6811   19.9511   44.0370 O   0  0  0  0  0  0  0  0  0  0  0  0
   29.2519   18.6379   41.6601 N   0  0  0  0  0  0  0  0  0  0  0  0
   28.2219   18.0113   41.0458 C   0  0  0  0  0  0  0  0  0  0  0  0
   27.2254   17.8368   41.9286 N   0  0  1  0  0  0  0  0  0  0  0  0
  1  2  1  0  0  0  0
  3  1  1  1  0  0  0
  3  4  1  0  0  0  0
  3  5  1  0  0  0  0
  5  6  1  6  0  0  0
  5  7  1  0  0  0  0
  7  8  1  0  0  0  0
  8  4  1  1  0  0  0
  8 19  1  0  0  0  0
  9 15  1  0  0  0  0
  9 10  1  0  0  0  0
 10 11  1  1  0  0  0
 10 12  1  0  0  0  0
 13 12  1  1  0  0  0
 13 14  1  0  0  0  0
 13 19  1  0  0  0  0
 14 15  1  1  0  0  0
 14 17  1  0  0  0  0
 15 16  2  0  0  0  0
 17 18  1  0  0  0  0
 19 18  1  1  0  0  0
M  END
>  <CHROM.1>
61.00419121,26.49095480,26.79620708,17.83436937,43.43489973,2.72217688,-0.48844300
-1.99371660

>  <Name>
ligand

>  <RI>
0

>  <Rbt.Current_Directory>
/home/itssahil/PROJECTS/Mol_Feturizer/New_Systems/rnas/3SKL

>  <Rbt.Executable>
rbdock ($Id: //depot/dev/client3/rdock/2013.1/src/exe/rbdock.cxx#4 $)

>  <Rbt.Library>
libRbt.so (2013.1, Build901 2013/11/27)

>  <Rbt.Parameter_File>
/export/apps/rDock/src/rDock_2013.1_src/data/scripts/dock_solv.prm

>  <Rbt.Receptor>
prm/blind_docking_60.prm

>  <SCORE>
-12.5552

>  <SCORE.INTER>
-12.9699

>  <SCORE.INTER.CONST>
1

>  <SCORE.INTER.POLAR>
0

>  <SCORE.INTER.ROT>
2

>  <SCORE.INTER.SOLV>
5.30125

>  <SCORE.INTER.VDW>
-15.347

>  <SCORE.INTER.norm>
-0.682625

>  <SCORE.INTRA>
0.414708

>  <SCORE.INTRA.DIHEDRAL>
-0.318673

>  <SCORE.INTRA.DIHEDRAL.0>
1.50031

>  <SCORE.INTRA.POLAR>
0

>  <SCORE.INTRA.POLAR.0>
0

>  <SCORE.INTRA.REPUL>
0

>  <SCORE.INTRA.REPUL.0>
0

>  <SCORE.INTRA.SOLV>
2.47615

>  <SCORE.INTRA.SOLV.lig_0>
-37.9941

>  <SCORE.INTRA.VDW>
-0.664032

>  <SCORE.INTRA.VDW.0>
-0.964461

>  <SCORE.INTRA.norm>
0.0218267

>  <SCORE.RESTR>
0

>  <SCORE.RESTR.CAVITY>
0

>  <SCORE.RESTR.norm>
0

>  <SCORE.SYSTEM>
0

>  <SCORE.SYSTEM.CONST>
0

>  <SCORE.SYSTEM.DIHEDRAL>
0

>  <SCORE.SYSTEM.SOLV>
0

>  <SCORE.SYSTEM.norm>
0

>  <SCORE.heavy>
19

>  <SCORE.norm>
-0.660799

>  <RMSD>
15.198

$$$$
ligand
 OpenBabel11021811483D
libRbt.so/2013.1/901 2013/11/27
 19 21  0  0  0  0  0  0  0  0999 V2000
   29.0278   18.5175   43.7481 C   0  0  0  0  0  0  0  0  0  0  0  0
   29.8060   19.7270   43.7311 O   0  0  0  0  0  0  0  0  0  0  0  0
   29.3697   17.6192   42.5547 C   0  0  1  0  0  0  0  0  0  0  0  0
   28.7408   16.3450   42.6901 O   0  0  0  0  0  0  0  0  0  0  0  0
   28.8883   18.2128   41.2444 C   0  0  1  0  0  0  0  0  0  0  0  0
   29.9322   18.0790   40.2788 O   0  0  0  0  0  0  0  0  0  0  0  0
   27.7037   17.3831   40.8035 C   0  0  0  0  0  0  0  0  0  0  0  0
   27.7714   16.1269   41.6528 C   0  0  2  0  0  0  0  0  0  0  0  0
   24.4025   17.5911   45.2948 N   0  0  0  0  0  0  0  0  0  0  0  0
   25.6051   18.1054   44.9417 C   0  0  2  0  0  0  0  0  0  0  0  0
   26.0934   19.1883   45.5825 N   0  0  0  0  0  0  0  0  0  0  0  0
   26.3438   17.5616   43.9515 N   0  0  0  0  0  0  0  0  0  0  0  0
   25.9188   16.4798   43.2679 C   0  0  1  0  0  0  0  0  0  0  0  0
   24.7090   15.9009   43.5750 C   0  0  1  0  0  0  0  0  0  0  0  0
   23.9047   16.5084   44.6639 C   0  0  0  0  0  0  0  0  0  0  0  0
   22.7980   16.0261   44.9914 O   0  0  0  0  0  0  0  0  0  0  0  0
   24.5352   14.8548   42.7492 N   0  0  0  0  0  0  0  0  0  0  0  0
   25.6252   14.7960   41.9496 C   0  0  0  0  0  0  0  0  0  0  0  0
   26.4621   15.7943   42.2750 N   0  0  1  0  0  0  0  0  0  0  0  0
  1  2  1  0  0  0  0
  3  1  1  1  0  0  0
  3  4  1  0  0  0  0
  3  5  1  0  0  0  0
  5  6  1  6  0  0  0
  5  7  1  0  0  0  0
  7  8  1  0  0  0  0
  8  4  1  1  0  0  0
  8 19  1  0  0  0  0
  9 15  1  0  0  0  0
  9 10  1  0  0  0  0
 10 11  1  6  0  0  0
 10 12  1  0  0  0  0
 13 12  1  6  0  0  0
 13 14  1  0  0  0  0
 13 19  1  0  0  0  0
 14 15  1  6  0  0  0
 14 17  1  0  0  0  0
 15 16  2  0  0  0  0
 17 18  1  0  0  0  0
 19 18  1  6  0  0  0
M  END
>  <CHROM.1>
171.41999551,47.85398567,26.78921767,17.13510640,43.14297263,-0.12042610
0.51621538,0.83921034

>  <Name>
ligand

>  <RI>
0

>  <Rbt.Current_Directory>
/home/itssahil/PROJECTS/Mol_Feturizer/New_Systems/rnas/3SKL

>  <Rbt.Executable>
rbdock ($Id: //depot/dev/client3/rdock/2013.1/src/exe/rbdock.cxx#4 $)

>  <Rbt.Library>
libRbt.so (2013.1, Build901 2013/11/27)

>  <Rbt.Parameter_File>
/export/apps/rDock/src/rDock_2013.1_src/data/scripts/dock_solv.prm

>  <Rbt.Receptor>
prm/blind_docking_60.prm

>  <SCORE>
-13.8823

>  <SCORE.INTER>
-13.8721

>  <SCORE.INTER.CONST>
1

>  <SCORE.INTER.POLAR>
0

>  <SCORE.INTER.ROT>
2

>  <SCORE.INTER.SOLV>
10.6124

>  <SCORE.INTER.VDW>
-17.7188

>  <SCORE.INTER.norm>
-0.730108

>  <SCORE.INTRA>
-0.010209

>  <SCORE.INTRA.DIHEDRAL>
-0.0542032

>  <SCORE.INTRA.DIHEDRAL.0>
1.50031

>  <SCORE.INTRA.POLAR>
0

>  <SCORE.INTRA.POLAR.0>
0

>  <SCORE.INTRA.REPUL>
0

>  <SCORE.INTRA.REPUL.0>
0

>  <SCORE.INTRA.SOLV>
1.12309

>  <SCORE.INTRA.SOLV.lig_0>
-37.9941

>  <SCORE.INTRA.VDW>
-0.544654

>  <SCORE.INTRA.VDW.0>
-0.964461

>  <SCORE.INTRA.norm>
-0.000537315

>  <SCORE.RESTR>
0

>  <SCORE.RESTR.CAVITY>
0

>  <SCORE.RESTR.norm>
0

>  <SCORE.SYSTEM>
0

>  <SCORE.SYSTEM.CONST>
0

>  <SCORE.SYSTEM.DIHEDRAL>
0

>  <SCORE.SYSTEM.SOLV>
0

>  <SCORE.SYSTEM.norm>
0

>  <SCORE.heavy>
19

>  <SCORE.norm>
-0.730645

>  <RMSD>
15.202

$$$$
ligand
 OpenBabel11021811483D
libRbt.so/2013.1/901 2013/11/27
 19 21  0  0  0  0  0  0  0  0999 V2000
   21.7738   14.5915   41.1146 C   0  0  0  0  0  0  0  0  0  0  0  0
   21.8922   13.1609   41.2043 O   0  0  0  0  0  0  0  0  0  0  0  0
   21.8609   15.2448   42.4979 C   0  0  1  0  0  0  0  0  0  0  0  0
   23.0920   14.9057   43.1357 O   0  0  0  0  0  0  0  0  0  0  0  0
   21.8095   16.7584   42.4123 C   0  0  1  0  0  0  0  0  0  0  0  0
   20.9179   17.2366   43.4204 O   0  0  0  0  0  0  0  0  0  0  0  0
   23.2046   17.2559   42.7158 C   0  0  0  0  0  0  0  0  0  0  0  0
   23.9161   16.0656   43.3329 C   0  0  2  0  0  0  0  0  0  0  0  0
   28.8503   17.6182   43.3502 N   0  0  0  0  0  0  0  0  0  0  0  0
   27.7781   18.0651   44.0475 C   0  0  2  0  0  0  0  0  0  0  0  0
   27.9170   19.0788   44.9278 N   0  0  0  0  0  0  0  0  0  0  0  0
   26.5538   17.5193   43.8891 N   0  0  0  0  0  0  0  0  0  0  0  0
   26.3410   16.5037   43.0281 C   0  0  1  0  0  0  0  0  0  0  0  0
   27.3826   16.0014   42.2825 C   0  0  1  0  0  0  0  0  0  0  0  0
   28.7242   16.6077   42.4664 C   0  0  0  0  0  0  0  0  0  0  0  0
   29.7101   16.1967   41.8155 O   0  0  0  0  0  0  0  0  0  0  0  0
   26.8967   15.0075   41.5193 N   0  0  0  0  0  0  0  0  0  0  0  0
   25.5760   14.9055   41.7952 C   0  0  0  0  0  0  0  0  0  0  0  0
   25.2489   15.8235   42.7190 N   0  0  1  0  0  0  0  0  0  0  0  0
  1  2  1  0  0  0  0
  3  1  1  6  0  0  0
  3  4  1  0  0  0  0
  3  5  1  0  0  0  0
  5  6  1  1  0  0  0
  5  7  1  0  0  0  0
  7  8  1  0  0  0  0
  8  4  1  6  0  0  0
  8 19  1  0  0  0  0
  9 15  1  0  0  0  0
  9 10  1  0  0  0  0
 10 11  1  1  0  0  0
 10 12  1  0  0  0  0
 13 12  1  1  0  0  0
 13 14  1  0  0  0  0
 13 19  1  0  0  0  0
 14 15  1  1  0  0  0
 14 17  1  0  0  0  0
 15 16  2  0  0  0  0
 17 18  1  0  0  0  0
 19 18  1  1  0  0  0
M  END
>  <CHROM.1>
57.97244874,-160.42515124,25.15003391,16.20854727,42.70916686,-2.84152279
0.05968704,0.62097134

>  <Name>
ligand

>  <RI>
0

>  <Rbt.Current_Directory>
/home/itssahil/PROJECTS/Mol_Feturizer/New_Systems/rnas/3SKL

>  <Rbt.Executable>
rbdock ($Id: //depot/dev/client3/rdock/2013.1/src/exe/rbdock.cxx#4 $)

>  <Rbt.Library>
libRbt.so (2013.1, Build901 2013/11/27)

>  <Rbt.Parameter_File>
/export/apps/rDock/src/rDock_2013.1_src/data/scripts/dock_solv.prm

>  <Rbt.Receptor>
prm/blind_docking_60.prm

>  <SCORE>
-13.6019

>  <SCORE.INTER>
-13.0232

>  <SCORE.INTER.CONST>
1

>  <SCORE.INTER.POLAR>
0

>  <SCORE.INTER.ROT>
2

>  <SCORE.INTER.SOLV>
9.81541

>  <SCORE.INTER.VDW>
-16.8873

>  <SCORE.INTER.norm>
-0.685432

>  <SCORE.INTRA>
-0.578729

>  <SCORE.INTRA.DIHEDRAL>
-0.262938

>  <SCORE.INTRA.DIHEDRAL.0>
1.50031

>  <SCORE.INTRA.POLAR>
0

>  <SCORE.INTRA.POLAR.0>
0

>  <SCORE.INTRA.REPUL>
0

>  <SCORE.INTRA.REPUL.0>
0

>  <SCORE.INTRA.SOLV>
-0.54546

>  <SCORE.INTRA.SOLV.lig_0>
-37.9941

>  <SCORE.INTRA.VDW>
-0.17453

>  <SCORE.INTRA.VDW.0>
-0.964461

>  <SCORE.INTRA.norm>
-0.0304594

>  <SCORE.RESTR>
0

>  <SCORE.RESTR.CAVITY>
0

>  <SCORE.RESTR.norm>
0

>  <SCORE.SYSTEM>
0

>  <SCORE.SYSTEM.CONST>
0

>  <SCORE.SYSTEM.DIHEDRAL>
0

>  <SCORE.SYSTEM.SOLV>
0

>  <SCORE.SYSTEM.norm>
0

>  <SCORE.heavy>
19

>  <SCORE.norm>
-0.715892

>  <RMSD>
15.243

$$$$
ligand
 OpenBabel11021811483D
libRbt.so/2013.1/901 2013/11/27
 19 21  0  0  0  0  0  0  0  0999 V2000
   21.8514   14.4755   41.0836 C   0  0  0  0  0  0  0  0  0  0  0  0
   21.8938   13.0472   41.2475 O   0  0  0  0  0  0  0  0  0  0  0  0
   21.9185   15.1928   42.4359 C   0  0  1  0  0  0  0  0  0  0  0  0
   23.1503   14.9031   43.0964 O   0  0  0  0  0  0  0  0  0  0  0  0
   21.8441   16.6999   42.2805 C   0  0  1  0  0  0  0  0  0  0  0  0
   20.9381   17.2096   43.2599 O   0  0  0  0  0  0  0  0  0  0  0  0
   23.2290   17.2330   42.5696 C   0  0  0  0  0  0  0  0  0  0  0  0
   23.9547   16.0838   43.2453 C   0  0  2  0  0  0  0  0  0  0  0  0
   28.8954   17.6132   43.3360 N   0  0  0  0  0  0  0  0  0  0  0  0
   27.8150   18.0655   44.0168 C   0  0  2  0  0  0  0  0  0  0  0  0
   27.9454   19.0791   44.8986 N   0  0  0  0  0  0  0  0  0  0  0  0
   26.5906   17.5254   43.8403 N   0  0  0  0  0  0  0  0  0  0  0  0
   26.3860   16.5103   42.9767 C   0  0  1  0  0  0  0  0  0  0  0  0
   27.4363   16.0027   42.2471 C   0  0  1  0  0  0  0  0  0  0  0  0
   28.7778   16.6028   42.4509 C   0  0  0  0  0  0  0  0  0  0  0  0
   29.7714   16.1867   41.8150 O   0  0  0  0  0  0  0  0  0  0  0  0
   26.9572   15.0106   41.4773 N   0  0  0  0  0  0  0  0  0  0  0  0
   25.6321   14.9150   41.7333 C   0  0  0  0  0  0  0  0  0  0  0  0
   25.2955   15.8350   42.6516 N   0  0  1  0  0  0  0  0  0  0  0  0
  1  2  1  0  0  0  0
  3  1  1  6  0  0  0
  3  4  1  0  0  0  0
  3  5  1  0  0  0  0
  5  6  1  1  0  0  0
  5  7  1  0  0  0  0
  7  8  1  0  0  0  0
  8  4  1  6  0  0  0
  8 19  1  0  0  0  0
  9 15  1  0  0  0  0
  9 10  1  0  0  0  0
 10 11  1  1  0  0  0
 10 12  1  0  0  0  0
 13 12  1  1  0  0  0
 13 14  1  0  0  0  0
 13 19  1  0  0  0  0
 14 15  1  1  0  0  0
 14 17  1  0  0  0  0
 15 16  2  0  0  0  0
 17 18  1  0  0  0  0
 19 18  1  1  0  0  0
M  END
>  <CHROM.1>
62.17415031,-157.53125265,25.19362937,16.18855680,42.65623407,-2.82895994
0.05334284,0.60269171

>  <Name>
ligand

>  <RI>
0

>  <Rbt.Current_Directory>
/home/itssahil/PROJECTS/Mol_Feturizer/New_Systems/rnas/3SKL

>  <Rbt.Executable>
rbdock ($Id: //depot/dev/client3/rdock/2013.1/src/exe/rbdock.cxx#4 $)

>  <Rbt.Library>
libRbt.so (2013.1, Build901 2013/11/27)

>  <Rbt.Parameter_File>
/export/apps/rDock/src/rDock_2013.1_src/data/scripts/dock_solv.prm

>  <Rbt.Receptor>
prm/blind_docking_60.prm

>  <SCORE>
-13.5913

>  <SCORE.INTER>
-13.0028

>  <SCORE.INTER.CONST>
1

>  <SCORE.INTER.POLAR>
0

>  <SCORE.INTER.ROT>
2

>  <SCORE.INTER.SOLV>
10.0723

>  <SCORE.INTER.VDW>
-16.9593

>  <SCORE.INTER.norm>
-0.684356

>  <SCORE.INTRA>
-0.588534

>  <SCORE.INTRA.DIHEDRAL>
-0.257662

>  <SCORE.INTRA.DIHEDRAL.0>
1.50031

>  <SCORE.INTRA.POLAR>
0

>  <SCORE.INTRA.POLAR.0>
0

>  <SCORE.INTRA.REPUL>
0

>  <SCORE.INTRA.REPUL.0>
0

>  <SCORE.INTRA.SOLV>
-0.56609

>  <SCORE.INTRA.SOLV.lig_0>
-37.9941

>  <SCORE.INTRA.VDW>
-0.176658

>  <SCORE.INTRA.VDW.0>
-0.964461

>  <SCORE.INTRA.norm>
-0.0309755

>  <SCORE.RESTR>
0

>  <SCORE.RESTR.CAVITY>
0

>  <SCORE.RESTR.norm>
0

>  <SCORE.SYSTEM>
0

>  <SCORE.SYSTEM.CONST>
0

>  <SCORE.SYSTEM.DIHEDRAL>
0

>  <SCORE.SYSTEM.SOLV>
0

>  <SCORE.SYSTEM.norm>
0

>  <SCORE.heavy>
19

>  <SCORE.norm>
-0.715331

>  <RMSD>
15.255

$$$$
ligand
 OpenBabel11021811483D
libRbt.so/2013.1/901 2013/11/27
 19 21  0  0  0  0  0  0  0  0999 V2000
   34.1468   29.7419   42.9673 C   0  0  0  0  0  0  0  0  0  0  0  0
   35.1399   28.9808   42.2579 O   0  0  0  0  0  0  0  0  0  0  0  0
   32.8649   28.9282   43.1738 C   0  0  1  0  0  0  0  0  0  0  0  0
   31.8999   29.6890   43.9000 O   0  0  0  0  0  0  0  0  0  0  0  0
   32.2222   28.5419   41.8553 C   0  0  1  0  0  0  0  0  0  0  0  0
   31.8342   27.1693   41.9283 O   0  0  0  0  0  0  0  0  0  0  0  0
   30.9819   29.3948   41.7130 C   0  0  0  0  0  0  0  0  0  0  0  0
   30.7382   29.9610   43.1000 C   0  0  2  0  0  0  0  0  0  0  0  0
   29.2829   33.9861   46.0049 N   0  0  0  0  0  0  0  0  0  0  0  0
   29.3981   32.6705   46.3073 C   0  0  2  0  0  0  0  0  0  0  0  0
   29.1161   32.2345   47.5532 N   0  0  0  0  0  0  0  0  0  0  0  0
   29.7939   31.7653   45.3876 N   0  0  0  0  0  0  0  0  0  0  0  0
   30.0926   32.1289   44.1239 C   0  0  1  0  0  0  0  0  0  0  0  0
   29.9937   33.4475   43.7437 C   0  0  1  0  0  0  0  0  0  0  0  0
   29.5596   34.4339   44.7635 C   0  0  0  0  0  0  0  0  0  0  0  0
   29.4479   35.6466   44.4781 O   0  0  0  0  0  0  0  0  0  0  0  0
   30.3468   33.5270   42.4493 N   0  0  0  0  0  0  0  0  0  0  0  0
   30.6560   32.2733   42.0453 C   0  0  0  0  0  0  0  0  0  0  0  0
   30.4983   31.4287   43.0771 N   0  0  1  0  0  0  0  0  0  0  0  0
  1  2  1  0  0  0  0
  3  1  1  6  0  0  0
  3  4  1  0  0  0  0
  3  5  1  0  0  0  0
  5  6  1  1  0  0  0
  5  7  1  0  0  0  0
  7  8  1  0  0  0  0
  8  4  1  1  0  0  0
  8 19  1  0  0  0  0
  9 15  1  0  0  0  0
  9 10  1  0  0  0  0
 10 11  1  1  0  0  0
 10 12  1  0  0  0  0
 13 12  1  1  0  0  0
 13 14  1  0  0  0  0
 13 19  1  0  0  0  0
 14 15  1  1  0  0  0
 14 17  1  0  0  0  0
 15 16  2  0  0  0  0
 17 18  1  0  0  0  0
 19 18  1  1  0  0  0
M  END
>  <CHROM.1>
178.93647712,-69.47109329,31.01014806,31.29826602,43.70339296,-0.24824941
1.01838359,-0.76556870

>  <Name>
ligand

>  <RI>
0

>  <Rbt.Current_Directory>
/home/itssahil/PROJECTS/Mol_Feturizer/New_Systems/rnas/3SKL

>  <Rbt.Executable>
rbdock ($Id: //depot/dev/client3/rdock/2013.1/src/exe/rbdock.cxx#4 $)

>  <Rbt.Library>
libRbt.so (2013.1, Build901 2013/11/27)

>  <Rbt.Parameter_File>
/export/apps/rDock/src/rDock_2013.1_src/data/scripts/dock_solv.prm

>  <Rbt.Receptor>
prm/blind_docking_80.prm

>  <SCORE>
-17.501

>  <SCORE.INTER>
-17.5332

>  <SCORE.INTER.CONST>
1

>  <SCORE.INTER.POLAR>
0

>  <SCORE.INTER.ROT>
2

>  <SCORE.INTER.SOLV>
12.9923

>  <SCORE.INTER.VDW>
-20.9529

>  <SCORE.INTER.norm>
-0.922801

>  <SCORE.INTRA>
0.0321779

>  <SCORE.INTRA.DIHEDRAL>
-0.306761

>  <SCORE.INTRA.DIHEDRAL.0>
1.50031

>  <SCORE.INTRA.POLAR>
0

>  <SCORE.INTRA.POLAR.0>
0

>  <SCORE.INTRA.REPUL>
0

>  <SCORE.INTRA.REPUL.0>
0

>  <SCORE.INTRA.SOLV>
-0.437045

>  <SCORE.INTRA.SOLV.lig_0>
-37.9941

>  <SCORE.INTRA.VDW>
0.404081

>  <SCORE.INTRA.VDW.0>
-0.964461

>  <SCORE.INTRA.norm>
0.00169357

>  <SCORE.RESTR>
0

>  <SCORE.RESTR.CAVITY>
0

>  <SCORE.RESTR.norm>
0

>  <SCORE.SYSTEM>
0

>  <SCORE.SYSTEM.CONST>
0

>  <SCORE.SYSTEM.DIHEDRAL>
0

>  <SCORE.SYSTEM.SOLV>
0

>  <SCORE.SYSTEM.norm>
0

>  <SCORE.heavy>
19

>  <SCORE.norm>
-0.921107

>  <RMSD>
15.259

$$$$
ligand
 OpenBabel11021811483D
libRbt.so/2013.1/901 2013/11/27
 19 21  0  0  0  0  0  0  0  0999 V2000
   30.2925   32.3447   43.4548 C   0  0  0  0  0  0  0  0  0  0  0  0
   30.3705   33.7617   43.2211 O   0  0  0  0  0  0  0  0  0  0  0  0
   31.2244   31.9166   44.5934 C   0  0  1  0  0  0  0  0  0  0  0  0
   30.8330   32.5328   45.8199 O   0  0  0  0  0  0  0  0  0  0  0  0
   31.1874   30.4172   44.8203 C   0  0  1  0  0  0  0  0  0  0  0  0
   32.5286   29.9524   44.9789 O   0  0  0  0  0  0  0  0  0  0  0  0
   30.4355   30.1943   46.1130 C   0  0  0  0  0  0  0  0  0  0  0  0
   30.3956   31.5574   46.7795 C   0  0  2  0  0  0  0  0  0  0  0  0
   26.5762   35.0013   46.2227 N   0  0  0  0  0  0  0  0  0  0  0  0
   27.7978   34.9309   45.6412 C   0  0  2  0  0  0  0  0  0  0  0  0
   28.1760   35.8656   44.7440 N   0  0  0  0  0  0  0  0  0  0  0  0
   28.6643   33.9381   45.9337 N   0  0  0  0  0  0  0  0  0  0  0  0
   28.3540   32.9701   46.8197 C   0  0  1  0  0  0  0  0  0  0  0  0
   27.1326   32.9800   47.4529 C   0  0  1  0  0  0  0  0  0  0  0  0
   26.1875   34.0749   47.1220 C   0  0  0  0  0  0  0  0  0  0  0  0
   25.0632   34.1399   47.6665 O   0  0  0  0  0  0  0  0  0  0  0  0
   27.0877   31.9144   48.2707 N   0  0  0  0  0  0  0  0  0  0  0  0
   28.2667   31.2637   48.1386 C   0  0  0  0  0  0  0  0  0  0  0  0
   29.0309   31.9172   47.2488 N   0  0  1  0  0  0  0  0  0  0  0  0
  1  2  1  0  0  0  0
  3  1  1  6  0  0  0
  3  4  1  0  0  0  0
  3  5  1  0  0  0  0
  5  6  1  1  0  0  0
  5  7  1  0  0  0  0
  7  8  1  0  0  0  0
  8  4  1  6  0  0  0
  8 19  1  0  0  0  0
  9 15  1  0  0  0  0
  9 10  1  0  0  0  0
 10 11  1  6  0  0  0
 10 12  1  0  0  0  0
 13 12  1  6  0  0  0
 13 14  1  0  0  0  0
 13 19  1  0  0  0  0
 14 15  1  6  0  0  0
 14 17  1  0  0  0  0
 15 16  2  0  0  0  0
 17 18  1  0  0  0  0
 19 18  1  6  0  0  0
M  END
>  <CHROM.1>
62.83284110,0.50728325,28.98021688,32.71177782,46.00530949,-0.14246454,0.63717568
-0.72538765

>  <Name>
ligand

>  <RI>
0

>  <Rbt.Current_Directory>
/home/itssahil/PROJECTS/Mol_Feturizer/New_Systems/rnas/3SKL

>  <Rbt.Executable>
rbdock ($Id: //depot/dev/client3/rdock/2013.1/src/exe/rbdock.cxx#4 $)

>  <Rbt.Library>
libRbt.so (2013.1, Build901 2013/11/27)

>  <Rbt.Parameter_File>
/export/apps/rDock/src/rDock_2013.1_src/data/scripts/dock_solv.prm

>  <Rbt.Receptor>
prm/blind_docking_100.prm

>  <SCORE>
-14.0871

>  <SCORE.INTER>
-14.2291

>  <SCORE.INTER.CONST>
1

>  <SCORE.INTER.POLAR>
0

>  <SCORE.INTER.ROT>
2

>  <SCORE.INTER.SOLV>
10.8314

>  <SCORE.INTER.VDW>
-18.0299

>  <SCORE.INTER.norm>
-0.7489

>  <SCORE.INTRA>
0.142024

>  <SCORE.INTRA.DIHEDRAL>
-0.268533

>  <SCORE.INTRA.DIHEDRAL.0>
1.50031

>  <SCORE.INTRA.POLAR>
0

>  <SCORE.INTRA.POLAR.0>
0

>  <SCORE.INTRA.REPUL>
0

>  <SCORE.INTRA.REPUL.0>
0

>  <SCORE.INTRA.SOLV>
1.16855

>  <SCORE.INTRA.SOLV.lig_0>
-37.9941

>  <SCORE.INTRA.VDW>
-0.307983

>  <SCORE.INTRA.VDW.0>
-0.964461

>  <SCORE.INTRA.norm>
0.00747497

>  <SCORE.RESTR>
0

>  <SCORE.RESTR.CAVITY>
0

>  <SCORE.RESTR.norm>
0

>  <SCORE.SYSTEM>
0

>  <SCORE.SYSTEM.CONST>
0

>  <SCORE.SYSTEM.DIHEDRAL>
0

>  <SCORE.SYSTEM.SOLV>
0

>  <SCORE.SYSTEM.norm>
0

>  <SCORE.heavy>
19

>  <SCORE.norm>
-0.741425

>  <RMSD>
15.282

$$$$
ligand
 OpenBabel11021811483D
libRbt.so/2013.1/901 2013/11/27
 19 21  0  0  0  0  0  0  0  0999 V2000
   34.1641   29.9190   43.1523 C   0  0  0  0  0  0  0  0  0  0  0  0
   35.2536   29.1790   42.5744 O   0  0  0  0  0  0  0  0  0  0  0  0
   32.9083   29.0504   43.2813 C   0  0  1  0  0  0  0  0  0  0  0  0
   31.8717   29.7649   43.9538 O   0  0  0  0  0  0  0  0  0  0  0  0
   32.3593   28.6459   41.9264 C   0  0  1  0  0  0  0  0  0  0  0  0
   32.0266   27.2577   41.9714 O   0  0  0  0  0  0  0  0  0  0  0  0
   31.0940   29.4465   41.7164 C   0  0  0  0  0  0  0  0  0  0  0  0
   30.7473   29.9929   43.0894 C   0  0  2  0  0  0  0  0  0  0  0  0
   29.2498   33.9958   46.0034 N   0  0  0  0  0  0  0  0  0  0  0  0
   29.4311   32.6903   46.3167 C   0  0  2  0  0  0  0  0  0  0  0  0
   29.2189   32.2605   47.5785 N   0  0  0  0  0  0  0  0  0  0  0  0
   29.8253   31.7891   45.3923 N   0  0  0  0  0  0  0  0  0  0  0  0
   30.0563   32.1469   44.1129 C   0  0  1  0  0  0  0  0  0  0  0  0
   29.8880   33.4550   43.7211 C   0  0  1  0  0  0  0  0  0  0  0  0
   29.4564   34.4372   44.7461 C   0  0  0  0  0  0  0  0  0  0  0  0
   29.2835   35.6403   44.4509 O   0  0  0  0  0  0  0  0  0  0  0  0
   30.1838   33.5308   42.4122 N   0  0  0  0  0  0  0  0  0  0  0  0
   30.5271   32.2850   42.0109 C   0  0  0  0  0  0  0  0  0  0  0  0
   30.4468   31.4492   43.0586 N   0  0  1  0  0  0  0  0  0  0  0  0
  1  2  1  0  0  0  0
  3  1  1  6  0  0  0
  3  4  1  0  0  0  0
  3  5  1  0  0  0  0
  5  6  1  1  0  0  0
  5  7  1  0  0  0  0
  7  8  1  0  0  0  0
  8  4  1  1  0  0  0
  8 19  1  0  0  0  0
  9 15  1  0  0  0  0
  9 10  1  0  0  0  0
 10 11  1  1  0  0  0
 10 12  1  0  0  0  0
 13 12  1  1  0  0  0
 13 14  1  0  0  0  0
 13 19  1  0  0  0  0
 14 15  1  1  0  0  0
 14 17  1  0  0  0  0
 15 16  2  0  0  0  0
 17 18  1  0  0  0  0
 19 18  1  1  0  0  0
M  END
>  <CHROM.1>
175.32170585,-63.69294042,31.01174030,31.35248875,43.74057810,-0.04654044
-1.00719598,2.01544580

>  <Name>
ligand

>  <RI>
0

>  <Rbt.Current_Directory>
/home/itssahil/PROJECTS/Mol_Feturizer/New_Systems/rnas/3SKL

>  <Rbt.Executable>
rbdock ($Id: //depot/dev/client3/rdock/2013.1/src/exe/rbdock.cxx#4 $)

>  <Rbt.Library>
libRbt.so (2013.1, Build901 2013/11/27)

>  <Rbt.Parameter_File>
/export/apps/rDock/src/rDock_2013.1_src/data/scripts/dock_solv.prm

>  <Rbt.Receptor>
prm/blind_docking_100.prm

>  <SCORE>
-17.4272

>  <SCORE.INTER>
-17.5043

>  <SCORE.INTER.CONST>
1

>  <SCORE.INTER.POLAR>
0

>  <SCORE.INTER.ROT>
2

>  <SCORE.INTER.SOLV>
12.7492

>  <SCORE.INTER.VDW>
-20.8526

>  <SCORE.INTER.norm>
-0.921281

>  <SCORE.INTRA>
0.0771472

>  <SCORE.INTRA.DIHEDRAL>
-0.226169

>  <SCORE.INTRA.DIHEDRAL.0>
1.50031

>  <SCORE.INTRA.POLAR>
0

>  <SCORE.INTRA.POLAR.0>
0

>  <SCORE.INTRA.REPUL>
0

>  <SCORE.INTRA.REPUL.0>
0

>  <SCORE.INTRA.SOLV>
-0.45019

>  <SCORE.INTRA.SOLV.lig_0>
-37.9941

>  <SCORE.INTRA.VDW>
0.415327

>  <SCORE.INTRA.VDW.0>
-0.964461

>  <SCORE.INTRA.norm>
0.00406038

>  <SCORE.RESTR>
0

>  <SCORE.RESTR.CAVITY>
0

>  <SCORE.RESTR.norm>
0

>  <SCORE.SYSTEM>
0

>  <SCORE.SYSTEM.CONST>
0

>  <SCORE.SYSTEM.DIHEDRAL>
0

>  <SCORE.SYSTEM.SOLV>
0

>  <SCORE.SYSTEM.norm>
0

>  <SCORE.heavy>
19

>  <SCORE.norm>
-0.91722

>  <RMSD>
15.288

$$$$
ligand
 OpenBabel11021811483D
libRbt.so/2013.1/901 2013/11/27
 19 21  0  0  0  0  0  0  0  0999 V2000
   34.1492   29.8646   43.1277 C   0  0  0  0  0  0  0  0  0  0  0  0
   35.2105   29.1229   42.5015 O   0  0  0  0  0  0  0  0  0  0  0  0
   32.8808   29.0153   43.2616 C   0  0  1  0  0  0  0  0  0  0  0  0
   31.8628   29.7402   43.9511 O   0  0  0  0  0  0  0  0  0  0  0  0
   32.3118   28.6323   41.9087 C   0  0  1  0  0  0  0  0  0  0  0  0
   31.9570   27.2493   41.9444 O   0  0  0  0  0  0  0  0  0  0  0  0
   31.0576   29.4552   41.7189 C   0  0  0  0  0  0  0  0  0  0  0  0
   30.7336   29.9943   43.1003 C   0  0  2  0  0  0  0  0  0  0  0  0
   29.2729   33.9826   46.0529 N   0  0  0  0  0  0  0  0  0  0  0  0
   29.4306   32.6703   46.3507 C   0  0  2  0  0  0  0  0  0  0  0  0
   29.2000   32.2277   47.6047 N   0  0  0  0  0  0  0  0  0  0  0  0
   29.8190   31.7751   45.4181 N   0  0  0  0  0  0  0  0  0  0  0  0
   30.0675   32.1457   44.1457 C   0  0  1  0  0  0  0  0  0  0  0  0
   29.9235   33.4613   43.7696 C   0  0  1  0  0  0  0  0  0  0  0  0
   29.4981   34.4368   44.8034 C   0  0  0  0  0  0  0  0  0  0  0  0
   29.3471   35.6463   44.5225 O   0  0  0  0  0  0  0  0  0  0  0  0
   30.2326   33.5492   42.4645 N   0  0  0  0  0  0  0  0  0  0  0  0
   30.5598   32.3035   42.0500 C   0  0  0  0  0  0  0  0  0  0  0  0
   30.4565   31.4555   43.0859 N   0  0  1  0  0  0  0  0  0  0  0  0
  1  2  1  0  0  0  0
  3  1  1  6  0  0  0
  3  4  1  0  0  0  0
  3  5  1  0  0  0  0
  5  6  1  1  0  0  0
  5  7  1  0  0  0  0
  7  8  1  0  0  0  0
  8  4  1  1  0  0  0
  8 19  1  0  0  0  0
  9 15  1  0  0  0  0
  9 10  1  0  0  0  0
 10 11  1  1  0  0  0
 10 12  1  0  0  0  0
 13 12  1  1  0  0  0
 13 14  1  0  0  0  0
 13 19  1  0  0  0  0
 14 15  1  1  0  0  0
 14 17  1  0  0  0  0
 15 16  2  0  0  0  0
 17 18  1  0  0  0  0
 19 18  1  1  0  0  0
M  END
>  <CHROM.1>
176.76656307,-64.81813932,31.00957050,31.34082088,43.75563729,0.02526786
-1.02001431,2.11156932

>  <Name>
ligand

>  <RI>
0

>  <Rbt.Current_Directory>
/home/itssahil/PROJECTS/Mol_Feturizer/New_Systems/rnas/3SKL

>  <Rbt.Executable>
rbdock ($Id: //depot/dev/client3/rdock/2013.1/src/exe/rbdock.cxx#4 $)

>  <Rbt.Library>
libRbt.so (2013.1, Build901 2013/11/27)

>  <Rbt.Parameter_File>
/export/apps/rDock/src/rDock_2013.1_src/data/scripts/dock_solv.prm

>  <Rbt.Receptor>
prm/blind_docking_100.prm

>  <SCORE>
-17.42

>  <SCORE.INTER>
-17.4818

>  <SCORE.INTER.CONST>
1

>  <SCORE.INTER.POLAR>
0

>  <SCORE.INTER.ROT>
2

>  <SCORE.INTER.SOLV>
12.8812

>  <SCORE.INTER.VDW>
-20.8816

>  <SCORE.INTER.norm>
-0.920094

>  <SCORE.INTRA>
0.0618014

>  <SCORE.INTRA.DIHEDRAL>
-0.268196

>  <SCORE.INTRA.DIHEDRAL.0>
1.50031

>  <SCORE.INTRA.POLAR>
0

>  <SCORE.INTRA.POLAR.0>
0

>  <SCORE.INTRA.REPUL>
0

>  <SCORE.INTRA.REPUL.0>
0

>  <SCORE.INTRA.SOLV>
-0.444115

>  <SCORE.INTRA.SOLV.lig_0>
-37.9941

>  <SCORE.INTRA.VDW>
0.417957

>  <SCORE.INTRA.VDW.0>
-0.964461

>  <SCORE.INTRA.norm>
0.0032527

>  <SCORE.RESTR>
0

>  <SCORE.RESTR.CAVITY>
0

>  <SCORE.RESTR.norm>
0

>  <SCORE.SYSTEM>
0

>  <SCORE.SYSTEM.CONST>
0

>  <SCORE.SYSTEM.DIHEDRAL>
0

>  <SCORE.SYSTEM.SOLV>
0

>  <SCORE.SYSTEM.norm>
0

>  <SCORE.heavy>
19

>  <SCORE.norm>
-0.916841

>  <RMSD>
15.289

$$$$
ligand
 OpenBabel11021811483D
libRbt.so/2013.1/901 2013/11/27
 19 21  0  0  0  0  0  0  0  0999 V2000
   34.1808   29.8030   43.0679 C   0  0  0  0  0  0  0  0  0  0  0  0
   35.2206   29.0520   42.4172 O   0  0  0  0  0  0  0  0  0  0  0  0
   32.9097   28.9638   43.2350 C   0  0  1  0  0  0  0  0  0  0  0  0
   31.9071   29.7055   43.9294 O   0  0  0  0  0  0  0  0  0  0  0  0
   32.3168   28.5637   41.8974 C   0  0  1  0  0  0  0  0  0  0  0  0
   31.9543   27.1837   41.9600 O   0  0  0  0  0  0  0  0  0  0  0  0
   31.0647   29.3914   41.7149 C   0  0  0  0  0  0  0  0  0  0  0  0
   30.7660   29.9536   43.0928 C   0  0  2  0  0  0  0  0  0  0  0  0
   29.3403   33.9887   45.9984 N   0  0  0  0  0  0  0  0  0  0  0  0
   29.4914   32.6796   46.3127 C   0  0  2  0  0  0  0  0  0  0  0  0
   29.2631   32.2548   47.5734 N   0  0  0  0  0  0  0  0  0  0  0  0
   29.8709   31.7699   45.3906 N   0  0  0  0  0  0  0  0  0  0  0  0
   30.1166   32.1224   44.1125 C   0  0  1  0  0  0  0  0  0  0  0  0
   29.9790   33.4338   43.7196 C   0  0  1  0  0  0  0  0  0  0  0  0
   29.5633   34.4252   44.7422 C   0  0  0  0  0  0  0  0  0  0  0  0
   29.4182   35.6318   44.4460 O   0  0  0  0  0  0  0  0  0  0  0  0
   30.2834   33.5028   42.4124 N   0  0  0  0  0  0  0  0  0  0  0  0
   30.6017   32.2498   42.0130 C   0  0  0  0  0  0  0  0  0  0  0  0
   30.4975   31.4160   43.0603 N   0  0  1  0  0  0  0  0  0  0  0  0
  1  2  1  0  0  0  0
  3  1  1  6  0  0  0
  3  4  1  0  0  0  0
  3  5  1  0  0  0  0
  5  6  1  1  0  0  0
  5  7  1  0  0  0  0
  7  8  1  0  0  0  0
  8  4  1  1  0  0  0
  8 19  1  0  0  0  0
  9 15  1  0  0  0  0
  9 10  1  0  0  0  0
 10 11  1  1  0  0  0
 10 12  1  0  0  0  0
 13 12  1  1  0  0  0
 13 14  1  0  0  0  0
 13 19  1  0  0  0  0
 14 15  1  1  0  0  0
 14 17  1  0  0  0  0
 15 16  2  0  0  0  0
 17 18  1  0  0  0  0
 19 18  1  1  0  0  0
M  END
>  <CHROM.1>
177.68604164,-65.52242090,31.04970763,31.30668920,43.71938532,0.05205406
-1.02824249,2.13495165

>  <Name>
ligand

>  <RI>
0

>  <Rbt.Current_Directory>
/home/itssahil/PROJECTS/Mol_Feturizer/New_Systems/rnas/3SKL

>  <Rbt.Executable>
rbdock ($Id: //depot/dev/client3/rdock/2013.1/src/exe/rbdock.cxx#4 $)

>  <Rbt.Library>
libRbt.so (2013.1, Build901 2013/11/27)

>  <Rbt.Parameter_File>
/export/apps/rDock/src/rDock_2013.1_src/data/scripts/dock_solv.prm

>  <Rbt.Receptor>
prm/blind_docking_80.prm

>  <SCORE>
-17.4133

>  <SCORE.INTER>
-17.4694

>  <SCORE.INTER.CONST>
1

>  <SCORE.INTER.POLAR>
0

>  <SCORE.INTER.ROT>
2

>  <SCORE.INTER.SOLV>
12.8107

>  <SCORE.INTER.VDW>
-20.8498

>  <SCORE.INTER.norm>
-0.919442

>  <SCORE.INTRA>
0.0561065

>  <SCORE.INTRA.DIHEDRAL>
-0.287178

>  <SCORE.INTRA.DIHEDRAL.0>
1.50031

>  <SCORE.INTRA.POLAR>
0

>  <SCORE.INTRA.POLAR.0>
0

>  <SCORE.INTRA.REPUL>
0

>  <SCORE.INTRA.REPUL.0>
0

>  <SCORE.INTRA.SOLV>
-0.440209

>  <SCORE.INTRA.SOLV.lig_0>
-37.9941

>  <SCORE.INTRA.VDW>
0.4198

>  <SCORE.INTRA.VDW.0>
-0.964461

>  <SCORE.INTRA.norm>
0.00295297

>  <SCORE.RESTR>
0

>  <SCORE.RESTR.CAVITY>
0

>  <SCORE.RESTR.norm>
0

>  <SCORE.SYSTEM>
0

>  <SCORE.SYSTEM.CONST>
0

>  <SCORE.SYSTEM.DIHEDRAL>
0

>  <SCORE.SYSTEM.SOLV>
0

>  <SCORE.SYSTEM.norm>
0

>  <SCORE.heavy>
19

>  <SCORE.norm>
-0.916489

>  <RMSD>
15.301

$$$$
ligand
 OpenBabel11021811483D
libRbt.so/2013.1/901 2013/11/27
 19 21  0  0  0  0  0  0  0  0999 V2000
   34.1664   29.9271   43.1332 C   0  0  0  0  0  0  0  0  0  0  0  0
   34.6764   30.3193   44.4196 O   0  0  0  0  0  0  0  0  0  0  0  0
   32.9113   29.0594   43.2733 C   0  0  1  0  0  0  0  0  0  0  0  0
   31.8786   29.7771   43.9485 O   0  0  0  0  0  0  0  0  0  0  0  0
   32.3545   28.6489   41.9233 C   0  0  1  0  0  0  0  0  0  0  0  0
   32.0218   27.2610   41.9764 O   0  0  0  0  0  0  0  0  0  0  0  0
   31.0881   29.4488   41.7169 C   0  0  0  0  0  0  0  0  0  0  0  0
   30.7493   30.0013   43.0894 C   0  0  2  0  0  0  0  0  0  0  0  0
   29.2256   34.0084   45.9841 N   0  0  0  0  0  0  0  0  0  0  0  0
   29.4043   32.7033   46.3010 C   0  0  2  0  0  0  0  0  0  0  0  0
   29.1811   32.2754   47.5615 N   0  0  0  0  0  0  0  0  0  0  0  0
   29.8068   31.8009   45.3814 N   0  0  0  0  0  0  0  0  0  0  0  0
   30.0490   32.1568   44.1036 C   0  0  1  0  0  0  0  0  0  0  0  0
   29.8839   33.4643   43.7084 C   0  0  1  0  0  0  0  0  0  0  0  0
   29.4432   34.4479   44.7281 C   0  0  0  0  0  0  0  0  0  0  0  0
   29.2727   35.6505   44.4296 O   0  0  0  0  0  0  0  0  0  0  0  0
   30.1912   33.5382   42.4020 N   0  0  0  0  0  0  0  0  0  0  0  0
   30.5383   32.2919   42.0056 C   0  0  0  0  0  0  0  0  0  0  0  0
   30.4488   31.4575   43.0539 N   0  0  1  0  0  0  0  0  0  0  0  0
  1  2  1  0  0  0  0
  3  1  1  6  0  0  0
  3  4  1  0  0  0  0
  3  5  1  0  0  0  0
  5  6  1  1  0  0  0
  5  7  1  0  0  0  0
  7  8  1  0  0  0  0
  8  4  1  1  0  0  0
  8 19  1  0  0  0  0
  9 15  1  0  0  0  0
  9 10  1  0  0  0  0
 10 11  1  1  0  0  0
 10 12  1  0  0  0  0
 13 12  1  1  0  0  0
 13 14  1  0  0  0  0
 13 19  1  0  0  0  0
 14 15  1  1  0  0  0
 14 17  1  0  0  0  0
 15 16  2  0  0  0  0
 17 18  1  0  0  0  0
 19 18  1  1  0  0  0
M  END
>  <CHROM.1>
60.38786502,-64.54237892,30.96999287,31.43072756,43.84460536,-0.48338975
-0.95349866,1.46464938

>  <Name>
ligand

>  <RI>
0

>  <Rbt.Current_Directory>
/home/itssahil/PROJECTS/Mol_Feturizer/New_Systems/rnas/3SKL

>  <Rbt.Executable>
rbdock ($Id: //depot/dev/client3/rdock/2013.1/src/exe/rbdock.cxx#4 $)

>  <Rbt.Library>
libRbt.so (2013.1, Build901 2013/11/27)

>  <Rbt.Parameter_File>
/export/apps/rDock/src/rDock_2013.1_src/data/scripts/dock_solv.prm

>  <Rbt.Receptor>
prm/blind_docking_80.prm

>  <SCORE>
-17.6752

>  <SCORE.INTER>
-17.6262

>  <SCORE.INTER.CONST>
1

>  <SCORE.INTER.POLAR>
0

>  <SCORE.INTER.ROT>
2

>  <SCORE.INTER.SOLV>
12.9376

>  <SCORE.INTER.VDW>
-20.9967

>  <SCORE.INTER.norm>
-0.927696

>  <SCORE.INTRA>
-0.0489734

>  <SCORE.INTRA.DIHEDRAL>
-0.303925

>  <SCORE.INTRA.DIHEDRAL.0>
1.50031

>  <SCORE.INTRA.POLAR>
0

>  <SCORE.INTRA.POLAR.0>
0

>  <SCORE.INTRA.REPUL>
0

>  <SCORE.INTRA.REPUL.0>
0

>  <SCORE.INTRA.SOLV>
-0.525308

>  <SCORE.INTRA.SOLV.lig_0>
-37.9941

>  <SCORE.INTRA.VDW>
0.365643

>  <SCORE.INTRA.VDW.0>
-0.964461

>  <SCORE.INTRA.norm>
-0.00257755

>  <SCORE.RESTR>
0

>  <SCORE.RESTR.CAVITY>
0

>  <SCORE.RESTR.norm>
0

>  <SCORE.SYSTEM>
0

>  <SCORE.SYSTEM.CONST>
0

>  <SCORE.SYSTEM.DIHEDRAL>
0

>  <SCORE.SYSTEM.SOLV>
0

>  <SCORE.SYSTEM.norm>
0

>  <SCORE.heavy>
19

>  <SCORE.norm>
-0.930274

>  <RMSD>
15.327

$$$$
ligand
 OpenBabel11021811483D
libRbt.so/2013.1/901 2013/11/27
 19 21  0  0  0  0  0  0  0  0999 V2000
   34.1658   29.9221   43.1205 C   0  0  0  0  0  0  0  0  0  0  0  0
   34.6834   30.3141   44.4039 O   0  0  0  0  0  0  0  0  0  0  0  0
   32.9111   29.0550   43.2679 C   0  0  1  0  0  0  0  0  0  0  0  0
   31.8820   29.7741   43.9472 O   0  0  0  0  0  0  0  0  0  0  0  0
   32.3475   28.6430   41.9213 C   0  0  1  0  0  0  0  0  0  0  0  0
   32.0145   27.2553   41.9778 O   0  0  0  0  0  0  0  0  0  0  0  0
   31.0805   29.4431   41.7201 C   0  0  0  0  0  0  0  0  0  0  0  0
   30.7486   29.9977   43.0935 C   0  0  2  0  0  0  0  0  0  0  0  0
   29.2346   34.0078   45.9890 N   0  0  0  0  0  0  0  0  0  0  0  0
   29.4137   32.7029   46.3064 C   0  0  2  0  0  0  0  0  0  0  0  0
   29.1939   32.2763   47.5679 N   0  0  0  0  0  0  0  0  0  0  0  0
   29.8132   31.7996   45.3866 N   0  0  0  0  0  0  0  0  0  0  0  0
   30.0520   32.1543   44.1078 C   0  0  1  0  0  0  0  0  0  0  0  0
   29.8863   33.4615   43.7118 C   0  0  1  0  0  0  0  0  0  0  0  0
   29.4488   34.4461   44.7319 C   0  0  0  0  0  0  0  0  0  0  0  0
   29.2779   35.6486   44.4329 O   0  0  0  0  0  0  0  0  0  0  0  0
   30.1899   33.5341   42.4046 N   0  0  0  0  0  0  0  0  0  0  0  0
   30.5354   32.2873   42.0083 C   0  0  0  0  0  0  0  0  0  0  0  0
   30.4486   31.4539   43.0575 N   0  0  1  0  0  0  0  0  0  0  0  0
  1  2  1  0  0  0  0
  3  1  1  6  0  0  0
  3  4  1  0  0  0  0
  3  5  1  0  0  0  0
  5  6  1  1  0  0  0
  5  7  1  0  0  0  0
  7  8  1  0  0  0  0
  8  4  1  1  0  0  0
  8 19  1  0  0  0  0
  9 15  1  0  0  0  0
  9 10  1  0  0  0  0
 10 11  1  1  0  0  0
 10 12  1  0  0  0  0
 13 12  1  1  0  0  0
 13 14  1  0  0  0  0
 13 19  1  0  0  0  0
 14 15  1  1  0  0  0
 14 17  1  0  0  0  0
 15 16  2  0  0  0  0
 17 18  1  0  0  0  0
 19 18  1  1  0  0  0
M  END
>  <CHROM.1>
60.47007439,-64.66483951,30.97190714,31.42746528,43.84528478,-0.48770043
-0.95387171,1.46112323

>  <Name>
ligand

>  <RI>
0

>  <Rbt.Current_Directory>
/home/itssahil/PROJECTS/Mol_Feturizer/New_Systems/rnas/3SKL

>  <Rbt.Executable>
rbdock ($Id: //depot/dev/client3/rdock/2013.1/src/exe/rbdock.cxx#4 $)

>  <Rbt.Library>
libRbt.so (2013.1, Build901 2013/11/27)

>  <Rbt.Parameter_File>
/export/apps/rDock/src/rDock_2013.1_src/data/scripts/dock_solv.prm

>  <Rbt.Receptor>
prm/blind_docking_80.prm

>  <SCORE>
-17.6801

>  <SCORE.INTER>
-17.6303

>  <SCORE.INTER.CONST>
1

>  <SCORE.INTER.POLAR>
0

>  <SCORE.INTER.ROT>
2

>  <SCORE.INTER.SOLV>
12.954

>  <SCORE.INTER.VDW>
-21.0049

>  <SCORE.INTER.norm>
-0.92791

>  <SCORE.INTRA>
-0.0497901

>  <SCORE.INTRA.DIHEDRAL>
-0.3038

>  <SCORE.INTRA.DIHEDRAL.0>
1.50031

>  <SCORE.INTRA.POLAR>
0

>  <SCORE.INTRA.POLAR.0>
0

>  <SCORE.INTRA.REPUL>
0

>  <SCORE.INTRA.REPUL.0>
0

>  <SCORE.INTRA.SOLV>
-0.525816

>  <SCORE.INTRA.SOLV.lig_0>
-37.9941

>  <SCORE.INTRA.VDW>
0.365017

>  <SCORE.INTRA.VDW.0>
-0.964461

>  <SCORE.INTRA.norm>
-0.00262053

>  <SCORE.RESTR>
0

>  <SCORE.RESTR.CAVITY>
0

>  <SCORE.RESTR.norm>
0

>  <SCORE.SYSTEM>
0

>  <SCORE.SYSTEM.CONST>
0

>  <SCORE.SYSTEM.DIHEDRAL>
0

>  <SCORE.SYSTEM.SOLV>
0

>  <SCORE.SYSTEM.norm>
0

>  <SCORE.heavy>
19

>  <SCORE.norm>
-0.930531

>  <RMSD>
15.327

$$$$
ligand
 OpenBabel11021811483D
libRbt.so/2013.1/901 2013/11/27
 19 21  0  0  0  0  0  0  0  0999 V2000
   34.1671   29.9308   43.1361 C   0  0  0  0  0  0  0  0  0  0  0  0
   34.6764   30.3217   44.4232 O   0  0  0  0  0  0  0  0  0  0  0  0
   32.9133   29.0609   43.2746 C   0  0  1  0  0  0  0  0  0  0  0  0
   31.8790   29.7765   43.9495 O   0  0  0  0  0  0  0  0  0  0  0  0
   32.3582   28.6505   41.9239 C   0  0  1  0  0  0  0  0  0  0  0  0
   32.0278   27.2620   41.9757 O   0  0  0  0  0  0  0  0  0  0  0  0
   31.0907   29.4485   41.7172 C   0  0  0  0  0  0  0  0  0  0  0  0
   30.7500   29.9995   43.0898 C   0  0  2  0  0  0  0  0  0  0  0  0
   29.2306   34.0047   45.9893 N   0  0  0  0  0  0  0  0  0  0  0  0
   29.4124   32.7000   46.3057 C   0  0  2  0  0  0  0  0  0  0  0  0
   29.1944   32.2720   47.5671 N   0  0  0  0  0  0  0  0  0  0  0  0
   29.8130   31.7980   45.3849 N   0  0  0  0  0  0  0  0  0  0  0  0
   30.0501   32.1541   44.1062 C   0  0  1  0  0  0  0  0  0  0  0  0
   29.8816   33.4613   43.7113 C   0  0  1  0  0  0  0  0  0  0  0  0
   29.4430   34.4443   44.7325 C   0  0  0  0  0  0  0  0  0  0  0  0
   29.2696   35.6467   44.4344 O   0  0  0  0  0  0  0  0  0  0  0  0
   30.1841   33.5354   42.4039 N   0  0  0  0  0  0  0  0  0  0  0  0
   30.5316   32.2895   42.0064 C   0  0  0  0  0  0  0  0  0  0  0  0
   30.4472   31.4552   43.0551 N   0  0  1  0  0  0  0  0  0  0  0  0
  1  2  1  0  0  0  0
  3  1  1  6  0  0  0
  3  4  1  0  0  0  0
  3  5  1  0  0  0  0
  5  6  1  1  0  0  0
  5  7  1  0  0  0  0
  7  8  1  0  0  0  0
  8  4  1  1  0  0  0
  8 19  1  0  0  0  0
  9 15  1  0  0  0  0
  9 10  1  0  0  0  0
 10 11  1  1  0  0  0
 10 12  1  0  0  0  0
 13 12  1  1  0  0  0
 13 14  1  0  0  0  0
 13 19  1  0  0  0  0
 14 15  1  1  0  0  0
 14 17  1  0  0  0  0
 15 16  2  0  0  0  0
 17 18  1  0  0  0  0
 19 18  1  1  0  0  0
M  END
>  <CHROM.1>
60.44771411,-64.28882560,30.97154088,31.42940664,43.84707305,-0.49084261
-0.95067319,1.45628782

>  <Name>
ligand

>  <RI>
0

>  <Rbt.Current_Directory>
/home/itssahil/PROJECTS/Mol_Feturizer/New_Systems/rnas/3SKL

>  <Rbt.Executable>
rbdock ($Id: //depot/dev/client3/rdock/2013.1/src/exe/rbdock.cxx#4 $)

>  <Rbt.Library>
libRbt.so (2013.1, Build901 2013/11/27)

>  <Rbt.Parameter_File>
/export/apps/rDock/src/rDock_2013.1_src/data/scripts/dock_solv.prm

>  <Rbt.Receptor>
prm/blind_docking_80.prm

>  <SCORE>
-17.6768

>  <SCORE.INTER>
-17.6292

>  <SCORE.INTER.CONST>
1

>  <SCORE.INTER.POLAR>
0

>  <SCORE.INTER.ROT>
2

>  <SCORE.INTER.SOLV>
12.9358

>  <SCORE.INTER.VDW>
-20.998

>  <SCORE.INTER.norm>
-0.927851

>  <SCORE.INTRA>
-0.0476716

>  <SCORE.INTRA.DIHEDRAL>
-0.303406

>  <SCORE.INTRA.DIHEDRAL.0>
1.50031

>  <SCORE.INTRA.POLAR>
0

>  <SCORE.INTRA.POLAR.0>
0

>  <SCORE.INTRA.REPUL>
0

>  <SCORE.INTRA.REPUL.0>
0

>  <SCORE.INTRA.SOLV>
-0.525395

>  <SCORE.INTRA.SOLV.lig_0>
-37.9941

>  <SCORE.INTRA.VDW>
0.366729

>  <SCORE.INTRA.VDW.0>
-0.964461

>  <SCORE.INTRA.norm>
-0.00250903

>  <SCORE.RESTR>
0

>  <SCORE.RESTR.CAVITY>
0

>  <SCORE.RESTR.norm>
0

>  <SCORE.SYSTEM>
0

>  <SCORE.SYSTEM.CONST>
0

>  <SCORE.SYSTEM.DIHEDRAL>
0

>  <SCORE.SYSTEM.SOLV>
0

>  <SCORE.SYSTEM.norm>
0

>  <SCORE.heavy>
19

>  <SCORE.norm>
-0.93036

>  <RMSD>
15.328

$$$$
ligand
 OpenBabel11021811483D
libRbt.so/2013.1/901 2013/11/27
 19 21  0  0  0  0  0  0  0  0999 V2000
   34.1675   29.9317   43.1292 C   0  0  0  0  0  0  0  0  0  0  0  0
   34.6778   30.3251   44.4151 O   0  0  0  0  0  0  0  0  0  0  0  0
   32.9144   29.0612   43.2706 C   0  0  1  0  0  0  0  0  0  0  0  0
   31.8814   29.7760   43.9483 O   0  0  0  0  0  0  0  0  0  0  0  0
   32.3561   28.6510   41.9211 C   0  0  1  0  0  0  0  0  0  0  0  0
   32.0265   27.2623   41.9733 O   0  0  0  0  0  0  0  0  0  0  0  0
   31.0878   29.4484   41.7178 C   0  0  0  0  0  0  0  0  0  0  0  0
   30.7502   29.9988   43.0915 C   0  0  2  0  0  0  0  0  0  0  0  0
   29.2414   34.0034   45.9974 N   0  0  0  0  0  0  0  0  0  0  0  0
   29.4251   32.6987   46.3131 C   0  0  2  0  0  0  0  0  0  0  0  0
   29.2127   32.2707   47.5754 N   0  0  0  0  0  0  0  0  0  0  0  0
   29.8221   31.7969   45.3906 N   0  0  0  0  0  0  0  0  0  0  0  0
   30.0537   32.1531   44.1108 C   0  0  1  0  0  0  0  0  0  0  0  0
   29.8829   33.4602   43.7167 C   0  0  1  0  0  0  0  0  0  0  0  0
   29.4482   34.4431   44.7397 C   0  0  0  0  0  0  0  0  0  0  0  0
   29.2731   35.6454   44.4423 O   0  0  0  0  0  0  0  0  0  0  0  0
   30.1798   33.5344   42.4079 N   0  0  0  0  0  0  0  0  0  0  0  0
   30.5261   32.2887   42.0090 C   0  0  0  0  0  0  0  0  0  0  0  0
   30.4466   31.4544   43.0581 N   0  0  1  0  0  0  0  0  0  0  0  0
  1  2  1  0  0  0  0
  3  1  1  6  0  0  0
  3  4  1  0  0  0  0
  3  5  1  0  0  0  0
  5  6  1  1  0  0  0
  5  7  1  0  0  0  0
  7  8  1  0  0  0  0
  8  4  1  1  0  0  0
  8 19  1  0  0  0  0
  9 15  1  0  0  0  0
  9 10  1  0  0  0  0
 10 11  1  1  0  0  0
 10 12  1  0  0  0  0
 13 12  1  1  0  0  0
 13 14  1  0  0  0  0
 13 19  1  0  0  0  0
 14 15  1  1  0  0  0
 14 17  1  0  0  0  0
 15 16  2  0  0  0  0
 17 18  1  0  0  0  0
 19 18  1  1  0  0  0
M  END
>  <CHROM.1>
60.30732507,-64.18573212,30.97432620,31.42903329,43.84905669,-0.49835958
-0.94959610,1.44955468

>  <Name>
ligand

>  <RI>
0

>  <Rbt.Current_Directory>
/home/itssahil/PROJECTS/Mol_Feturizer/New_Systems/rnas/3SKL

>  <Rbt.Executable>
rbdock ($Id: //depot/dev/client3/rdock/2013.1/src/exe/rbdock.cxx#4 $)

>  <Rbt.Library>
libRbt.so (2013.1, Build901 2013/11/27)

>  <Rbt.Parameter_File>
/export/apps/rDock/src/rDock_2013.1_src/data/scripts/dock_solv.prm

>  <Rbt.Receptor>
prm/blind_docking_100.prm

>  <SCORE>
-17.67

>  <SCORE.INTER>
-17.6231

>  <SCORE.INTER.CONST>
1

>  <SCORE.INTER.POLAR>
0

>  <SCORE.INTER.ROT>
2

>  <SCORE.INTER.SOLV>
12.955

>  <SCORE.INTER.VDW>
-21.0004

>  <SCORE.INTER.norm>
-0.927533

>  <SCORE.INTRA>
-0.0468617

>  <SCORE.INTRA.DIHEDRAL>
-0.303701

>  <SCORE.INTRA.DIHEDRAL.0>
1.50031

>  <SCORE.INTRA.POLAR>
0

>  <SCORE.INTRA.POLAR.0>
0

>  <SCORE.INTRA.REPUL>
0

>  <SCORE.INTRA.REPUL.0>
0

>  <SCORE.INTRA.SOLV>
-0.524616

>  <SCORE.INTRA.SOLV.lig_0>
-37.9941

>  <SCORE.INTRA.VDW>
0.367297

>  <SCORE.INTRA.VDW.0>
-0.964461

>  <SCORE.INTRA.norm>
-0.0024664

>  <SCORE.RESTR>
0

>  <SCORE.RESTR.CAVITY>
0

>  <SCORE.RESTR.norm>
0

>  <SCORE.SYSTEM>
0

>  <SCORE.SYSTEM.CONST>
0

>  <SCORE.SYSTEM.DIHEDRAL>
0

>  <SCORE.SYSTEM.SOLV>
0

>  <SCORE.SYSTEM.norm>
0

>  <SCORE.heavy>
19

>  <SCORE.norm>
-0.93

>  <RMSD>
15.331

$$$$
ligand
 OpenBabel11021811483D
libRbt.so/2013.1/901 2013/11/27
 19 21  0  0  0  0  0  0  0  0999 V2000
   29.6836   33.8550   43.6797 C   0  0  0  0  0  0  0  0  0  0  0  0
   29.8176   35.1285   44.3346 O   0  0  0  0  0  0  0  0  0  0  0  0
   30.8743   32.9419   43.9900 C   0  0  1  0  0  0  0  0  0  0  0  0
   30.9880   32.7270   45.3965 O   0  0  0  0  0  0  0  0  0  0  0  0
   30.7231   31.5773   43.3450 C   0  0  1  0  0  0  0  0  0  0  0  0
   31.9715   31.2190   42.7508 O   0  0  0  0  0  0  0  0  0  0  0  0
   30.4140   30.6042   44.4602 C   0  0  0  0  0  0  0  0  0  0  0  0
   30.7685   31.3483   45.7347 C   0  0  2  0  0  0  0  0  0  0  0  0
   28.5164   28.1967   49.1631 N   0  0  0  0  0  0  0  0  0  0  0  0
   29.5337   27.9801   48.2949 C   0  0  2  0  0  0  0  0  0  0  0  0
   30.1348   26.7727   48.2432 N   0  0  0  0  0  0  0  0  0  0  0  0
   29.9749   28.9498   47.4661 N   0  0  0  0  0  0  0  0  0  0  0  0
   29.4224   30.1798   47.4632 C   0  0  1  0  0  0  0  0  0  0  0  0
   28.3817   30.4707   48.3149 C   0  0  1  0  0  0  0  0  0  0  0  0
   27.9064   29.3977   49.2229 C   0  0  0  0  0  0  0  0  0  0  0  0
   26.9622   29.6000   50.0180 O   0  0  0  0  0  0  0  0  0  0  0  0
   28.0286   31.7506   48.1063 N   0  0  0  0  0  0  0  0  0  0  0  0
   28.8427   32.2336   47.1394 C   0  0  0  0  0  0  0  0  0  0  0  0
   29.6903   31.2655   46.7559 N   0  0  1  0  0  0  0  0  0  0  0  0
  1  2  1  0  0  0  0
  3  1  1  1  0  0  0
  3  4  1  0  0  0  0
  3  5  1  0  0  0  0
  5  6  1  1  0  0  0
  5  7  1  0  0  0  0
  7  8  1  0  0  0  0
  8  4  1  6  0  0  0
  8 19  1  0  0  0  0
  9 15  1  0  0  0  0
  9 10  1  0  0  0  0
 10 11  1  1  0  0  0
 10 12  1  0  0  0  0
 13 12  1  1  0  0  0
 13 14  1  0  0  0  0
 13 19  1  0  0  0  0
 14 15  1  1  0  0  0
 14 17  1  0  0  0  0
 15 16  2  0  0  0  0
 17 18  1  0  0  0  0
 19 18  1  1  0  0  0
M  END
>  <CHROM.1>
58.93019298,-166.51775951,29.63928434,30.91098020,46.45694996,1.06331911
0.88294498,-0.47717122

>  <Name>
ligand

>  <RI>
0

>  <Rbt.Current_Directory>
/home/itssahil/PROJECTS/Mol_Feturizer/New_Systems/rnas/3SKL

>  <Rbt.Executable>
rbdock ($Id: //depot/dev/client3/rdock/2013.1/src/exe/rbdock.cxx#4 $)

>  <Rbt.Library>
libRbt.so (2013.1, Build901 2013/11/27)

>  <Rbt.Parameter_File>
/export/apps/rDock/src/rDock_2013.1_src/data/scripts/dock_solv.prm

>  <Rbt.Receptor>
prm/blind_docking_80.prm

>  <SCORE>
-18.9316

>  <SCORE.INTER>
-18.3757

>  <SCORE.INTER.CONST>
1

>  <SCORE.INTER.POLAR>
0

>  <SCORE.INTER.ROT>
2

>  <SCORE.INTER.SOLV>
11.5582

>  <SCORE.INTER.VDW>
-21.0366

>  <SCORE.INTER.norm>
-0.967145

>  <SCORE.INTRA>
-0.555876

>  <SCORE.INTRA.DIHEDRAL>
-0.278621

>  <SCORE.INTRA.DIHEDRAL.0>
1.50031

>  <SCORE.INTRA.POLAR>
0

>  <SCORE.INTRA.POLAR.0>
0

>  <SCORE.INTRA.REPUL>
0

>  <SCORE.INTRA.REPUL.0>
0

>  <SCORE.INTRA.SOLV>
-0.55104

>  <SCORE.INTRA.SOLV.lig_0>
-37.9941

>  <SCORE.INTRA.VDW>
-0.141046

>  <SCORE.INTRA.VDW.0>
-0.964461

>  <SCORE.INTRA.norm>
-0.0292566

>  <SCORE.RESTR>
0

>  <SCORE.RESTR.CAVITY>
0

>  <SCORE.RESTR.norm>
0

>  <SCORE.SYSTEM>
0

>  <SCORE.SYSTEM.CONST>
0

>  <SCORE.SYSTEM.DIHEDRAL>
0

>  <SCORE.SYSTEM.SOLV>
0

>  <SCORE.SYSTEM.norm>
0

>  <SCORE.heavy>
19

>  <SCORE.norm>
-0.996401

>  <RMSD>
15.331

$$$$
ligand
 OpenBabel11021811483D
libRbt.so/2013.1/901 2013/11/27
 19 21  0  0  0  0  0  0  0  0999 V2000
   22.1677   14.8488   40.3549 C   0  0  0  0  0  0  0  0  0  0  0  0
   22.0240   13.4784   39.9429 O   0  0  0  0  0  0  0  0  0  0  0  0
   22.1891   14.9713   41.8821 C   0  0  1  0  0  0  0  0  0  0  0  0
   23.4080   14.4484   42.4098 O   0  0  0  0  0  0  0  0  0  0  0  0
   22.0954   16.4161   42.3346 C   0  0  1  0  0  0  0  0  0  0  0  0
   21.1569   16.4918   43.4085 O   0  0  0  0  0  0  0  0  0  0  0  0
   23.4641   16.7964   42.8522 C   0  0  0  0  0  0  0  0  0  0  0  0
   24.1900   15.4764   43.0382 C   0  0  2  0  0  0  0  0  0  0  0  0
   28.8779   17.6355   43.3839 N   0  0  0  0  0  0  0  0  0  0  0  0
   27.7495   17.8471   44.1032 C   0  0  2  0  0  0  0  0  0  0  0  0
   27.7455   18.7481   45.1082 N   0  0  0  0  0  0  0  0  0  0  0  0
   26.6089   17.1734   43.8443 N   0  0  0  0  0  0  0  0  0  0  0  0
   26.5396   16.2584   42.8563 C   0  0  1  0  0  0  0  0  0  0  0  0
   27.6454   15.9947   42.0812 C   0  0  1  0  0  0  0  0  0  0  0  0
   28.8941   16.7397   42.3762 C   0  0  0  0  0  0  0  0  0  0  0  0
   29.9318   16.5463   41.7051 O   0  0  0  0  0  0  0  0  0  0  0  0
   27.3016   15.0534   41.1856 N   0  0  0  0  0  0  0  0  0  0  0  0
   26.0029   14.7477   41.4110 C   0  0  0  0  0  0  0  0  0  0  0  0
   25.5492   15.4890   42.4344 N   0  0  1  0  0  0  0  0  0  0  0  0
  1  2  1  0  0  0  0
  3  1  1  6  0  0  0
  3  4  1  0  0  0  0
  3  5  1  0  0  0  0
  5  6  1  1  0  0  0
  5  7  1  0  0  0  0
  7  8  1  0  0  0  0
  8  4  1  6  0  0  0
  8 19  1  0  0  0  0
  9 15  1  0  0  0  0
  9 10  1  0  0  0  0
 10 11  1  1  0  0  0
 10 12  1  0  0  0  0
 13 12  1  1  0  0  0
 13 14  1  0  0  0  0
 13 19  1  0  0  0  0
 14 15  1  1  0  0  0
 14 17  1  0  0  0  0
 15 16  2  0  0  0  0
 17 18  1  0  0  0  0
 19 18  1  1  0  0  0
M  END
>  <CHROM.1>
70.90637575,-175.14483830,25.36543844,16.03123252,42.43672891,-2.77554744
0.09474109,0.83249968

>  <Name>
ligand

>  <RI>
0

>  <Rbt.Current_Directory>
/home/itssahil/PROJECTS/Mol_Feturizer/New_Systems/rnas/3SKL

>  <Rbt.Executable>
rbdock ($Id: //depot/dev/client3/rdock/2013.1/src/exe/rbdock.cxx#4 $)

>  <Rbt.Library>
libRbt.so (2013.1, Build901 2013/11/27)

>  <Rbt.Parameter_File>
/export/apps/rDock/src/rDock_2013.1_src/data/scripts/dock_solv.prm

>  <Rbt.Receptor>
prm/blind_docking_60.prm

>  <SCORE>
-13.4933

>  <SCORE.INTER>
-13.2475

>  <SCORE.INTER.CONST>
1

>  <SCORE.INTER.POLAR>
0

>  <SCORE.INTER.ROT>
2

>  <SCORE.INTER.SOLV>
8.84298

>  <SCORE.INTER.VDW>
-16.7126

>  <SCORE.INTER.norm>
-0.697234

>  <SCORE.INTRA>
-0.245809

>  <SCORE.INTRA.DIHEDRAL>
0.129246

>  <SCORE.INTRA.DIHEDRAL.0>
1.50031

>  <SCORE.INTRA.POLAR>
0

>  <SCORE.INTRA.POLAR.0>
0

>  <SCORE.INTRA.REPUL>
0

>  <SCORE.INTRA.REPUL.0>
0

>  <SCORE.INTRA.SOLV>
-0.606029

>  <SCORE.INTRA.SOLV.lig_0>
-37.9941

>  <SCORE.INTRA.VDW>
-0.00741713

>  <SCORE.INTRA.VDW.0>
-0.964461

>  <SCORE.INTRA.norm>
-0.0129373

>  <SCORE.RESTR>
5.44811e-06

>  <SCORE.RESTR.CAVITY>
5.44811e-06

>  <SCORE.RESTR.norm>
2.86743e-07

>  <SCORE.SYSTEM>
0

>  <SCORE.SYSTEM.CONST>
0

>  <SCORE.SYSTEM.DIHEDRAL>
0

>  <SCORE.SYSTEM.SOLV>
0

>  <SCORE.SYSTEM.norm>
0

>  <SCORE.heavy>
19

>  <SCORE.norm>
-0.710171

>  <RMSD>
15.353

$$$$
ligand
 OpenBabel11021811483D
libRbt.so/2013.1/901 2013/11/27
 19 21  0  0  0  0  0  0  0  0999 V2000
   33.5285   30.4259   45.4863 C   0  0  0  0  0  0  0  0  0  0  0  0
   32.9875   30.5697   46.8112 O   0  0  0  0  0  0  0  0  0  0  0  0
   32.6953   29.4508   44.6480 C   0  0  1  0  0  0  0  0  0  0  0  0
   31.3481   29.9092   44.5377 O   0  0  0  0  0  0  0  0  0  0  0  0
   33.2337   29.3165   43.2362 C   0  0  1  0  0  0  0  0  0  0  0  0
   33.2484   27.9311   42.8896 O   0  0  0  0  0  0  0  0  0  0  0  0
   32.2597   30.0375   42.3320 C   0  0  0  0  0  0  0  0  0  0  0  0
   31.0148   30.2322   43.1782 C   0  0  2  0  0  0  0  0  0  0  0  0
   28.8961   34.0063   46.0111 N   0  0  0  0  0  0  0  0  0  0  0  0
   29.2593   32.7446   46.3453 C   0  0  2  0  0  0  0  0  0  0  0  0
   29.0880   32.3025   47.6090 N   0  0  0  0  0  0  0  0  0  0  0  0
   29.7978   31.9003   45.4402 N   0  0  0  0  0  0  0  0  0  0  0  0
   29.9986   32.2738   44.1602 C   0  0  1  0  0  0  0  0  0  0  0  0
   29.6493   33.5390   43.7477 C   0  0  1  0  0  0  0  0  0  0  0  0
   29.0601   34.4591   44.7516 C   0  0  0  0  0  0  0  0  0  0  0  0
   28.7197   35.6209   44.4371 O   0  0  0  0  0  0  0  0  0  0  0  0
   29.9557   33.6426   42.4432 N   0  0  0  0  0  0  0  0  0  0  0  0
   30.4840   32.4558   42.0649 C   0  0  0  0  0  0  0  0  0  0  0  0
   30.5063   31.6287   43.1224 N   0  0  1  0  0  0  0  0  0  0  0  0
  1  2  1  0  0  0  0
  3  1  1  1  0  0  0
  3  4  1  0  0  0  0
  3  5  1  0  0  0  0
  5  6  1  6  0  0  0
  5  7  1  0  0  0  0
  7  8  1  0  0  0  0
  8  4  1  1  0  0  0
  8 19  1  0  0  0  0
  9 15  1  0  0  0  0
  9 10  1  0  0  0  0
 10 11  1  1  0  0  0
 10 12  1  0  0  0  0
 13 12  1  1  0  0  0
 13 14  1  0  0  0  0
 13 19  1  0  0  0  0
 14 15  1  1  0  0  0
 14 17  1  0  0  0  0
 15 16  2  0  0  0  0
 17 18  1  0  0  0  0
 19 18  1  1  0  0  0
M  END
>  <CHROM.1>
59.45415097,-22.10024552,30.87769618,31.65628908,44.40466682,-0.16170043
-0.90172940,1.60893599

>  <Name>
ligand

>  <RI>
0

>  <Rbt.Current_Directory>
/home/itssahil/PROJECTS/Mol_Feturizer/New_Systems/rnas/3SKL

>  <Rbt.Executable>
rbdock ($Id: //depot/dev/client3/rdock/2013.1/src/exe/rbdock.cxx#4 $)

>  <Rbt.Library>
libRbt.so (2013.1, Build901 2013/11/27)

>  <Rbt.Parameter_File>
/export/apps/rDock/src/rDock_2013.1_src/data/scripts/dock_solv.prm

>  <Rbt.Receptor>
prm/blind_docking_80.prm

>  <SCORE>
-14.087

>  <SCORE.INTER>
-13.7554

>  <SCORE.INTER.CONST>
1

>  <SCORE.INTER.POLAR>
0

>  <SCORE.INTER.ROT>
2

>  <SCORE.INTER.SOLV>
10.9594

>  <SCORE.INTER.VDW>
-17.7568

>  <SCORE.INTER.norm>
-0.723969

>  <SCORE.INTRA>
-0.331583

>  <SCORE.INTRA.DIHEDRAL>
-0.274265

>  <SCORE.INTRA.DIHEDRAL.0>
1.50031

>  <SCORE.INTRA.POLAR>
0

>  <SCORE.INTRA.POLAR.0>
0

>  <SCORE.INTRA.REPUL>
0

>  <SCORE.INTRA.REPUL.0>
0

>  <SCORE.INTRA.SOLV>
-0.454568

>  <SCORE.INTRA.SOLV.lig_0>
-37.9941

>  <SCORE.INTRA.VDW>
0.0328334

>  <SCORE.INTRA.VDW.0>
-0.964461

>  <SCORE.INTRA.norm>
-0.0174517

>  <SCORE.RESTR>
0

>  <SCORE.RESTR.CAVITY>
0

>  <SCORE.RESTR.norm>
0

>  <SCORE.SYSTEM>
0

>  <SCORE.SYSTEM.CONST>
0

>  <SCORE.SYSTEM.DIHEDRAL>
0

>  <SCORE.SYSTEM.SOLV>
0

>  <SCORE.SYSTEM.norm>
0

>  <SCORE.heavy>
19

>  <SCORE.norm>
-0.741421

>  <RMSD>
15.609

$$$$
ligand
 OpenBabel11021811483D
libRbt.so/2013.1/901 2013/11/27
 19 21  0  0  0  0  0  0  0  0999 V2000
   28.8901   32.4592   47.5275 C   0  0  0  0  0  0  0  0  0  0  0  0
   27.4821   32.1678   47.4914 O   0  0  0  0  0  0  0  0  0  0  0  0
   29.7248   31.2084   47.2330 C   0  0  1  0  0  0  0  0  0  0  0  0
   29.5073   30.7645   45.8940 O   0  0  0  0  0  0  0  0  0  0  0  0
   31.2114   31.4749   47.3744 C   0  0  1  0  0  0  0  0  0  0  0  0
   31.7963   30.3920   48.0989 O   0  0  0  0  0  0  0  0  0  0  0  0
   31.7822   31.4928   45.9744 C   0  0  0  0  0  0  0  0  0  0  0  0
   30.7047   30.8675   45.1073 C   0  0  2  0  0  0  0  0  0  0  0  0
   28.9437   35.4490   43.4743 N   0  0  0  0  0  0  0  0  0  0  0  0
   29.0837   34.9480   44.7253 C   0  0  2  0  0  0  0  0  0  0  0  0
   28.7412   35.6946   45.7963 N   0  0  0  0  0  0  0  0  0  0  0  0
   29.5643   33.7051   44.9398 N   0  0  0  0  0  0  0  0  0  0  0  0
   29.9269   32.9036   43.9179 C   0  0  1  0  0  0  0  0  0  0  0  0
   29.8078   33.3439   42.6198 C   0  0  1  0  0  0  0  0  0  0  0  0
   29.2803   34.7125   42.3962 C   0  0  0  0  0  0  0  0  0  0  0  0
   29.1461   35.1685   41.2392 O   0  0  0  0  0  0  0  0  0  0  0  0
   30.2360   32.3579   41.8130 N   0  0  0  0  0  0  0  0  0  0  0  0
   30.6104   31.3295   42.6086 C   0  0  0  0  0  0  0  0  0  0  0  0
   30.4183   31.6753   43.8917 N   0  0  1  0  0  0  0  0  0  0  0  0
  1  2  1  0  0  0  0
  3  1  1  6  0  0  0
  3  4  1  0  0  0  0
  3  5  1  0  0  0  0
  5  6  1  1  0  0  0
  5  7  1  0  0  0  0
  7  8  1  0  0  0  0
  8  4  1  1  0  0  0
  8 19  1  0  0  0  0
  9 15  1  0  0  0  0
  9 10  1  0  0  0  0
 10 11  1  1  0  0  0
 10 12  1  0  0  0  0
 13 12  1  1  0  0  0
 13 14  1  0  0  0  0
 13 19  1  0  0  0  0
 14 15  1  1  0  0  0
 14 17  1  0  0  0  0
 15 16  2  0  0  0  0
 17 18  1  0  0  0  0
 19 18  1  1  0  0  0
M  END
>  <CHROM.1>
65.39375753,56.17220652,29.81941279,32.71464019,44.91566498,1.26990429,-0.96831217
1.93457899

>  <Name>
ligand

>  <RI>
0

>  <Rbt.Current_Directory>
/home/itssahil/PROJECTS/Mol_Feturizer/New_Systems/rnas/3SKL

>  <Rbt.Executable>
rbdock ($Id: //depot/dev/client3/rdock/2013.1/src/exe/rbdock.cxx#4 $)

>  <Rbt.Library>
libRbt.so (2013.1, Build901 2013/11/27)

>  <Rbt.Parameter_File>
/export/apps/rDock/src/rDock_2013.1_src/data/scripts/dock_solv.prm

>  <Rbt.Receptor>
prm/blind_docking_100.prm

>  <SCORE>
-15.344

>  <SCORE.INTER>
-14.9566

>  <SCORE.INTER.CONST>
1

>  <SCORE.INTER.POLAR>
0

>  <SCORE.INTER.ROT>
2

>  <SCORE.INTER.SOLV>
16.9267

>  <SCORE.INTER.VDW>
-20.5466

>  <SCORE.INTER.norm>
-0.787189

>  <SCORE.INTRA>
-0.403696

>  <SCORE.INTRA.DIHEDRAL>
-0.197564

>  <SCORE.INTRA.DIHEDRAL.0>
1.50031

>  <SCORE.INTRA.POLAR>
0

>  <SCORE.INTRA.POLAR.0>
0

>  <SCORE.INTRA.REPUL>
0

>  <SCORE.INTRA.REPUL.0>
0

>  <SCORE.INTRA.SOLV>
0.979028

>  <SCORE.INTRA.SOLV.lig_0>
-37.9941

>  <SCORE.INTRA.VDW>
-0.794428

>  <SCORE.INTRA.VDW.0>
-0.964461

>  <SCORE.INTRA.norm>
-0.0212471

>  <SCORE.RESTR>
0.0163067

>  <SCORE.RESTR.CAVITY>
0.0163067

>  <SCORE.RESTR.norm>
0.000858249

>  <SCORE.SYSTEM>
0

>  <SCORE.SYSTEM.CONST>
0

>  <SCORE.SYSTEM.DIHEDRAL>
0

>  <SCORE.SYSTEM.SOLV>
0

>  <SCORE.SYSTEM.norm>
0

>  <SCORE.heavy>
19

>  <SCORE.norm>
-0.807578

>  <RMSD>
15.614

$$$$
ligand
 OpenBabel11021811483D
libRbt.so/2013.1/901 2013/11/27
 19 21  0  0  0  0  0  0  0  0999 V2000
   25.2942   34.7034   47.1398 C   0  0  0  0  0  0  0  0  0  0  0  0
   24.5968   34.2600   45.9627 O   0  0  0  0  0  0  0  0  0  0  0  0
   25.1111   33.7183   48.2992 C   0  0  1  0  0  0  0  0  0  0  0  0
   25.6814   32.4507   47.9746 O   0  0  0  0  0  0  0  0  0  0  0  0
   25.7960   34.2004   49.5639 C   0  0  1  0  0  0  0  0  0  0  0  0
   24.9039   34.0045   50.6619 O   0  0  0  0  0  0  0  0  0  0  0  0
   27.0121   33.3232   49.7580 C   0  0  0  0  0  0  0  0  0  0  0  0
   26.7883   32.1389   48.8354 C   0  0  2  0  0  0  0  0  0  0  0  0
   30.1762   28.4318   47.5956 N   0  0  0  0  0  0  0  0  0  0  0  0
   29.1337   28.4264   48.4609 C   0  0  2  0  0  0  0  0  0  0  0  0
   28.8406   27.3107   49.1616 N   0  0  0  0  0  0  0  0  0  0  0  0
   28.3638   29.5192   48.6476 N   0  0  0  0  0  0  0  0  0  0  0  0
   28.5974   30.6681   47.9815 C   0  0  1  0  0  0  0  0  0  0  0  0
   29.6422   30.7486   47.0899 C   0  0  1  0  0  0  0  0  0  0  0  0
   30.4805   29.5406   46.8913 C   0  0  0  0  0  0  0  0  0  0  0  0
   31.4463   29.5520   46.0965 O   0  0  0  0  0  0  0  0  0  0  0  0
   29.6443   31.9896   46.5739 N   0  0  0  0  0  0  0  0  0  0  0  0
   28.6149   32.6574   47.1441 C   0  0  0  0  0  0  0  0  0  0  0  0
   27.9823   31.8395   48.0006 N   0  0  1  0  0  0  0  0  0  0  0  0
  1  2  1  0  0  0  0
  3  1  1  6  0  0  0
  3  4  1  0  0  0  0
  3  5  1  0  0  0  0
  5  6  1  1  0  0  0
  5  7  1  0  0  0  0
  7  8  1  0  0  0  0
  8  4  1  6  0  0  0
  8 19  1  0  0  0  0
  9 15  1  0  0  0  0
  9 10  1  0  0  0  0
 10 11  1  6  0  0  0
 10 12  1  0  0  0  0
 13 12  1  6  0  0  0
 13 14  1  0  0  0  0
 13 19  1  0  0  0  0
 14 15  1  6  0  0  0
 14 17  1  0  0  0  0
 15 16  2  0  0  0  0
 17 18  1  0  0  0  0
 19 18  1  6  0  0  0
M  END
>  <CHROM.1>
63.18193724,-117.29299049,27.72433205,31.60636467,47.98985158,-2.75346166
-0.73889500,2.29936413

>  <Name>
ligand

>  <RI>
0

>  <Rbt.Current_Directory>
/home/itssahil/PROJECTS/Mol_Feturizer/New_Systems/rnas/3SKL

>  <Rbt.Executable>
rbdock ($Id: //depot/dev/client3/rdock/2013.1/src/exe/rbdock.cxx#4 $)

>  <Rbt.Library>
libRbt.so (2013.1, Build901 2013/11/27)

>  <Rbt.Parameter_File>
/export/apps/rDock/src/rDock_2013.1_src/data/scripts/dock_solv.prm

>  <Rbt.Receptor>
prm/blind_docking_80.prm

>  <SCORE>
-14.8438

>  <SCORE.INTER>
-14.265

>  <SCORE.INTER.CONST>
1

>  <SCORE.INTER.POLAR>
0

>  <SCORE.INTER.ROT>
2

>  <SCORE.INTER.SOLV>
8.95647

>  <SCORE.INTER.VDW>
-17.4288

>  <SCORE.INTER.norm>
-0.75079

>  <SCORE.INTRA>
-0.578901

>  <SCORE.INTRA.DIHEDRAL>
-0.263731

>  <SCORE.INTRA.DIHEDRAL.0>
1.50031

>  <SCORE.INTRA.POLAR>
0

>  <SCORE.INTRA.POLAR.0>
0

>  <SCORE.INTRA.REPUL>
0

>  <SCORE.INTRA.REPUL.0>
0

>  <SCORE.INTRA.SOLV>
-0.568211

>  <SCORE.INTRA.SOLV.lig_0>
-37.9941

>  <SCORE.INTRA.VDW>
-0.16293

>  <SCORE.INTRA.VDW.0>
-0.964461

>  <SCORE.INTRA.norm>
-0.0304685

>  <SCORE.RESTR>
7.7093e-05

>  <SCORE.RESTR.CAVITY>
7.7093e-05

>  <SCORE.RESTR.norm>
4.05753e-06

>  <SCORE.SYSTEM>
0

>  <SCORE.SYSTEM.CONST>
0

>  <SCORE.SYSTEM.DIHEDRAL>
0

>  <SCORE.SYSTEM.SOLV>
0

>  <SCORE.SYSTEM.norm>
0

>  <SCORE.heavy>
19

>  <SCORE.norm>
-0.781255

>  <RMSD>
15.676

$$$$
ligand
 OpenBabel11021811483D
libRbt.so/2013.1/901 2013/11/27
 19 21  0  0  0  0  0  0  0  0999 V2000
   30.0214   30.9177   46.1437 C   0  0  0  0  0  0  0  0  0  0  0  0
   30.8733   30.1195   46.9839 O   0  0  0  0  0  0  0  0  0  0  0  0
   30.8194   32.0025   45.4128 C   0  0  1  0  0  0  0  0  0  0  0  0
   31.8387   31.4158   44.6039 O   0  0  0  0  0  0  0  0  0  0  0  0
   29.9408   32.8248   44.4893 C   0  0  1  0  0  0  0  0  0  0  0  0
   30.2689   34.2037   44.6650 O   0  0  0  0  0  0  0  0  0  0  0  0
   30.2933   32.4133   43.0778 C   0  0  0  0  0  0  0  0  0  0  0  0
   31.6061   31.6627   43.2081 C   0  0  2  0  0  0  0  0  0  0  0  0
   34.3494   27.3761   42.2824 N   0  0  0  0  0  0  0  0  0  0  0  0
   34.6447   28.4762   43.0159 C   0  0  2  0  0  0  0  0  0  0  0  0
   35.8273   28.5632   43.6607 N   0  0  0  0  0  0  0  0  0  0  0  0
   33.7792   29.5061   43.1263 N   0  0  0  0  0  0  0  0  0  0  0  0
   32.5799   29.4878   42.5103 C   0  0  1  0  0  0  0  0  0  0  0  0
   32.2140   28.4050   41.7443 C   0  0  1  0  0  0  0  0  0  0  0  0
   33.1724   27.2780   41.6318 C   0  0  0  0  0  0  0  0  0  0  0  0
   32.8986   26.2672   40.9478 O   0  0  0  0  0  0  0  0  0  0  0  0
   30.9857   28.6470   41.2551 N   0  0  0  0  0  0  0  0  0  0  0  0
   30.6080   29.8618   41.7160 C   0  0  0  0  0  0  0  0  0  0  0  0
   31.5892   30.3645   42.4824 N   0  0  1  0  0  0  0  0  0  0  0  0
  1  2  1  0  0  0  0
  3  1  1  6  0  0  0
  3  4  1  0  0  0  0
  3  5  1  0  0  0  0
  5  6  1  6  0  0  0
  5  7  1  0  0  0  0
  7  8  1  0  0  0  0
  8  4  1  1  0  0  0
  8 19  1  0  0  0  0
  9 15  1  0  0  0  0
  9 10  1  0  0  0  0
 10 11  1  1  0  0  0
 10 12  1  0  0  0  0
 13 12  1  1  0  0  0
 13 14  1  0  0  0  0
 13 19  1  0  0  0  0
 14 15  1  1  0  0  0
 14 17  1  0  0  0  0
 15 16  2  0  0  0  0
 17 18  1  0  0  0  0
 19 18  1  1  0  0  0
M  END
>  <CHROM.1>
59.13993066,-56.01729417,31.98932253,30.02950728,43.37734108,-2.25941802
0.67473965,-2.09942361

>  <Name>
ligand

>  <RI>
0

>  <Rbt.Current_Directory>
/home/itssahil/PROJECTS/Mol_Feturizer/New_Systems/rnas/3SKL

>  <Rbt.Executable>
rbdock ($Id: //depot/dev/client3/rdock/2013.1/src/exe/rbdock.cxx#4 $)

>  <Rbt.Library>
libRbt.so (2013.1, Build901 2013/11/27)

>  <Rbt.Parameter_File>
/export/apps/rDock/src/rDock_2013.1_src/data/scripts/dock_solv.prm

>  <Rbt.Receptor>
prm/blind_docking_100.prm

>  <SCORE>
-17.6607

>  <SCORE.INTER>
-17.6091

>  <SCORE.INTER.CONST>
1

>  <SCORE.INTER.POLAR>
0

>  <SCORE.INTER.ROT>
2

>  <SCORE.INTER.SOLV>
8.59398

>  <SCORE.INTER.VDW>
-19.5374

>  <SCORE.INTER.norm>
-0.926794

>  <SCORE.INTRA>
-0.0515981

>  <SCORE.INTRA.DIHEDRAL>
-0.291143

>  <SCORE.INTRA.DIHEDRAL.0>
1.50031

>  <SCORE.INTRA.POLAR>
0

>  <SCORE.INTRA.POLAR.0>
0

>  <SCORE.INTRA.REPUL>
0

>  <SCORE.INTRA.REPUL.0>
0

>  <SCORE.INTRA.SOLV>
-0.512292

>  <SCORE.INTRA.SOLV.lig_0>
-37.9941

>  <SCORE.INTRA.VDW>
0.35012

>  <SCORE.INTRA.VDW.0>
-0.964461

>  <SCORE.INTRA.norm>
-0.00271569

>  <SCORE.RESTR>
0

>  <SCORE.RESTR.CAVITY>
0

>  <SCORE.RESTR.norm>
0

>  <SCORE.SYSTEM>
0

>  <SCORE.SYSTEM.CONST>
0

>  <SCORE.SYSTEM.DIHEDRAL>
0

>  <SCORE.SYSTEM.SOLV>
0

>  <SCORE.SYSTEM.norm>
0

>  <SCORE.heavy>
19

>  <SCORE.norm>
-0.92951

>  <RMSD>
15.826

$$$$
ligand
 OpenBabel11021811483D
libRbt.so/2013.1/901 2013/11/27
 19 21  0  0  0  0  0  0  0  0999 V2000
   30.2881   29.7235   46.7689 C   0  0  0  0  0  0  0  0  0  0  0  0
   29.2945   29.9993   47.7715 O   0  0  0  0  0  0  0  0  0  0  0  0
   30.9365   31.0146   46.2583 C   0  0  1  0  0  0  0  0  0  0  0  0
   31.9025   30.7248   45.2481 O   0  0  0  0  0  0  0  0  0  0  0  0
   29.9174   31.9523   45.6394 C   0  0  1  0  0  0  0  0  0  0  0  0
   30.1737   33.2740   46.1160 O   0  0  0  0  0  0  0  0  0  0  0  0
   30.1484   31.9166   44.1457 C   0  0  0  0  0  0  0  0  0  0  0  0
   31.5126   31.2724   43.9786 C   0  0  2  0  0  0  0  0  0  0  0  0
   33.6811   26.7529   42.7020 N   0  0  0  0  0  0  0  0  0  0  0  0
   33.9180   27.5869   43.7431 C   0  0  2  0  0  0  0  0  0  0  0  0
   34.8536   27.2725   44.6637 N   0  0  0  0  0  0  0  0  0  0  0  0
   33.2360   28.7420   43.8935 N   0  0  0  0  0  0  0  0  0  0  0  0
   32.2870   29.1198   43.0132 C   0  0  1  0  0  0  0  0  0  0  0  0
   31.9961   28.3249   41.9286 C   0  0  1  0  0  0  0  0  0  0  0  0
   32.7506   27.0566   41.7746 C   0  0  0  0  0  0  0  0  0  0  0  0
   32.5335   26.2929   40.8080 O   0  0  0  0  0  0  0  0  0  0  0  0
   31.0241   28.9317   41.2262 N   0  0  0  0  0  0  0  0  0  0  0  0
   30.7268   30.0821   41.8735 C   0  0  0  0  0  0  0  0  0  0  0  0
   31.5036   30.1851   42.9639 N   0  0  1  0  0  0  0  0  0  0  0  0
  1  2  1  0  0  0  0
  3  1  1  6  0  0  0
  3  4  1  0  0  0  0
  3  5  1  0  0  0  0
  5  6  1  1  0  0  0
  5  7  1  0  0  0  0
  7  8  1  0  0  0  0
  8  4  1  1  0  0  0
  8 19  1  0  0  0  0
  9 15  1  0  0  0  0
  9 10  1  0  0  0  0
 10 11  1  1  0  0  0
 10 12  1  0  0  0  0
 13 12  1  1  0  0  0
 13 14  1  0  0  0  0
 13 19  1  0  0  0  0
 14 15  1  1  0  0  0
 14 17  1  0  0  0  0
 15 16  2  0  0  0  0
 17 18  1  0  0  0  0
 19 18  1  1  0  0  0
M  END
>  <CHROM.1>
-178.98426502,-29.36474133,31.68432839,29.52194483,43.99470480,-2.35554996
0.89665019,-1.72773367

>  <Name>
ligand

>  <RI>
0

>  <Rbt.Current_Directory>
/home/itssahil/PROJECTS/Mol_Feturizer/New_Systems/rnas/3SKL

>  <Rbt.Executable>
rbdock ($Id: //depot/dev/client3/rdock/2013.1/src/exe/rbdock.cxx#4 $)

>  <Rbt.Library>
libRbt.so (2013.1, Build901 2013/11/27)

>  <Rbt.Parameter_File>
/export/apps/rDock/src/rDock_2013.1_src/data/scripts/dock_solv.prm

>  <Rbt.Receptor>
prm/blind_docking_100.prm

>  <SCORE>
-18.3032

>  <SCORE.INTER>
-18.2534

>  <SCORE.INTER.CONST>
1

>  <SCORE.INTER.POLAR>
0

>  <SCORE.INTER.ROT>
2

>  <SCORE.INTER.SOLV>
9.3625

>  <SCORE.INTER.VDW>
-20.2231

>  <SCORE.INTER.norm>
-0.960703

>  <SCORE.INTRA>
-0.0498371

>  <SCORE.INTRA.DIHEDRAL>
-0.269241

>  <SCORE.INTRA.DIHEDRAL.0>
1.50031

>  <SCORE.INTRA.POLAR>
0

>  <SCORE.INTRA.POLAR.0>
0

>  <SCORE.INTRA.REPUL>
0

>  <SCORE.INTRA.REPUL.0>
0

>  <SCORE.INTRA.SOLV>
-0.390458

>  <SCORE.INTRA.SOLV.lig_0>
-37.9941

>  <SCORE.INTRA.VDW>
0.280013

>  <SCORE.INTRA.VDW.0>
-0.964461

>  <SCORE.INTRA.norm>
-0.00262301

>  <SCORE.RESTR>
0

>  <SCORE.RESTR.CAVITY>
0

>  <SCORE.RESTR.norm>
0

>  <SCORE.SYSTEM>
0

>  <SCORE.SYSTEM.CONST>
0

>  <SCORE.SYSTEM.DIHEDRAL>
0

>  <SCORE.SYSTEM.SOLV>
0

>  <SCORE.SYSTEM.norm>
0

>  <SCORE.heavy>
19

>  <SCORE.norm>
-0.963326

>  <RMSD>
15.834

$$$$
ligand
 OpenBabel11021811483D
libRbt.so/2013.1/901 2013/11/27
 19 21  0  0  0  0  0  0  0  0999 V2000
   30.6306   30.9292   46.5074 C   0  0  0  0  0  0  0  0  0  0  0  0
   30.0573   29.8620   45.7321 O   0  0  0  0  0  0  0  0  0  0  0  0
   31.1374   32.0608   45.6070 C   0  0  1  0  0  0  0  0  0  0  0  0
   32.0567   31.5569   44.6383 O   0  0  0  0  0  0  0  0  0  0  0  0
   30.0076   32.7232   44.8418 C   0  0  1  0  0  0  0  0  0  0  0  0
   30.1857   34.1386   44.9112 O   0  0  0  0  0  0  0  0  0  0  0  0
   30.1442   32.2822   43.4020 C   0  0  0  0  0  0  0  0  0  0  0  0
   31.5426   31.7003   43.3047 C   0  0  2  0  0  0  0  0  0  0  0  0
   34.2633   27.3323   42.7785 N   0  0  0  0  0  0  0  0  0  0  0  0
   34.5220   28.4577   43.4872 C   0  0  2  0  0  0  0  0  0  0  0  0
   35.6515   28.5523   44.2200 N   0  0  0  0  0  0  0  0  0  0  0  0
   33.6714   29.5058   43.4855 N   0  0  0  0  0  0  0  0  0  0  0  0
   32.5243   29.4814   42.7772 C   0  0  1  0  0  0  0  0  0  0  0  0
   32.1982   28.3732   42.0300 C   0  0  1  0  0  0  0  0  0  0  0  0
   33.1396   27.2264   42.0409 C   0  0  0  0  0  0  0  0  0  0  0  0
   32.9002   26.1920   41.3796 O   0  0  0  0  0  0  0  0  0  0  0  0
   31.0175   28.6146   41.4349 N   0  0  0  0  0  0  0  0  0  0  0  0
   30.6292   29.8542   41.8135 C   0  0  0  0  0  0  0  0  0  0  0  0
   31.5568   30.3727   42.6343 N   0  0  1  0  0  0  0  0  0  0  0  0
  1  2  1  0  0  0  0
  3  1  1  6  0  0  0
  3  4  1  0  0  0  0
  3  5  1  0  0  0  0
  5  6  1  6  0  0  0
  5  7  1  0  0  0  0
  7  8  1  0  0  0  0
  8  4  1  1  0  0  0
  8 19  1  0  0  0  0
  9 15  1  0  0  0  0
  9 10  1  0  0  0  0
 10 11  1  1  0  0  0
 10 12  1  0  0  0  0
 13 12  1  1  0  0  0
 13 14  1  0  0  0  0
 13 19  1  0  0  0  0
 14 15  1  1  0  0  0
 14 17  1  0  0  0  0
 15 16  2  0  0  0  0
 17 18  1  0  0  0  0
 19 18  1  1  0  0  0
M  END
>  <CHROM.1>
-55.14484488,-38.68792694,31.95911211,29.99750070,43.57732355,-2.18714909
0.55329381,-2.29312815

>  <Name>
ligand

>  <RI>
0

>  <Rbt.Current_Directory>
/home/itssahil/PROJECTS/Mol_Feturizer/New_Systems/rnas/3SKL

>  <Rbt.Executable>
rbdock ($Id: //depot/dev/client3/rdock/2013.1/src/exe/rbdock.cxx#4 $)

>  <Rbt.Library>
libRbt.so (2013.1, Build901 2013/11/27)

>  <Rbt.Parameter_File>
/export/apps/rDock/src/rDock_2013.1_src/data/scripts/dock_solv.prm

>  <Rbt.Receptor>
prm/blind_docking_100.prm

>  <SCORE>
-15.9048

>  <SCORE.INTER>
-15.7612

>  <SCORE.INTER.CONST>
1

>  <SCORE.INTER.POLAR>
0

>  <SCORE.INTER.ROT>
2

>  <SCORE.INTER.SOLV>
8.60798

>  <SCORE.INTER.VDW>
-18.3101

>  <SCORE.INTER.norm>
-0.829537

>  <SCORE.INTRA>
-0.143628

>  <SCORE.INTRA.DIHEDRAL>
-0.189808

>  <SCORE.INTRA.DIHEDRAL.0>
1.50031

>  <SCORE.INTRA.POLAR>
0

>  <SCORE.INTRA.POLAR.0>
0

>  <SCORE.INTRA.REPUL>
0

>  <SCORE.INTRA.REPUL.0>
0

>  <SCORE.INTRA.SOLV>
-0.000581477

>  <SCORE.INTRA.SOLV.lig_0>
-37.9941

>  <SCORE.INTRA.VDW>
-0.0484336

>  <SCORE.INTRA.VDW.0>
-0.964461

>  <SCORE.INTRA.norm>
-0.00755938

>  <SCORE.RESTR>
0

>  <SCORE.RESTR.CAVITY>
0

>  <SCORE.RESTR.norm>
0

>  <SCORE.SYSTEM>
0

>  <SCORE.SYSTEM.CONST>
0

>  <SCORE.SYSTEM.DIHEDRAL>
0

>  <SCORE.SYSTEM.SOLV>
0

>  <SCORE.SYSTEM.norm>
0

>  <SCORE.heavy>
19

>  <SCORE.norm>
-0.837096

>  <RMSD>
15.841

$$$$
ligand
 OpenBabel11021811483D
libRbt.so/2013.1/901 2013/11/27
 19 21  0  0  0  0  0  0  0  0999 V2000
   30.3329   29.6281   46.7725 C   0  0  0  0  0  0  0  0  0  0  0  0
   29.3677   29.8904   47.8060 O   0  0  0  0  0  0  0  0  0  0  0  0
   30.9933   30.9225   46.2865 C   0  0  1  0  0  0  0  0  0  0  0  0
   31.9482   30.6443   45.2626 O   0  0  0  0  0  0  0  0  0  0  0  0
   29.9813   31.8865   45.6970 C   0  0  1  0  0  0  0  0  0  0  0  0
   30.2574   33.1938   46.2017 O   0  0  0  0  0  0  0  0  0  0  0  0
   30.2009   31.8822   44.2011 C   0  0  0  0  0  0  0  0  0  0  0  0
   31.5557   31.2255   44.0090 C   0  0  2  0  0  0  0  0  0  0  0  0
   33.6496   26.7040   42.6198 N   0  0  0  0  0  0  0  0  0  0  0  0
   33.9036   27.5103   43.6785 C   0  0  2  0  0  0  0  0  0  0  0  0
   34.8382   27.1608   44.5874 N   0  0  0  0  0  0  0  0  0  0  0  0
   33.2399   28.6718   43.8583 N   0  0  0  0  0  0  0  0  0  0  0  0
   32.2931   29.0841   42.9912 C   0  0  1  0  0  0  0  0  0  0  0  0
   31.9855   28.3186   41.8901 C   0  0  1  0  0  0  0  0  0  0  0  0
   32.7199   27.0429   41.7038 C   0  0  0  0  0  0  0  0  0  0  0  0
   32.4872   26.3048   40.7211 O   0  0  0  0  0  0  0  0  0  0  0  0
   31.0199   28.9560   41.2062 N   0  0  0  0  0  0  0  0  0  0  0  0
   30.7430   30.0957   41.8809 C   0  0  0  0  0  0  0  0  0  0  0  0
   31.5259   30.1619   42.9698 N   0  0  1  0  0  0  0  0  0  0  0  0
  1  2  1  0  0  0  0
  3  1  1  6  0  0  0
  3  4  1  0  0  0  0
  3  5  1  0  0  0  0
  5  6  1  1  0  0  0
  5  7  1  0  0  0  0
  7  8  1  0  0  0  0
  8  4  1  1  0  0  0
  8 19  1  0  0  0  0
  9 15  1  0  0  0  0
  9 10  1  0  0  0  0
 10 11  1  1  0  0  0
 10 12  1  0  0  0  0
 13 12  1  1  0  0  0
 13 14  1  0  0  0  0
 13 19  1  0  0  0  0
 14 15  1  1  0  0  0
 14 17  1  0  0  0  0
 15 16  2  0  0  0  0
 17 18  1  0  0  0  0
 19 18  1  1  0  0  0
M  END
>  <CHROM.1>
179.95642409,-29.11769552,31.70440312,29.47121777,43.98678612,-2.34263071
0.91241466,-1.71315572

>  <Name>
ligand

>  <RI>
0

>  <Rbt.Current_Directory>
/home/itssahil/PROJECTS/Mol_Feturizer/New_Systems/rnas/3SKL

>  <Rbt.Executable>
rbdock ($Id: //depot/dev/client3/rdock/2013.1/src/exe/rbdock.cxx#4 $)

>  <Rbt.Library>
libRbt.so (2013.1, Build901 2013/11/27)

>  <Rbt.Parameter_File>
/export/apps/rDock/src/rDock_2013.1_src/data/scripts/dock_solv.prm

>  <Rbt.Receptor>
prm/blind_docking_100.prm

>  <SCORE>
-18.3681

>  <SCORE.INTER>
-18.3056

>  <SCORE.INTER.CONST>
1

>  <SCORE.INTER.POLAR>
0

>  <SCORE.INTER.ROT>
2

>  <SCORE.INTER.SOLV>
9.74385

>  <SCORE.INTER.VDW>
-20.385

>  <SCORE.INTER.norm>
-0.963453

>  <SCORE.INTRA>
-0.0624945

>  <SCORE.INTRA.DIHEDRAL>
-0.273292

>  <SCORE.INTRA.DIHEDRAL.0>
1.50031

>  <SCORE.INTRA.POLAR>
0

>  <SCORE.INTRA.POLAR.0>
0

>  <SCORE.INTRA.REPUL>
0

>  <SCORE.INTRA.REPUL.0>
0

>  <SCORE.INTRA.SOLV>
-0.395241

>  <SCORE.INTRA.SOLV.lig_0>
-37.9941

>  <SCORE.INTRA.VDW>
0.271772

>  <SCORE.INTRA.VDW.0>
-0.964461

>  <SCORE.INTRA.norm>
-0.00328919

>  <SCORE.RESTR>
0

>  <SCORE.RESTR.CAVITY>
0

>  <SCORE.RESTR.norm>
0

>  <SCORE.SYSTEM>
0

>  <SCORE.SYSTEM.CONST>
0

>  <SCORE.SYSTEM.DIHEDRAL>
0

>  <SCORE.SYSTEM.SOLV>
0

>  <SCORE.SYSTEM.norm>
0

>  <SCORE.heavy>
19

>  <SCORE.norm>
-0.966742

>  <RMSD>
15.850

$$$$
ligand
 OpenBabel11021811483D
libRbt.so/2013.1/901 2013/11/27
 19 21  0  0  0  0  0  0  0  0999 V2000
   30.3467   29.6165   46.7852 C   0  0  0  0  0  0  0  0  0  0  0  0
   29.3776   29.8867   47.8130 O   0  0  0  0  0  0  0  0  0  0  0  0
   31.0076   30.9073   46.2905 C   0  0  1  0  0  0  0  0  0  0  0  0
   31.9581   30.6224   45.2645 O   0  0  0  0  0  0  0  0  0  0  0  0
   29.9951   31.8702   45.7001 C   0  0  1  0  0  0  0  0  0  0  0  0
   30.2753   33.1794   46.1973 O   0  0  0  0  0  0  0  0  0  0  0  0
   30.2091   31.8582   44.2034 C   0  0  0  0  0  0  0  0  0  0  0  0
   31.5621   31.1982   44.0095 C   0  0  2  0  0  0  0  0  0  0  0  0
   33.6721   26.6866   42.6127 N   0  0  0  0  0  0  0  0  0  0  0  0
   33.9341   27.4997   43.6642 C   0  0  2  0  0  0  0  0  0  0  0  0
   34.8835   27.1617   44.5620 N   0  0  0  0  0  0  0  0  0  0  0  0
   33.2639   28.6569   43.8476 N   0  0  0  0  0  0  0  0  0  0  0  0
   32.3023   29.0578   42.9916 C   0  0  1  0  0  0  0  0  0  0  0  0
   31.9858   28.2849   41.8982 C   0  0  1  0  0  0  0  0  0  0  0  0
   32.7276   27.0140   41.7078 C   0  0  0  0  0  0  0  0  0  0  0  0
   32.4874   26.2696   40.7317 O   0  0  0  0  0  0  0  0  0  0  0  0
   31.0062   28.9116   41.2245 N   0  0  0  0  0  0  0  0  0  0  0  0
   30.7295   30.0523   41.8977 C   0  0  0  0  0  0  0  0  0  0  0  0
   31.5265   30.1296   42.9756 N   0  0  1  0  0  0  0  0  0  0  0  0
  1  2  1  0  0  0  0
  3  1  1  6  0  0  0
  3  4  1  0  0  0  0
  3  5  1  0  0  0  0
  5  6  1  1  0  0  0
  5  7  1  0  0  0  0
  7  8  1  0  0  0  0
  8  4  1  1  0  0  0
  8 19  1  0  0  0  0
  9 15  1  0  0  0  0
  9 10  1  0  0  0  0
 10 11  1  1  0  0  0
 10 12  1  0  0  0  0
 13 12  1  1  0  0  0
 13 14  1  0  0  0  0
 13 19  1  0  0  0  0
 14 15  1  1  0  0  0
 14 17  1  0  0  0  0
 15 16  2  0  0  0  0
 17 18  1  0  0  0  0
 19 18  1  1  0  0  0
M  END
>  <CHROM.1>
-179.54773691,-29.89883916,31.71542673,29.44939301,43.98854808,-2.32935758
0.90129295,-1.73125131

>  <Name>
ligand

>  <RI>
0

>  <Rbt.Current_Directory>
/home/itssahil/PROJECTS/Mol_Feturizer/New_Systems/rnas/3SKL

>  <Rbt.Executable>
rbdock ($Id: //depot/dev/client3/rdock/2013.1/src/exe/rbdock.cxx#4 $)

>  <Rbt.Library>
libRbt.so (2013.1, Build901 2013/11/27)

>  <Rbt.Parameter_File>
/export/apps/rDock/src/rDock_2013.1_src/data/scripts/dock_solv.prm

>  <Rbt.Receptor>
prm/blind_docking_80.prm

>  <SCORE>
-18.3823

>  <SCORE.INTER>
-18.3268

>  <SCORE.INTER.CONST>
1

>  <SCORE.INTER.POLAR>
0

>  <SCORE.INTER.ROT>
2

>  <SCORE.INTER.SOLV>
9.78857

>  <SCORE.INTER.VDW>
-20.4141

>  <SCORE.INTER.norm>
-0.964569

>  <SCORE.INTRA>
-0.0555436

>  <SCORE.INTRA.DIHEDRAL>
-0.272404

>  <SCORE.INTRA.DIHEDRAL.0>
1.50031

>  <SCORE.INTRA.POLAR>
0

>  <SCORE.INTRA.POLAR.0>
0

>  <SCORE.INTRA.REPUL>
0

>  <SCORE.INTRA.REPUL.0>
0

>  <SCORE.INTRA.SOLV>
-0.393846

>  <SCORE.INTRA.SOLV.lig_0>
-37.9941

>  <SCORE.INTRA.VDW>
0.277581

>  <SCORE.INTRA.VDW.0>
-0.964461

>  <SCORE.INTRA.norm>
-0.00292335

>  <SCORE.RESTR>
0

>  <SCORE.RESTR.CAVITY>
0

>  <SCORE.RESTR.norm>
0

>  <SCORE.SYSTEM>
0

>  <SCORE.SYSTEM.CONST>
0

>  <SCORE.SYSTEM.DIHEDRAL>
0

>  <SCORE.SYSTEM.SOLV>
0

>  <SCORE.SYSTEM.norm>
0

>  <SCORE.heavy>
19

>  <SCORE.norm>
-0.967492

>  <RMSD>
15.858

$$$$
ligand
 OpenBabel11021811483D
libRbt.so/2013.1/901 2013/11/27
 19 21  0  0  0  0  0  0  0  0999 V2000
   30.3630   29.6366   46.7743 C   0  0  0  0  0  0  0  0  0  0  0  0
   31.3503   28.7314   47.2981 O   0  0  0  0  0  0  0  0  0  0  0  0
   31.0067   30.9357   46.2785 C   0  0  1  0  0  0  0  0  0  0  0  0
   31.9545   30.6634   45.2466 O   0  0  0  0  0  0  0  0  0  0  0  0
   29.9802   31.8885   45.6958 C   0  0  1  0  0  0  0  0  0  0  0  0
   30.2487   33.1997   46.1941 O   0  0  0  0  0  0  0  0  0  0  0  0
   30.1859   31.8819   44.1979 C   0  0  0  0  0  0  0  0  0  0  0  0
   31.5450   31.2373   43.9950 C   0  0  2  0  0  0  0  0  0  0  0  0
   33.6617   26.7270   42.6040 N   0  0  0  0  0  0  0  0  0  0  0  0
   33.9174   27.5383   43.6585 C   0  0  2  0  0  0  0  0  0  0  0  0
   34.8610   27.1983   44.5617 N   0  0  0  0  0  0  0  0  0  0  0  0
   33.2466   28.6955   43.8397 N   0  0  0  0  0  0  0  0  0  0  0  0
   32.2906   29.0983   42.9782 C   0  0  1  0  0  0  0  0  0  0  0  0
   31.9807   28.3273   41.8816 C   0  0  1  0  0  0  0  0  0  0  0  0
   32.7231   27.0564   41.6937 C   0  0  0  0  0  0  0  0  0  0  0  0
   32.4886   26.3138   40.7149 O   0  0  0  0  0  0  0  0  0  0  0  0
   31.0056   28.9557   41.2028 N   0  0  0  0  0  0  0  0  0  0  0  0
   30.7252   30.0953   41.8761 C   0  0  0  0  0  0  0  0  0  0  0  0
   31.5154   30.1704   42.9591 N   0  0  1  0  0  0  0  0  0  0  0  0
  1  2  1  0  0  0  0
  3  1  1  6  0  0  0
  3  4  1  0  0  0  0
  3  5  1  0  0  0  0
  5  6  1  1  0  0  0
  5  7  1  0  0  0  0
  7  8  1  0  0  0  0
  8  4  1  1  0  0  0
  8 19  1  0  0  0  0
  9 15  1  0  0  0  0
  9 10  1  0  0  0  0
 10 11  1  1  0  0  0
 10 12  1  0  0  0  0
 13 12  1  1  0  0  0
 13 14  1  0  0  0  0
 13 19  1  0  0  0  0
 14 15  1  1  0  0  0
 14 17  1  0  0  0  0
 15 16  2  0  0  0  0
 17 18  1  0  0  0  0
 19 18  1  1  0  0  0
M  END
>  <CHROM.1>
59.70480255,-28.94510107,31.82722438,29.41197894,43.94603894,-2.28423340
0.92698543,-1.80710117

>  <Name>
ligand

>  <RI>
0

>  <Rbt.Current_Directory>
/home/itssahil/PROJECTS/Mol_Feturizer/New_Systems/rnas/3SKL

>  <Rbt.Executable>
rbdock ($Id: //depot/dev/client3/rdock/2013.1/src/exe/rbdock.cxx#4 $)

>  <Rbt.Library>
libRbt.so (2013.1, Build901 2013/11/27)

>  <Rbt.Parameter_File>
/export/apps/rDock/src/rDock_2013.1_src/data/scripts/dock_solv.prm

>  <Rbt.Receptor>
prm/blind_docking_80.prm

>  <SCORE>
-18.2869

>  <SCORE.INTER>
-18.0081

>  <SCORE.INTER.CONST>
1

>  <SCORE.INTER.POLAR>
0

>  <SCORE.INTER.ROT>
2

>  <SCORE.INTER.SOLV>
9.1093

>  <SCORE.INTER.VDW>
-19.9752

>  <SCORE.INTER.norm>
-0.947796

>  <SCORE.INTRA>
-0.278754

>  <SCORE.INTRA.DIHEDRAL>
-0.273067

>  <SCORE.INTRA.DIHEDRAL.0>
1.50031

>  <SCORE.INTRA.POLAR>
0

>  <SCORE.INTRA.POLAR.0>
0

>  <SCORE.INTRA.REPUL>
0

>  <SCORE.INTRA.REPUL.0>
0

>  <SCORE.INTRA.SOLV>
-0.489536

>  <SCORE.INTRA.SOLV.lig_0>
-37.9941

>  <SCORE.INTRA.VDW>
0.102547

>  <SCORE.INTRA.VDW.0>
-0.964461

>  <SCORE.INTRA.norm>
-0.0146713

>  <SCORE.RESTR>
0

>  <SCORE.RESTR.CAVITY>
0

>  <SCORE.RESTR.norm>
0

>  <SCORE.SYSTEM>
0

>  <SCORE.SYSTEM.CONST>
0

>  <SCORE.SYSTEM.DIHEDRAL>
0

>  <SCORE.SYSTEM.SOLV>
0

>  <SCORE.SYSTEM.norm>
0

>  <SCORE.heavy>
19

>  <SCORE.norm>
-0.962467

>  <RMSD>
15.892

$$$$
ligand
 OpenBabel11021811483D
libRbt.so/2013.1/901 2013/11/27
 19 21  0  0  0  0  0  0  0  0999 V2000
   33.4750   29.9563   45.1977 C   0  0  0  0  0  0  0  0  0  0  0  0
   33.9207   28.6298   45.5300 O   0  0  0  0  0  0  0  0  0  0  0  0
   32.6332   30.5595   46.3271 C   0  0  1  0  0  0  0  0  0  0  0  0
   32.2208   31.8843   45.9921 O   0  0  0  0  0  0  0  0  0  0  0  0
   31.3726   29.7556   46.5836 C   0  0  1  0  0  0  0  0  0  0  0  0
   31.2178   29.5987   47.9947 O   0  0  0  0  0  0  0  0  0  0  0  0
   30.2203   30.5779   46.0526 C   0  0  0  0  0  0  0  0  0  0  0  0
   30.7932   31.9700   45.8583 C   0  0  2  0  0  0  0  0  0  0  0  0
   28.1508   35.7136   43.4580 N   0  0  0  0  0  0  0  0  0  0  0  0
   28.2574   35.4076   44.7736 C   0  0  2  0  0  0  0  0  0  0  0  0
   27.6090   36.1492   45.6963 N   0  0  0  0  0  0  0  0  0  0  0  0
   29.0051   34.3677   45.1996 N   0  0  0  0  0  0  0  0  0  0  0  0
   29.6805   33.5842   44.3347 C   0  0  1  0  0  0  0  0  0  0  0  0
   29.6152   33.8325   42.9830 C   0  0  1  0  0  0  0  0  0  0  0  0
   28.7919   34.9793   42.5264 C   0  0  0  0  0  0  0  0  0  0  0  0
   28.6907   35.2541   41.3103 O   0  0  0  0  0  0  0  0  0  0  0  0
   30.3735   32.9132   42.3616 N   0  0  0  0  0  0  0  0  0  0  0  0
   30.8938   32.1142   43.3217 C   0  0  0  0  0  0  0  0  0  0  0  0
   30.4645   32.5349   44.5223 N   0  0  1  0  0  0  0  0  0  0  0  0
  1  2  1  0  0  0  0
  3  1  1  6  0  0  0
  3  4  1  0  0  0  0
  3  5  1  0  0  0  0
  5  6  1  1  0  0  0
  5  7  1  0  0  0  0
  7  8  1  0  0  0  0
  8  4  1  6  0  0  0
  8 19  1  0  0  0  0
  9 15  1  0  0  0  0
  9 10  1  0  0  0  0
 10 11  1  1  0  0  0
 10 12  1  0  0  0  0
 13 12  1  1  0  0  0
 13 14  1  0  0  0  0
 13 19  1  0  0  0  0
 14 15  1  1  0  0  0
 14 17  1  0  0  0  0
 15 16  2  0  0  0  0
 17 18  1  0  0  0  0
 19 18  1  1  0  0  0
M  END
>  <CHROM.1>
178.89327407,-126.58416727,30.44546277,32.54975607,44.77924566,-0.65619691
0.82036142,-1.24722469

>  <Name>
ligand

>  <RI>
0

>  <Rbt.Current_Directory>
/home/itssahil/PROJECTS/Mol_Feturizer/New_Systems/rnas/3SKL

>  <Rbt.Executable>
rbdock ($Id: //depot/dev/client3/rdock/2013.1/src/exe/rbdock.cxx#4 $)

>  <Rbt.Library>
libRbt.so (2013.1, Build901 2013/11/27)

>  <Rbt.Parameter_File>
/export/apps/rDock/src/rDock_2013.1_src/data/scripts/dock_solv.prm

>  <Rbt.Receptor>
prm/blind_docking_80.prm

>  <SCORE>
-15.4817

>  <SCORE.INTER>
-14.9596

>  <SCORE.INTER.CONST>
1

>  <SCORE.INTER.POLAR>
0

>  <SCORE.INTER.ROT>
2

>  <SCORE.INTER.SOLV>
13.3012

>  <SCORE.INTER.VDW>
-19.3401

>  <SCORE.INTER.norm>
-0.787348

>  <SCORE.INTRA>
-0.52207

>  <SCORE.INTRA.DIHEDRAL>
-0.285206

>  <SCORE.INTRA.DIHEDRAL.0>
1.50031

>  <SCORE.INTRA.POLAR>
0

>  <SCORE.INTRA.POLAR.0>
0

>  <SCORE.INTRA.REPUL>
0

>  <SCORE.INTRA.REPUL.0>
0

>  <SCORE.INTRA.SOLV>
-0.46391

>  <SCORE.INTRA.SOLV.lig_0>
-37.9941

>  <SCORE.INTRA.VDW>
-0.147512

>  <SCORE.INTRA.VDW.0>
-0.964461

>  <SCORE.INTRA.norm>
-0.0274773

>  <SCORE.RESTR>
0

>  <SCORE.RESTR.CAVITY>
0

>  <SCORE.RESTR.norm>
0

>  <SCORE.SYSTEM>
0

>  <SCORE.SYSTEM.CONST>
0

>  <SCORE.SYSTEM.DIHEDRAL>
0

>  <SCORE.SYSTEM.SOLV>
0

>  <SCORE.SYSTEM.norm>
0

>  <SCORE.heavy>
19

>  <SCORE.norm>
-0.814826

>  <RMSD>
15.967

$$$$
ligand
 OpenBabel11021811483D
libRbt.so/2013.1/901 2013/11/27
 19 21  0  0  0  0  0  0  0  0999 V2000
   33.4867   29.9072   45.1979 C   0  0  0  0  0  0  0  0  0  0  0  0
   33.9282   28.5801   45.5333 O   0  0  0  0  0  0  0  0  0  0  0  0
   32.6564   30.5202   46.3304 C   0  0  1  0  0  0  0  0  0  0  0  0
   32.2487   31.8457   45.9922 O   0  0  0  0  0  0  0  0  0  0  0  0
   31.3935   29.7244   46.5998 C   0  0  1  0  0  0  0  0  0  0  0  0
   31.2480   29.5748   48.0127 O   0  0  0  0  0  0  0  0  0  0  0  0
   30.2417   30.5504   46.0734 C   0  0  0  0  0  0  0  0  0  0  0  0
   30.8206   31.9384   45.8684 C   0  0  2  0  0  0  0  0  0  0  0  0
   28.1809   35.6849   43.4696 N   0  0  0  0  0  0  0  0  0  0  0  0
   28.2953   35.3844   44.7858 C   0  0  2  0  0  0  0  0  0  0  0  0
   27.6576   36.1338   45.7097 N   0  0  0  0  0  0  0  0  0  0  0  0
   29.0405   34.3426   45.2113 N   0  0  0  0  0  0  0  0  0  0  0  0
   29.7055   33.5515   44.3452 C   0  0  1  0  0  0  0  0  0  0  0  0
   29.6317   33.7938   42.9929 C   0  0  1  0  0  0  0  0  0  0  0  0
   28.8113   34.9429   42.5368 C   0  0  0  0  0  0  0  0  0  0  0  0
   28.7027   35.2125   41.3202 O   0  0  0  0  0  0  0  0  0  0  0  0
   30.3806   32.8675   42.3703 N   0  0  0  0  0  0  0  0  0  0  0  0
   30.9036   32.0703   43.3304 C   0  0  0  0  0  0  0  0  0  0  0  0
   30.4852   32.4989   44.5321 N   0  0  1  0  0  0  0  0  0  0  0  0
  1  2  1  0  0  0  0
  3  1  1  6  0  0  0
  3  4  1  0  0  0  0
  3  5  1  0  0  0  0
  5  6  1  1  0  0  0
  5  7  1  0  0  0  0
  7  8  1  0  0  0  0
  8  4  1  6  0  0  0
  8 19  1  0  0  0  0
  9 15  1  0  0  0  0
  9 10  1  0  0  0  0
 10 11  1  1  0  0  0
 10 12  1  0  0  0  0
 13 12  1  1  0  0  0
 13 14  1  0  0  0  0
 13 19  1  0  0  0  0
 14 15  1  1  0  0  0
 14 17  1  0  0  0  0
 15 16  2  0  0  0  0
 17 18  1  0  0  0  0
 19 18  1  1  0  0  0
M  END
>  <CHROM.1>
178.87105390,-126.58507235,30.46817484,32.51499000,44.78910389,-0.64855574
0.82767262,-1.25751025

>  <Name>
ligand

>  <RI>
0

>  <Rbt.Current_Directory>
/home/itssahil/PROJECTS/Mol_Feturizer/New_Systems/rnas/3SKL

>  <Rbt.Executable>
rbdock ($Id: //depot/dev/client3/rdock/2013.1/src/exe/rbdock.cxx#4 $)

>  <Rbt.Library>
libRbt.so (2013.1, Build901 2013/11/27)

>  <Rbt.Parameter_File>
/export/apps/rDock/src/rDock_2013.1_src/data/scripts/dock_solv.prm

>  <Rbt.Receptor>
prm/blind_docking_100.prm

>  <SCORE>
-15.465

>  <SCORE.INTER>
-14.9428

>  <SCORE.INTER.CONST>
1

>  <SCORE.INTER.POLAR>
0

>  <SCORE.INTER.ROT>
2

>  <SCORE.INTER.SOLV>
13.4079

>  <SCORE.INTER.VDW>
-19.3645

>  <SCORE.INTER.norm>
-0.786465

>  <SCORE.INTRA>
-0.522181

>  <SCORE.INTRA.DIHEDRAL>
-0.285033

>  <SCORE.INTRA.DIHEDRAL.0>
1.50031

>  <SCORE.INTRA.POLAR>
0

>  <SCORE.INTRA.POLAR.0>
0

>  <SCORE.INTRA.REPUL>
0

>  <SCORE.INTRA.REPUL.0>
0

>  <SCORE.INTRA.SOLV>
-0.464017

>  <SCORE.INTRA.SOLV.lig_0>
-37.9941

>  <SCORE.INTRA.VDW>
-0.147656

>  <SCORE.INTRA.VDW.0>
-0.964461

>  <SCORE.INTRA.norm>
-0.0274832

>  <SCORE.RESTR>
0

>  <SCORE.RESTR.CAVITY>
0

>  <SCORE.RESTR.norm>
0

>  <SCORE.SYSTEM>
0

>  <SCORE.SYSTEM.CONST>
0

>  <SCORE.SYSTEM.DIHEDRAL>
0

>  <SCORE.SYSTEM.SOLV>
0

>  <SCORE.SYSTEM.norm>
0

>  <SCORE.heavy>
19

>  <SCORE.norm>
-0.813948

>  <RMSD>
15.978

$$$$
ligand
 OpenBabel11021811483D
libRbt.so/2013.1/901 2013/11/27
 19 21  0  0  0  0  0  0  0  0999 V2000
   33.4597   29.8993   45.1109 C   0  0  0  0  0  0  0  0  0  0  0  0
   34.6373   30.6727   44.8215 O   0  0  0  0  0  0  0  0  0  0  0  0
   32.6546   30.5196   46.2576 C   0  0  1  0  0  0  0  0  0  0  0  0
   32.2568   31.8503   45.9283 O   0  0  0  0  0  0  0  0  0  0  0  0
   31.3871   29.7377   46.5457 C   0  0  1  0  0  0  0  0  0  0  0  0
   31.2625   29.5871   47.9605 O   0  0  0  0  0  0  0  0  0  0  0  0
   30.2366   30.5779   46.0392 C   0  0  0  0  0  0  0  0  0  0  0  0
   30.8280   31.9596   45.8274 C   0  0  2  0  0  0  0  0  0  0  0  0
   28.1496   35.7082   43.4753 N   0  0  0  0  0  0  0  0  0  0  0  0
   28.2775   35.4004   44.7886 C   0  0  2  0  0  0  0  0  0  0  0  0
   27.6449   36.1414   45.7227 N   0  0  0  0  0  0  0  0  0  0  0  0
   29.0312   34.3595   45.2010 N   0  0  0  0  0  0  0  0  0  0  0  0
   29.6918   33.5765   44.3242 C   0  0  1  0  0  0  0  0  0  0  0  0
   29.6044   33.8265   42.9740 C   0  0  1  0  0  0  0  0  0  0  0  0
   28.7746   34.9745   42.5324 C   0  0  0  0  0  0  0  0  0  0  0  0
   28.6537   35.2508   41.3185 O   0  0  0  0  0  0  0  0  0  0  0  0
   30.3517   32.9073   42.3391 N   0  0  0  0  0  0  0  0  0  0  0  0
   30.8871   32.1068   43.2896 C   0  0  0  0  0  0  0  0  0  0  0  0
   30.4779   32.5264   44.4976 N   0  0  1  0  0  0  0  0  0  0  0  0
  1  2  1  0  0  0  0
  3  1  1  6  0  0  0
  3  4  1  0  0  0  0
  3  5  1  0  0  0  0
  5  6  1  1  0  0  0
  5  7  1  0  0  0  0
  7  8  1  0  0  0  0
  8  4  1  6  0  0  0
  8 19  1  0  0  0  0
  9 15  1  0  0  0  0
  9 10  1  0  0  0  0
 10 11  1  1  0  0  0
 10 12  1  0  0  0  0
 13 12  1  1  0  0  0
 13 14  1  0  0  0  0
 13 19  1  0  0  0  0
 14 15  1  1  0  0  0
 14 17  1  0  0  0  0
 15 16  2  0  0  0  0
 17 18  1  0  0  0  0
 19 18  1  1  0  0  0
M  END
>  <CHROM.1>
59.17797831,-127.60741451,30.49827567,32.66199409,44.71654184,-0.71148522
0.70341091,-1.14690390

>  <Name>
ligand

>  <RI>
0

>  <Rbt.Current_Directory>
/home/itssahil/PROJECTS/Mol_Feturizer/New_Systems/rnas/3SKL

>  <Rbt.Executable>
rbdock ($Id: //depot/dev/client3/rdock/2013.1/src/exe/rbdock.cxx#4 $)

>  <Rbt.Library>
libRbt.so (2013.1, Build901 2013/11/27)

>  <Rbt.Parameter_File>
/export/apps/rDock/src/rDock_2013.1_src/data/scripts/dock_solv.prm

>  <Rbt.Receptor>
prm/blind_docking_100.prm

>  <SCORE>
-15.7033

>  <SCORE.INTER>
-15.0344

>  <SCORE.INTER.CONST>
1

>  <SCORE.INTER.POLAR>
0

>  <SCORE.INTER.ROT>
2

>  <SCORE.INTER.SOLV>
14.2275

>  <SCORE.INTER.VDW>
-19.6987

>  <SCORE.INTER.norm>
-0.791282

>  <SCORE.INTRA>
-0.668923

>  <SCORE.INTRA.DIHEDRAL>
-0.285871

>  <SCORE.INTRA.DIHEDRAL.0>
1.50031

>  <SCORE.INTRA.POLAR>
0

>  <SCORE.INTRA.POLAR.0>
0

>  <SCORE.INTRA.REPUL>
0

>  <SCORE.INTRA.REPUL.0>
0

>  <SCORE.INTRA.SOLV>
-0.548314

>  <SCORE.INTRA.SOLV.lig_0>
-37.9941

>  <SCORE.INTRA.VDW>
-0.25183

>  <SCORE.INTRA.VDW.0>
-0.964461

>  <SCORE.INTRA.norm>
-0.0352065

>  <SCORE.RESTR>
0

>  <SCORE.RESTR.CAVITY>
0

>  <SCORE.RESTR.norm>
0

>  <SCORE.SYSTEM>
0

>  <SCORE.SYSTEM.CONST>
0

>  <SCORE.SYSTEM.DIHEDRAL>
0

>  <SCORE.SYSTEM.SOLV>
0

>  <SCORE.SYSTEM.norm>
0

>  <SCORE.heavy>
19

>  <SCORE.norm>
-0.826489

>  <RMSD>
15.983

$$$$
ligand
 OpenBabel11021811483D
libRbt.so/2013.1/901 2013/11/27
 19 21  0  0  0  0  0  0  0  0999 V2000
   33.4474   29.9099   45.1609 C   0  0  0  0  0  0  0  0  0  0  0  0
   34.6100   30.6990   44.8538 O   0  0  0  0  0  0  0  0  0  0  0  0
   32.6360   30.5350   46.3006 C   0  0  1  0  0  0  0  0  0  0  0  0
   32.2407   31.8646   45.9639 O   0  0  0  0  0  0  0  0  0  0  0  0
   31.3664   29.7548   46.5844 C   0  0  1  0  0  0  0  0  0  0  0  0
   31.2336   29.6098   47.9990 O   0  0  0  0  0  0  0  0  0  0  0  0
   30.2193   30.5936   46.0680 C   0  0  0  0  0  0  0  0  0  0  0  0
   30.8126   31.9742   45.8543 C   0  0  2  0  0  0  0  0  0  0  0  0
   28.1388   35.7068   43.4718 N   0  0  0  0  0  0  0  0  0  0  0  0
   28.2580   35.4032   44.7868 C   0  0  2  0  0  0  0  0  0  0  0  0
   27.6159   36.1445   45.7141 N   0  0  0  0  0  0  0  0  0  0  0  0
   29.0123   34.3660   45.2078 N   0  0  0  0  0  0  0  0  0  0  0  0
   29.6820   33.5829   44.3381 C   0  0  1  0  0  0  0  0  0  0  0  0
   29.6038   33.8288   42.9866 C   0  0  1  0  0  0  0  0  0  0  0  0
   28.7734   34.9726   42.5356 C   0  0  0  0  0  0  0  0  0  0  0  0
   28.6605   35.2451   41.3200 O   0  0  0  0  0  0  0  0  0  0  0  0
   30.3590   32.9104   42.3599 N   0  0  0  0  0  0  0  0  0  0  0  0
   30.8901   32.1145   43.3166 C   0  0  0  0  0  0  0  0  0  0  0  0
   30.4704   32.5360   44.5204 N   0  0  1  0  0  0  0  0  0  0  0  0
  1  2  1  0  0  0  0
  3  1  1  6  0  0  0
  3  4  1  0  0  0  0
  3  5  1  0  0  0  0
  5  6  1  1  0  0  0
  5  7  1  0  0  0  0
  7  8  1  0  0  0  0
  8  4  1  6  0  0  0
  8 19  1  0  0  0  0
  9 15  1  0  0  0  0
  9 10  1  0  0  0  0
 10 11  1  1  0  0  0
 10 12  1  0  0  0  0
 13 12  1  1  0  0  0
 13 14  1  0  0  0  0
 13 19  1  0  0  0  0
 14 15  1  1  0  0  0
 14 17  1  0  0  0  0
 15 16  2  0  0  0  0
 17 18  1  0  0  0  0
 19 18  1  1  0  0  0
M  END
>  <CHROM.1>
57.78524387,-127.85965145,30.48549672,32.67119865,44.73739412,-0.71908172
0.69911634,-1.14484714

>  <Name>
ligand

>  <RI>
0

>  <Rbt.Current_Directory>
/home/itssahil/PROJECTS/Mol_Feturizer/New_Systems/rnas/3SKL

>  <Rbt.Executable>
rbdock ($Id: //depot/dev/client3/rdock/2013.1/src/exe/rbdock.cxx#4 $)

>  <Rbt.Library>
libRbt.so (2013.1, Build901 2013/11/27)

>  <Rbt.Parameter_File>
/export/apps/rDock/src/rDock_2013.1_src/data/scripts/dock_solv.prm

>  <Rbt.Receptor>
prm/blind_docking_80.prm

>  <SCORE>
-15.7518

>  <SCORE.INTER>
-15.0934

>  <SCORE.INTER.CONST>
1

>  <SCORE.INTER.POLAR>
0

>  <SCORE.INTER.ROT>
2

>  <SCORE.INTER.SOLV>
14.1811

>  <SCORE.INTER.VDW>
-19.7226

>  <SCORE.INTER.norm>
-0.794387

>  <SCORE.INTRA>
-0.658434

>  <SCORE.INTRA.DIHEDRAL>
-0.270718

>  <SCORE.INTRA.DIHEDRAL.0>
1.50031

>  <SCORE.INTRA.POLAR>
0

>  <SCORE.INTRA.POLAR.0>
0

>  <SCORE.INTRA.REPUL>
0

>  <SCORE.INTRA.REPUL.0>
0

>  <SCORE.INTRA.SOLV>
-0.541292

>  <SCORE.INTRA.SOLV.lig_0>
-37.9941

>  <SCORE.INTRA.VDW>
-0.252429

>  <SCORE.INTRA.VDW.0>
-0.964461

>  <SCORE.INTRA.norm>
-0.0346544

>  <SCORE.RESTR>
0

>  <SCORE.RESTR.CAVITY>
0

>  <SCORE.RESTR.norm>
0

>  <SCORE.SYSTEM>
0

>  <SCORE.SYSTEM.CONST>
0

>  <SCORE.SYSTEM.DIHEDRAL>
0

>  <SCORE.SYSTEM.SOLV>
0

>  <SCORE.SYSTEM.norm>
0

>  <SCORE.heavy>
19

>  <SCORE.norm>
-0.829041

>  <RMSD>
15.989

$$$$
ligand
 OpenBabel11021811483D
libRbt.so/2013.1/901 2013/11/27
 19 21  0  0  0  0  0  0  0  0999 V2000
   30.5932   33.7402   43.3963 C   0  0  0  0  0  0  0  0  0  0  0  0
   29.6443   34.0224   42.3529 O   0  0  0  0  0  0  0  0  0  0  0  0
   30.0364   32.7185   44.3933 C   0  0  1  0  0  0  0  0  0  0  0  0
   29.7573   31.4808   43.7395 O   0  0  0  0  0  0  0  0  0  0  0  0
   31.0233   32.4184   45.5054 C   0  0  1  0  0  0  0  0  0  0  0  0
   30.3172   32.4201   46.7469 O   0  0  0  0  0  0  0  0  0  0  0  0
   31.5560   31.0273   45.2466 C   0  0  0  0  0  0  0  0  0  0  0  0
   30.5980   30.4263   44.2342 C   0  0  2  0  0  0  0  0  0  0  0  0
   35.1647   28.5460   42.6955 N   0  0  0  0  0  0  0  0  0  0  0  0
   34.7901   29.1168   43.8657 C   0  0  2  0  0  0  0  0  0  0  0  0
   35.6838   29.2581   44.8673 N   0  0  0  0  0  0  0  0  0  0  0  0
   33.5295   29.5553   44.0672 N   0  0  0  0  0  0  0  0  0  0  0  0
   32.5842   29.4463   43.1119 C   0  0  1  0  0  0  0  0  0  0  0  0
   32.8938   28.8814   41.8961 C   0  0  1  0  0  0  0  0  0  0  0  0
   34.2819   28.4010   41.6866 C   0  0  0  0  0  0  0  0  0  0  0  0
   34.6253   27.8810   40.6021 O   0  0  0  0  0  0  0  0  0  0  0  0
   31.7808   28.8974   41.1429 N   0  0  0  0  0  0  0  0  0  0  0  0
   30.8055   29.4655   41.8891 C   0  0  0  0  0  0  0  0  0  0  0  0
   31.3080   29.7950   43.0899 N   0  0  1  0  0  0  0  0  0  0  0  0
  1  2  1  0  0  0  0
  3  1  1  6  0  0  0
  3  4  1  0  0  0  0
  3  5  1  0  0  0  0
  5  6  1  1  0  0  0
  5  7  1  0  0  0  0
  7  8  1  0  0  0  0
  8  4  1  6  0  0  0
  8 19  1  0  0  0  0
  9 15  1  0  0  0  0
  9 10  1  0  0  0  0
 10 11  1  1  0  0  0
 10 12  1  0  0  0  0
 13 12  1  1  0  0  0
 13 14  1  0  0  0  0
 13 19  1  0  0  0  0
 14 15  1  1  0  0  0
 14 17  1  0  0  0  0
 15 16  2  0  0  0  0
 17 18  1  0  0  0  0
 19 18  1  1  0  0  0
M  END
>  <CHROM.1>
61.32616147,137.89134733,32.10690588,30.46150644,43.41504578,2.53234651,-0.62204502
1.16480401

>  <Name>
ligand

>  <RI>
0

>  <Rbt.Current_Directory>
/home/itssahil/PROJECTS/Mol_Feturizer/New_Systems/rnas/3SKL

>  <Rbt.Executable>
rbdock ($Id: //depot/dev/client3/rdock/2013.1/src/exe/rbdock.cxx#4 $)

>  <Rbt.Library>
libRbt.so (2013.1, Build901 2013/11/27)

>  <Rbt.Parameter_File>
/export/apps/rDock/src/rDock_2013.1_src/data/scripts/dock_solv.prm

>  <Rbt.Receptor>
prm/blind_docking_100.prm

>  <SCORE>
-12.3301

>  <SCORE.INTER>
-13.4407

>  <SCORE.INTER.CONST>
1

>  <SCORE.INTER.POLAR>
0

>  <SCORE.INTER.ROT>
2

>  <SCORE.INTER.SOLV>
9.64144

>  <SCORE.INTER.VDW>
-17.1076

>  <SCORE.INTER.norm>
-0.707405

>  <SCORE.INTRA>
1.11062

>  <SCORE.INTRA.DIHEDRAL>
-0.311227

>  <SCORE.INTRA.DIHEDRAL.0>
1.50031

>  <SCORE.INTRA.POLAR>
0

>  <SCORE.INTRA.POLAR.0>
0

>  <SCORE.INTRA.REPUL>
0

>  <SCORE.INTRA.REPUL.0>
0

>  <SCORE.INTRA.SOLV>
-0.351584

>  <SCORE.INTRA.SOLV.lig_0>
-37.9941

>  <SCORE.INTRA.VDW>
1.44203

>  <SCORE.INTRA.VDW.0>
-0.964461

>  <SCORE.INTRA.norm>
0.0584537

>  <SCORE.RESTR>
0

>  <SCORE.RESTR.CAVITY>
0

>  <SCORE.RESTR.norm>
0

>  <SCORE.SYSTEM>
0

>  <SCORE.SYSTEM.CONST>
0

>  <SCORE.SYSTEM.DIHEDRAL>
0

>  <SCORE.SYSTEM.SOLV>
0

>  <SCORE.SYSTEM.norm>
0

>  <SCORE.heavy>
19

>  <SCORE.norm>
-0.648951

>  <RMSD>
15.997

$$$$
ligand
 OpenBabel11021811483D
libRbt.so/2013.1/901 2013/11/27
 19 21  0  0  0  0  0  0  0  0999 V2000
   31.7327   25.9269   47.1590 C   0  0  0  0  0  0  0  0  0  0  0  0
   31.6608   24.4972   47.0196 O   0  0  0  0  0  0  0  0  0  0  0  0
   30.9270   26.4091   48.3698 C   0  0  1  0  0  0  0  0  0  0  0  0
   31.0845   27.8165   48.5484 O   0  0  0  0  0  0  0  0  0  0  0  0
   29.4423   26.1482   48.2009 C   0  0  1  0  0  0  0  0  0  0  0  0
   28.9373   25.6113   49.4242 O   0  0  0  0  0  0  0  0  0  0  0  0
   28.7935   27.4907   47.9502 C   0  0  0  0  0  0  0  0  0  0  0  0
   29.8418   28.5108   48.3554 C   0  0  2  0  0  0  0  0  0  0  0  0
   28.0699   33.0819   46.7053 N   0  0  0  0  0  0  0  0  0  0  0  0
   27.6633   32.2901   47.7268 C   0  0  2  0  0  0  0  0  0  0  0  0
   26.6343   32.6723   48.5121 N   0  0  0  0  0  0  0  0  0  0  0  0
   28.2652   31.1110   47.9905 N   0  0  0  0  0  0  0  0  0  0  0  0
   29.2993   30.6660   47.2483 C   0  0  1  0  0  0  0  0  0  0  0  0
   29.7630   31.4152   46.1916 C   0  0  1  0  0  0  0  0  0  0  0  0
   29.0952   32.7104   45.9123 C   0  0  0  0  0  0  0  0  0  0  0  0
   29.4692   33.4351   44.9639 O   0  0  0  0  0  0  0  0  0  0  0  0
   30.7865   30.7458   45.6341 N   0  0  0  0  0  0  0  0  0  0  0  0
   30.9442   29.6029   46.3411 C   0  0  0  0  0  0  0  0  0  0  0  0
   30.0312   29.5664   47.3249 N   0  0  1  0  0  0  0  0  0  0  0  0
  1  2  1  0  0  0  0
  3  1  1  6  0  0  0
  3  4  1  0  0  0  0
  3  5  1  0  0  0  0
  5  6  1  1  0  0  0
  5  7  1  0  0  0  0
  7  8  1  0  0  0  0
  8  4  1  6  0  0  0
  8 19  1  0  0  0  0
  9 15  1  0  0  0  0
  9 10  1  0  0  0  0
 10 11  1  1  0  0  0
 10 12  1  0  0  0  0
 13 12  1  1  0  0  0
 13 14  1  0  0  0  0
 13 19  1  0  0  0  0
 14 15  1  1  0  0  0
 14 17  1  0  0  0  0
 15 16  2  0  0  0  0
 17 18  1  0  0  0  0
 19 18  1  1  0  0  0
M  END
>  <CHROM.1>
175.96316090,-154.22443903,29.62740168,29.36435364,47.36500770,-1.19088932
0.67762120,-0.45114773

>  <Name>
ligand

>  <RI>
0

>  <Rbt.Current_Directory>
/home/itssahil/PROJECTS/Mol_Feturizer/New_Systems/rnas/3SKL

>  <Rbt.Executable>
rbdock ($Id: //depot/dev/client3/rdock/2013.1/src/exe/rbdock.cxx#4 $)

>  <Rbt.Library>
libRbt.so (2013.1, Build901 2013/11/27)

>  <Rbt.Parameter_File>
/export/apps/rDock/src/rDock_2013.1_src/data/scripts/dock_solv.prm

>  <Rbt.Receptor>
prm/blind_docking_100.prm

>  <SCORE>
-15.3307

>  <SCORE.INTER>
-14.8585

>  <SCORE.INTER.CONST>
1

>  <SCORE.INTER.POLAR>
0

>  <SCORE.INTER.ROT>
2

>  <SCORE.INTER.SOLV>
7.76281

>  <SCORE.INTER.VDW>
-17.4266

>  <SCORE.INTER.norm>
-0.782026

>  <SCORE.INTRA>
-0.47251

>  <SCORE.INTRA.DIHEDRAL>
-0.216513

>  <SCORE.INTRA.DIHEDRAL.0>
1.50031

>  <SCORE.INTRA.POLAR>
0

>  <SCORE.INTRA.POLAR.0>
0

>  <SCORE.INTRA.REPUL>
0

>  <SCORE.INTRA.REPUL.0>
0

>  <SCORE.INTRA.SOLV>
-0.480698

>  <SCORE.INTRA.SOLV.lig_0>
-37.9941

>  <SCORE.INTRA.VDW>
-0.123904

>  <SCORE.INTRA.VDW.0>
-0.964461

>  <SCORE.INTRA.norm>
-0.0248689

>  <SCORE.RESTR>
0.000289262

>  <SCORE.RESTR.CAVITY>
0.000289262

>  <SCORE.RESTR.norm>
1.52243e-05

>  <SCORE.SYSTEM>
0

>  <SCORE.SYSTEM.CONST>
0

>  <SCORE.SYSTEM.DIHEDRAL>
0

>  <SCORE.SYSTEM.SOLV>
0

>  <SCORE.SYSTEM.norm>
0

>  <SCORE.heavy>
19

>  <SCORE.norm>
-0.80688

>  <RMSD>
16.256

$$$$
ligand
 OpenBabel11021811483D
libRbt.so/2013.1/901 2013/11/27
 19 21  0  0  0  0  0  0  0  0999 V2000
   31.6752   25.9976   47.0586 C   0  0  0  0  0  0  0  0  0  0  0  0
   33.0884   26.2210   47.2060 O   0  0  0  0  0  0  0  0  0  0  0  0
   30.9035   26.4848   48.2894 C   0  0  1  0  0  0  0  0  0  0  0  0
   31.0848   27.8890   48.4711 O   0  0  0  0  0  0  0  0  0  0  0  0
   29.4119   26.2456   48.1524 C   0  0  1  0  0  0  0  0  0  0  0  0
   28.9266   25.7097   49.3841 O   0  0  0  0  0  0  0  0  0  0  0  0
   28.7767   27.5983   47.9226 C   0  0  0  0  0  0  0  0  0  0  0  0
   29.8481   28.6016   48.3093 C   0  0  2  0  0  0  0  0  0  0  0  0
   28.0678   33.1798   46.6882 N   0  0  0  0  0  0  0  0  0  0  0  0
   27.6696   32.3859   47.7112 C   0  0  2  0  0  0  0  0  0  0  0  0
   26.6486   32.7675   48.5073 N   0  0  0  0  0  0  0  0  0  0  0  0
   28.2721   31.2052   47.9661 N   0  0  0  0  0  0  0  0  0  0  0  0
   29.2985   30.7606   47.2131 C   0  0  1  0  0  0  0  0  0  0  0  0
   29.7534   31.5120   46.1541 C   0  0  1  0  0  0  0  0  0  0  0  0
   29.0850   32.8089   45.8846 C   0  0  0  0  0  0  0  0  0  0  0  0
   29.4512   33.5356   44.9346 O   0  0  0  0  0  0  0  0  0  0  0  0
   30.7706   30.8425   45.5852 N   0  0  0  0  0  0  0  0  0  0  0  0
   30.9332   29.6974   46.2876 C   0  0  0  0  0  0  0  0  0  0  0  0
   30.0294   29.6596   47.2799 N   0  0  1  0  0  0  0  0  0  0  0  0
  1  2  1  0  0  0  0
  3  1  1  6  0  0  0
  3  4  1  0  0  0  0
  3  5  1  0  0  0  0
  5  6  1  1  0  0  0
  5  7  1  0  0  0  0
  7  8  1  0  0  0  0
  8  4  1  6  0  0  0
  8 19  1  0  0  0  0
  9 15  1  0  0  0  0
  9 10  1  0  0  0  0
 10 11  1  1  0  0  0
 10 12  1  0  0  0  0
 13 12  1  1  0  0  0
 13 14  1  0  0  0  0
 13 19  1  0  0  0  0
 14 15  1  1  0  0  0
 14 17  1  0  0  0  0
 15 16  2  0  0  0  0
 17 18  1  0  0  0  0
 19 18  1  1  0  0  0
M  END
>  <CHROM.1>
61.36237354,-155.26190507,29.70566693,29.55696997,47.33653285,-1.15246458
0.58079224,-0.46351174

>  <Name>
ligand

>  <RI>
0

>  <Rbt.Current_Directory>
/home/itssahil/PROJECTS/Mol_Feturizer/New_Systems/rnas/3SKL

>  <Rbt.Executable>
rbdock ($Id: //depot/dev/client3/rdock/2013.1/src/exe/rbdock.cxx#4 $)

>  <Rbt.Library>
libRbt.so (2013.1, Build901 2013/11/27)

>  <Rbt.Parameter_File>
/export/apps/rDock/src/rDock_2013.1_src/data/scripts/dock_solv.prm

>  <Rbt.Receptor>
prm/blind_docking_100.prm

>  <SCORE>
-15.7865

>  <SCORE.INTER>
-15.1631

>  <SCORE.INTER.CONST>
1

>  <SCORE.INTER.POLAR>
0

>  <SCORE.INTER.ROT>
2

>  <SCORE.INTER.SOLV>
7.05202

>  <SCORE.INTER.VDW>
-17.3928

>  <SCORE.INTER.norm>
-0.79806

>  <SCORE.INTRA>
-0.623385

>  <SCORE.INTRA.DIHEDRAL>
-0.267242

>  <SCORE.INTRA.DIHEDRAL.0>
1.50031

>  <SCORE.INTRA.POLAR>
0

>  <SCORE.INTRA.POLAR.0>
0

>  <SCORE.INTRA.REPUL>
0

>  <SCORE.INTRA.REPUL.0>
0

>  <SCORE.INTRA.SOLV>
-0.561914

>  <SCORE.INTRA.SOLV.lig_0>
-37.9941

>  <SCORE.INTRA.VDW>
-0.208807

>  <SCORE.INTRA.VDW.0>
-0.964461

>  <SCORE.INTRA.norm>
-0.0328097

>  <SCORE.RESTR>
2.26406e-05

>  <SCORE.RESTR.CAVITY>
2.26406e-05

>  <SCORE.RESTR.norm>
1.19161e-06

>  <SCORE.SYSTEM>
0

>  <SCORE.SYSTEM.CONST>
0

>  <SCORE.SYSTEM.DIHEDRAL>
0

>  <SCORE.SYSTEM.SOLV>
0

>  <SCORE.SYSTEM.norm>
0

>  <SCORE.heavy>
19

>  <SCORE.norm>
-0.830869

>  <RMSD>
16.295

$$$$
ligand
 OpenBabel11021811483D
libRbt.so/2013.1/901 2013/11/27
 19 21  0  0  0  0  0  0  0  0999 V2000
   32.9345   29.0095   45.9912 C   0  0  0  0  0  0  0  0  0  0  0  0
   33.2985   27.6270   45.8336 O   0  0  0  0  0  0  0  0  0  0  0  0
   32.2086   29.2456   47.3199 C   0  0  1  0  0  0  0  0  0  0  0  0
   31.9106   30.6312   47.4888 O   0  0  0  0  0  0  0  0  0  0  0  0
   30.8899   28.4987   47.3838 C   0  0  1  0  0  0  0  0  0  0  0  0
   30.7870   27.8753   48.6647 O   0  0  0  0  0  0  0  0  0  0  0  0
   29.7985   29.5371   47.2551 C   0  0  0  0  0  0  0  0  0  0  0  0
   30.4931   30.8638   47.5027 C   0  0  2  0  0  0  0  0  0  0  0  0
   30.6233   31.8284   42.4223 N   0  0  0  0  0  0  0  0  0  0  0  0
   31.0455   30.7540   43.1316 C   0  0  2  0  0  0  0  0  0  0  0  0
   31.6016   29.6999   42.4980 N   0  0  0  0  0  0  0  0  0  0  0  0
   30.9248   30.7014   44.4750 N   0  0  0  0  0  0  0  0  0  0  0  0
   30.3787   31.7171   45.1738 C   0  0  1  0  0  0  0  0  0  0  0  0
   29.9321   32.8426   44.5205 C   0  0  1  0  0  0  0  0  0  0  0  0
   30.0680   32.8884   43.0437 C   0  0  0  0  0  0  0  0  0  0  0  0
   29.6832   33.8853   42.3935 O   0  0  0  0  0  0  0  0  0  0  0  0
   29.4397   33.6838   45.4458 N   0  0  0  0  0  0  0  0  0  0  0  0
   29.5849   33.0796   46.6478 C   0  0  0  0  0  0  0  0  0  0  0  0
   30.1582   31.8787   46.4684 N   0  0  1  0  0  0  0  0  0  0  0  0
  1  2  1  0  0  0  0
  3  1  1  6  0  0  0
  3  4  1  0  0  0  0
  3  5  1  0  0  0  0
  5  6  1  1  0  0  0
  5  7  1  0  0  0  0
  7  8  1  0  0  0  0
  8  4  1  6  0  0  0
  8 19  1  0  0  0  0
  9 15  1  0  0  0  0
  9 10  1  0  0  0  0
 10 11  1  6  0  0  0
 10 12  1  0  0  0  0
 13 12  1  6  0  0  0
 13 14  1  0  0  0  0
 13 19  1  0  0  0  0
 14 15  1  6  0  0  0
 14 17  1  0  0  0  0
 15 16  2  0  0  0  0
 17 18  1  0  0  0  0
 19 18  1  6  0  0  0
M  END
>  <CHROM.1>
177.28163018,61.31527434,30.86741361,30.79035783,45.48979479,-1.03749749
1.00014459,-1.21842081

>  <Name>
ligand

>  <RI>
0

>  <Rbt.Current_Directory>
/home/itssahil/PROJECTS/Mol_Feturizer/New_Systems/rnas/3SKL

>  <Rbt.Executable>
rbdock ($Id: //depot/dev/client3/rdock/2013.1/src/exe/rbdock.cxx#4 $)

>  <Rbt.Library>
libRbt.so (2013.1, Build901 2013/11/27)

>  <Rbt.Parameter_File>
/export/apps/rDock/src/rDock_2013.1_src/data/scripts/dock_solv.prm

>  <Rbt.Receptor>
prm/blind_docking_80.prm

>  <SCORE>
-15.7046

>  <SCORE.INTER>
-15.1867

>  <SCORE.INTER.CONST>
1

>  <SCORE.INTER.POLAR>
0

>  <SCORE.INTER.ROT>
2

>  <SCORE.INTER.SOLV>
10.442

>  <SCORE.INTER.VDW>
-18.5385

>  <SCORE.INTER.norm>
-0.7993

>  <SCORE.INTRA>
-0.517865

>  <SCORE.INTRA.DIHEDRAL>
-0.271159

>  <SCORE.INTRA.DIHEDRAL.0>
1.50031

>  <SCORE.INTRA.POLAR>
0

>  <SCORE.INTRA.POLAR.0>
0

>  <SCORE.INTRA.REPUL>
0

>  <SCORE.INTRA.REPUL.0>
0

>  <SCORE.INTRA.SOLV>
0.698902

>  <SCORE.INTRA.SOLV.lig_0>
-37.9941

>  <SCORE.INTRA.VDW>
-0.731736

>  <SCORE.INTRA.VDW.0>
-0.964461

>  <SCORE.INTRA.norm>
-0.0272561

>  <SCORE.RESTR>
0

>  <SCORE.RESTR.CAVITY>
0

>  <SCORE.RESTR.norm>
0

>  <SCORE.SYSTEM>
0

>  <SCORE.SYSTEM.CONST>
0

>  <SCORE.SYSTEM.DIHEDRAL>
0

>  <SCORE.SYSTEM.SOLV>
0

>  <SCORE.SYSTEM.norm>
0

>  <SCORE.heavy>
19

>  <SCORE.norm>
-0.826556

>  <RMSD>
16.363

$$$$
ligand
 OpenBabel11021811483D
libRbt.so/2013.1/901 2013/11/27
 19 21  0  0  0  0  0  0  0  0999 V2000
   31.4834   25.5533   47.8890 C   0  0  0  0  0  0  0  0  0  0  0  0
   31.3217   26.2255   46.6278 O   0  0  0  0  0  0  0  0  0  0  0  0
   30.5938   26.1767   48.9697 C   0  0  1  0  0  0  0  0  0  0  0  0
   30.8221   27.5829   49.0572 O   0  0  0  0  0  0  0  0  0  0  0  0
   29.1196   25.9861   48.6673 C   0  0  1  0  0  0  0  0  0  0  0  0
   28.4623   25.5795   49.8684 O   0  0  0  0  0  0  0  0  0  0  0  0
   28.5858   27.3377   48.2501 C   0  0  0  0  0  0  0  0  0  0  0  0
   29.6516   28.3274   48.6843 C   0  0  2  0  0  0  0  0  0  0  0  0
   28.4404   32.9089   46.6104 N   0  0  0  0  0  0  0  0  0  0  0  0
   27.8930   32.2340   47.6498 C   0  0  2  0  0  0  0  0  0  0  0  0
   26.8559   32.7648   48.3313 N   0  0  0  0  0  0  0  0  0  0  0  0
   28.3599   31.0273   48.0342 N   0  0  0  0  0  0  0  0  0  0  0  0
   29.3932   30.4369   47.4003 C   0  0  1  0  0  0  0  0  0  0  0  0
   29.9957   31.0616   46.3327 C   0  0  1  0  0  0  0  0  0  0  0  0
   29.4754   32.3886   45.9204 C   0  0  0  0  0  0  0  0  0  0  0  0
   29.9793   33.0051   44.9557 O   0  0  0  0  0  0  0  0  0  0  0  0
   30.9846   30.2627   45.8967 N   0  0  0  0  0  0  0  0  0  0  0  0
   30.9846   29.1647   46.6874 C   0  0  0  0  0  0  0  0  0  0  0  0
   30.0093   29.2834   47.6025 N   0  0  1  0  0  0  0  0  0  0  0  0
  1  2  1  0  0  0  0
  3  1  1  6  0  0  0
  3  4  1  0  0  0  0
  3  5  1  0  0  0  0
  5  6  1  1  0  0  0
  5  7  1  0  0  0  0
  7  8  1  0  0  0  0
  8  4  1  6  0  0  0
  8 19  1  0  0  0  0
  9 15  1  0  0  0  0
  9 10  1  0  0  0  0
 10 11  1  1  0  0  0
 10 12  1  0  0  0  0
 13 12  1  1  0  0  0
 13 14  1  0  0  0  0
 13 19  1  0  0  0  0
 14 15  1  1  0  0  0
 14 17  1  0  0  0  0
 15 16  2  0  0  0  0
 17 18  1  0  0  0  0
 19 18  1  1  0  0  0
M  END
>  <CHROM.1>
-53.72455295,-151.48293118,29.61719499,29.25633189,47.56648027,-1.32394414
0.66514234,-0.45907920

>  <Name>
ligand

>  <RI>
0

>  <Rbt.Current_Directory>
/home/itssahil/PROJECTS/Mol_Feturizer/New_Systems/rnas/3SKL

>  <Rbt.Executable>
rbdock ($Id: //depot/dev/client3/rdock/2013.1/src/exe/rbdock.cxx#4 $)

>  <Rbt.Library>
libRbt.so (2013.1, Build901 2013/11/27)

>  <Rbt.Parameter_File>
/export/apps/rDock/src/rDock_2013.1_src/data/scripts/dock_solv.prm

>  <Rbt.Receptor>
prm/blind_docking_80.prm

>  <SCORE>
-13.69

>  <SCORE.INTER>
-13.1897

>  <SCORE.INTER.CONST>
1

>  <SCORE.INTER.POLAR>
0

>  <SCORE.INTER.ROT>
2

>  <SCORE.INTER.SOLV>
8.40068

>  <SCORE.INTER.VDW>
-16.5267

>  <SCORE.INTER.norm>
-0.694196

>  <SCORE.INTRA>
-0.510976

>  <SCORE.INTRA.DIHEDRAL>
-0.130402

>  <SCORE.INTRA.DIHEDRAL.0>
1.50031

>  <SCORE.INTRA.POLAR>
0

>  <SCORE.INTRA.POLAR.0>
0

>  <SCORE.INTRA.REPUL>
0

>  <SCORE.INTRA.REPUL.0>
0

>  <SCORE.INTRA.SOLV>
0.0444368

>  <SCORE.INTRA.SOLV.lig_0>
-37.9941

>  <SCORE.INTRA.VDW>
-0.467993

>  <SCORE.INTRA.VDW.0>
-0.964461

>  <SCORE.INTRA.norm>
-0.0268934

>  <SCORE.RESTR>
0.010711

>  <SCORE.RESTR.CAVITY>
0.010711

>  <SCORE.RESTR.norm>
0.000563737

>  <SCORE.SYSTEM>
0

>  <SCORE.SYSTEM.CONST>
0

>  <SCORE.SYSTEM.DIHEDRAL>
0

>  <SCORE.SYSTEM.SOLV>
0

>  <SCORE.SYSTEM.norm>
0

>  <SCORE.heavy>
19

>  <SCORE.norm>
-0.720526

>  <RMSD>
16.380

$$$$
ligand
 OpenBabel11021811483D
libRbt.so/2013.1/901 2013/11/27
 19 21  0  0  0  0  0  0  0  0999 V2000
   32.9384   28.9708   45.9855 C   0  0  0  0  0  0  0  0  0  0  0  0
   33.2578   27.5796   45.8093 O   0  0  0  0  0  0  0  0  0  0  0  0
   32.2230   29.2128   47.3187 C   0  0  1  0  0  0  0  0  0  0  0  0
   31.9630   30.6042   47.5027 O   0  0  0  0  0  0  0  0  0  0  0  0
   30.8847   28.5012   47.3792 C   0  0  1  0  0  0  0  0  0  0  0  0
   30.7686   27.8677   48.6540 O   0  0  0  0  0  0  0  0  0  0  0  0
   29.8215   29.5700   47.2645 C   0  0  0  0  0  0  0  0  0  0  0  0
   30.5524   30.8748   47.5234 C   0  0  2  0  0  0  0  0  0  0  0  0
   30.5623   31.8362   42.4408 N   0  0  0  0  0  0  0  0  0  0  0  0
   30.9448   30.7380   43.1358 C   0  0  2  0  0  0  0  0  0  0  0  0
   31.4154   29.6537   42.4842 N   0  0  0  0  0  0  0  0  0  0  0  0
   30.8680   30.6910   44.4826 N   0  0  0  0  0  0  0  0  0  0  0  0
   30.4074   31.7362   45.1992 C   0  0  1  0  0  0  0  0  0  0  0  0
   30.0055   32.8869   44.5609 C   0  0  1  0  0  0  0  0  0  0  0  0
   30.0924   32.9264   43.0802 C   0  0  0  0  0  0  0  0  0  0  0  0
   29.7447   33.9450   42.4429 O   0  0  0  0  0  0  0  0  0  0  0  0
   29.5961   33.7546   45.5021 N   0  0  0  0  0  0  0  0  0  0  0  0
   29.7472   33.1414   46.6987 C   0  0  0  0  0  0  0  0  0  0  0  0
   30.2421   31.9090   46.5006 N   0  0  1  0  0  0  0  0  0  0  0  0
  1  2  1  0  0  0  0
  3  1  1  6  0  0  0
  3  4  1  0  0  0  0
  3  5  1  0  0  0  0
  5  6  1  1  0  0  0
  5  7  1  0  0  0  0
  7  8  1  0  0  0  0
  8  4  1  6  0  0  0
  8 19  1  0  0  0  0
  9 15  1  0  0  0  0
  9 10  1  0  0  0  0
 10 11  1  6  0  0  0
 10 12  1  0  0  0  0
 13 12  1  6  0  0  0
 13 14  1  0  0  0  0
 13 19  1  0  0  0  0
 14 15  1  6  0  0  0
 14 17  1  0  0  0  0
 15 16  2  0  0  0  0
 17 18  1  0  0  0  0
 19 18  1  6  0  0  0
M  END
>  <CHROM.1>
177.60427836,63.96438752,30.88087256,30.79730249,45.50510478,-0.99583619
1.05098209,-1.25775402

>  <Name>
ligand

>  <RI>
0

>  <Rbt.Current_Directory>
/home/itssahil/PROJECTS/Mol_Feturizer/New_Systems/rnas/3SKL

>  <Rbt.Executable>
rbdock ($Id: //depot/dev/client3/rdock/2013.1/src/exe/rbdock.cxx#4 $)

>  <Rbt.Library>
libRbt.so (2013.1, Build901 2013/11/27)

>  <Rbt.Parameter_File>
/export/apps/rDock/src/rDock_2013.1_src/data/scripts/dock_solv.prm

>  <Rbt.Receptor>
prm/blind_docking_80.prm

>  <SCORE>
-15.684

>  <SCORE.INTER>
-15.1125

>  <SCORE.INTER.CONST>
1

>  <SCORE.INTER.POLAR>
0

>  <SCORE.INTER.ROT>
2

>  <SCORE.INTER.SOLV>
11.122

>  <SCORE.INTER.VDW>
-18.7157

>  <SCORE.INTER.norm>
-0.795397

>  <SCORE.INTRA>
-0.57148

>  <SCORE.INTRA.DIHEDRAL>
-0.273579

>  <SCORE.INTRA.DIHEDRAL.0>
1.50031

>  <SCORE.INTRA.POLAR>
0

>  <SCORE.INTRA.POLAR.0>
0

>  <SCORE.INTRA.REPUL>
0

>  <SCORE.INTRA.REPUL.0>
0

>  <SCORE.INTRA.SOLV>
0.557849

>  <SCORE.INTRA.SOLV.lig_0>
-37.9941

>  <SCORE.INTRA.VDW>
-0.713615

>  <SCORE.INTRA.VDW.0>
-0.964461

>  <SCORE.INTRA.norm>
-0.0300779

>  <SCORE.RESTR>
0

>  <SCORE.RESTR.CAVITY>
0

>  <SCORE.RESTR.norm>
0

>  <SCORE.SYSTEM>
0

>  <SCORE.SYSTEM.CONST>
0

>  <SCORE.SYSTEM.DIHEDRAL>
0

>  <SCORE.SYSTEM.SOLV>
0

>  <SCORE.SYSTEM.norm>
0

>  <SCORE.heavy>
19

>  <SCORE.norm>
-0.825475

>  <RMSD>
16.382

$$$$
ligand
 OpenBabel11021811483D
libRbt.so/2013.1/901 2013/11/27
 19 21  0  0  0  0  0  0  0  0999 V2000
   32.9790   29.0273   45.9664 C   0  0  0  0  0  0  0  0  0  0  0  0
   34.2262   29.7423   45.9214 O   0  0  0  0  0  0  0  0  0  0  0  0
   32.2552   29.2546   47.2978 C   0  0  1  0  0  0  0  0  0  0  0  0
   31.9467   30.6375   47.4708 O   0  0  0  0  0  0  0  0  0  0  0  0
   30.9427   28.4971   47.3639 C   0  0  1  0  0  0  0  0  0  0  0  0
   30.8485   27.8700   48.6436 O   0  0  0  0  0  0  0  0  0  0  0  0
   29.8427   29.5271   47.2409 C   0  0  0  0  0  0  0  0  0  0  0  0
   30.5275   30.8587   47.4895 C   0  0  2  0  0  0  0  0  0  0  0  0
   30.6262   31.8320   42.4100 N   0  0  0  0  0  0  0  0  0  0  0  0
   31.0582   30.7590   43.1154 C   0  0  2  0  0  0  0  0  0  0  0  0
   31.6173   29.7092   42.4774 N   0  0  0  0  0  0  0  0  0  0  0  0
   30.9447   30.7036   44.4593 N   0  0  0  0  0  0  0  0  0  0  0  0
   30.3962   31.7150   45.1625 C   0  0  1  0  0  0  0  0  0  0  0  0
   29.9397   32.8389   44.5133 C   0  0  1  0  0  0  0  0  0  0  0  0
   30.0679   32.8879   43.0359 C   0  0  0  0  0  0  0  0  0  0  0  0
   29.6740   33.8835   42.3892 O   0  0  0  0  0  0  0  0  0  0  0  0
   29.4472   33.6758   45.4425 N   0  0  0  0  0  0  0  0  0  0  0  0
   29.6020   33.0706   46.6427 C   0  0  0  0  0  0  0  0  0  0  0  0
   30.1813   31.8733   46.4585 N   0  0  1  0  0  0  0  0  0  0  0  0
  1  2  1  0  0  0  0
  3  1  1  6  0  0  0
  3  4  1  0  0  0  0
  3  5  1  0  0  0  0
  5  6  1  1  0  0  0
  5  7  1  0  0  0  0
  7  8  1  0  0  0  0
  8  4  1  6  0  0  0
  8 19  1  0  0  0  0
  9 15  1  0  0  0  0
  9 10  1  0  0  0  0
 10 11  1  6  0  0  0
 10 12  1  0  0  0  0
 13 12  1  6  0  0  0
 13 14  1  0  0  0  0
 13 19  1  0  0  0  0
 14 15  1  6  0  0  0
 14 17  1  0  0  0  0
 15 16  2  0  0  0  0
 17 18  1  0  0  0  0
 19 18  1  6  0  0  0
M  END
>  <CHROM.1>
61.38391411,61.48993489,30.94730984,30.92004290,45.48216851,-1.12639861,0.86604676
-1.18704614

>  <Name>
ligand

>  <RI>
0

>  <Rbt.Current_Directory>
/home/itssahil/PROJECTS/Mol_Feturizer/New_Systems/rnas/3SKL

>  <Rbt.Executable>
rbdock ($Id: //depot/dev/client3/rdock/2013.1/src/exe/rbdock.cxx#4 $)

>  <Rbt.Library>
libRbt.so (2013.1, Build901 2013/11/27)

>  <Rbt.Parameter_File>
/export/apps/rDock/src/rDock_2013.1_src/data/scripts/dock_solv.prm

>  <Rbt.Receptor>
prm/blind_docking_80.prm

>  <SCORE>
-15.7309

>  <SCORE.INTER>
-15.0223

>  <SCORE.INTER.CONST>
1

>  <SCORE.INTER.POLAR>
0

>  <SCORE.INTER.ROT>
2

>  <SCORE.INTER.SOLV>
10.6908

>  <SCORE.INTER.VDW>
-18.5118

>  <SCORE.INTER.norm>
-0.79065

>  <SCORE.INTRA>
-0.708586

>  <SCORE.INTRA.DIHEDRAL>
-0.289442

>  <SCORE.INTRA.DIHEDRAL.0>
1.50031

>  <SCORE.INTRA.POLAR>
0

>  <SCORE.INTRA.POLAR.0>
0

>  <SCORE.INTRA.REPUL>
0

>  <SCORE.INTRA.REPUL.0>
0

>  <SCORE.INTRA.SOLV>
0.581593

>  <SCORE.INTRA.SOLV.lig_0>
-37.9941

>  <SCORE.INTRA.VDW>
-0.854661

>  <SCORE.INTRA.VDW.0>
-0.964461

>  <SCORE.INTRA.norm>
-0.037294

>  <SCORE.RESTR>
0

>  <SCORE.RESTR.CAVITY>
0

>  <SCORE.RESTR.norm>
0

>  <SCORE.SYSTEM>
0

>  <SCORE.SYSTEM.CONST>
0

>  <SCORE.SYSTEM.DIHEDRAL>
0

>  <SCORE.SYSTEM.SOLV>
0

>  <SCORE.SYSTEM.norm>
0

>  <SCORE.heavy>
19

>  <SCORE.norm>
-0.827944

>  <RMSD>
16.432

$$$$
ligand
 OpenBabel11021811483D
libRbt.so/2013.1/901 2013/11/27
 19 21  0  0  0  0  0  0  0  0999 V2000
   32.9261   28.9546   45.9647 C   0  0  0  0  0  0  0  0  0  0  0  0
   34.1845   29.6481   45.8995 O   0  0  0  0  0  0  0  0  0  0  0  0
   32.2223   29.2036   47.3029 C   0  0  1  0  0  0  0  0  0  0  0  0
   31.9731   30.5970   47.4864 O   0  0  0  0  0  0  0  0  0  0  0  0
   30.8799   28.5011   47.3746 C   0  0  1  0  0  0  0  0  0  0  0  0
   30.7691   27.8705   48.6513 O   0  0  0  0  0  0  0  0  0  0  0  0
   29.8230   29.5769   47.2661 C   0  0  0  0  0  0  0  0  0  0  0  0
   30.5646   30.8772   47.5173 C   0  0  2  0  0  0  0  0  0  0  0  0
   30.5624   31.8374   42.4344 N   0  0  0  0  0  0  0  0  0  0  0  0
   30.9447   30.7385   43.1287 C   0  0  2  0  0  0  0  0  0  0  0  0
   31.4114   29.6532   42.4760 N   0  0  0  0  0  0  0  0  0  0  0  0
   30.8715   30.6920   44.4757 N   0  0  0  0  0  0  0  0  0  0  0  0
   30.4150   31.7383   45.1932 C   0  0  1  0  0  0  0  0  0  0  0  0
   30.0136   32.8896   44.5558 C   0  0  1  0  0  0  0  0  0  0  0  0
   30.0965   32.9286   43.0748 C   0  0  0  0  0  0  0  0  0  0  0  0
   29.7491   33.9478   42.4383 O   0  0  0  0  0  0  0  0  0  0  0  0
   29.6085   33.7583   45.4979 N   0  0  0  0  0  0  0  0  0  0  0  0
   29.7617   33.1451   46.6943 C   0  0  0  0  0  0  0  0  0  0  0  0
   30.2535   31.9117   46.4950 N   0  0  1  0  0  0  0  0  0  0  0  0
  1  2  1  0  0  0  0
  3  1  1  6  0  0  0
  3  4  1  0  0  0  0
  3  5  1  0  0  0  0
  5  6  1  1  0  0  0
  5  7  1  0  0  0  0
  7  8  1  0  0  0  0
  8  4  1  6  0  0  0
  8 19  1  0  0  0  0
  9 15  1  0  0  0  0
  9 10  1  0  0  0  0
 10 11  1  6  0  0  0
 10 12  1  0  0  0  0
 13 12  1  6  0  0  0
 13 14  1  0  0  0  0
 13 19  1  0  0  0  0
 14 15  1  6  0  0  0
 14 17  1  0  0  0  0
 15 16  2  0  0  0  0
 17 18  1  0  0  0  0
 19 18  1  6  0  0  0
M  END
>  <CHROM.1>
59.74314837,63.56936899,30.94113332,30.92402343,45.50386612,-1.10642983,0.93176309
-1.21010032

>  <Name>
ligand

>  <RI>
0

>  <Rbt.Current_Directory>
/home/itssahil/PROJECTS/Mol_Feturizer/New_Systems/rnas/3SKL

>  <Rbt.Executable>
rbdock ($Id: //depot/dev/client3/rdock/2013.1/src/exe/rbdock.cxx#4 $)

>  <Rbt.Library>
libRbt.so (2013.1, Build901 2013/11/27)

>  <Rbt.Parameter_File>
/export/apps/rDock/src/rDock_2013.1_src/data/scripts/dock_solv.prm

>  <Rbt.Receptor>
prm/blind_docking_100.prm

>  <SCORE>
-15.7054

>  <SCORE.INTER>
-14.9767

>  <SCORE.INTER.CONST>
1

>  <SCORE.INTER.POLAR>
0

>  <SCORE.INTER.ROT>
2

>  <SCORE.INTER.SOLV>
11.3077

>  <SCORE.INTER.VDW>
-18.687

>  <SCORE.INTER.norm>
-0.788246

>  <SCORE.INTRA>
-0.728676

>  <SCORE.INTRA.DIHEDRAL>
-0.293927

>  <SCORE.INTRA.DIHEDRAL.0>
1.50031

>  <SCORE.INTRA.POLAR>
0

>  <SCORE.INTRA.POLAR.0>
0

>  <SCORE.INTRA.REPUL>
0

>  <SCORE.INTRA.REPUL.0>
0

>  <SCORE.INTRA.SOLV>
0.511346

>  <SCORE.INTRA.SOLV.lig_0>
-37.9941

>  <SCORE.INTRA.VDW>
-0.837385

>  <SCORE.INTRA.VDW.0>
-0.964461

>  <SCORE.INTRA.norm>
-0.0383514

>  <SCORE.RESTR>
0

>  <SCORE.RESTR.CAVITY>
0

>  <SCORE.RESTR.norm>
0

>  <SCORE.SYSTEM>
0

>  <SCORE.SYSTEM.CONST>
0

>  <SCORE.SYSTEM.DIHEDRAL>
0

>  <SCORE.SYSTEM.SOLV>
0

>  <SCORE.SYSTEM.norm>
0

>  <SCORE.heavy>
19

>  <SCORE.norm>
-0.826597

>  <RMSD>
16.440

$$$$
ligand
 OpenBabel11021811483D
libRbt.so/2013.1/901 2013/11/27
 19 21  0  0  0  0  0  0  0  0999 V2000
   32.9885   28.9233   46.0602 C   0  0  0  0  0  0  0  0  0  0  0  0
   34.2436   29.6242   46.0121 O   0  0  0  0  0  0  0  0  0  0  0  0
   32.2586   29.1795   47.3829 C   0  0  1  0  0  0  0  0  0  0  0  0
   31.9504   30.5659   47.5250 O   0  0  0  0  0  0  0  0  0  0  0  0
   30.9452   28.4245   47.4589 C   0  0  1  0  0  0  0  0  0  0  0  0
   30.8444   27.8248   48.7512 O   0  0  0  0  0  0  0  0  0  0  0  0
   29.8466   29.4525   47.3087 C   0  0  0  0  0  0  0  0  0  0  0  0
   30.5313   30.7885   47.5322 C   0  0  2  0  0  0  0  0  0  0  0  0
   30.6817   31.6655   42.4365 N   0  0  0  0  0  0  0  0  0  0  0  0
   31.1120   30.6088   43.1670 C   0  0  2  0  0  0  0  0  0  0  0  0
   31.6843   29.5504   42.5554 N   0  0  0  0  0  0  0  0  0  0  0  0
   30.9836   30.5783   44.5104 N   0  0  0  0  0  0  0  0  0  0  0  0
   30.4214   31.5995   45.1879 C   0  0  1  0  0  0  0  0  0  0  0  0
   29.9657   32.7081   44.5123 C   0  0  1  0  0  0  0  0  0  0  0  0
   30.1103   32.7297   43.0358 C   0  0  0  0  0  0  0  0  0  0  0  0
   29.7179   33.7104   42.3658 O   0  0  0  0  0  0  0  0  0  0  0  0
   29.4578   33.5595   45.4198 N   0  0  0  0  0  0  0  0  0  0  0  0
   29.6027   32.9782   46.6330 C   0  0  0  0  0  0  0  0  0  0  0  0
   30.1910   31.7812   46.4782 N   0  0  1  0  0  0  0  0  0  0  0  0
  1  2  1  0  0  0  0
  3  1  1  6  0  0  0
  3  4  1  0  0  0  0
  3  5  1  0  0  0  0
  5  6  1  1  0  0  0
  5  7  1  0  0  0  0
  7  8  1  0  0  0  0
  8  4  1  6  0  0  0
  8 19  1  0  0  0  0
  9 15  1  0  0  0  0
  9 10  1  0  0  0  0
 10 11  1  6  0  0  0
 10 12  1  0  0  0  0
 13 12  1  6  0  0  0
 13 14  1  0  0  0  0
 13 19  1  0  0  0  0
 14 15  1  6  0  0  0
 14 17  1  0  0  0  0
 15 16  2  0  0  0  0
 17 18  1  0  0  0  0
 19 18  1  6  0  0  0
M  END
>  <CHROM.1>
62.03719224,60.94057787,30.96881147,30.80949596,45.52719998,-1.14127305,0.85857240
-1.19326757

>  <Name>
ligand

>  <RI>
0

>  <Rbt.Current_Directory>
/home/itssahil/PROJECTS/Mol_Feturizer/New_Systems/rnas/3SKL

>  <Rbt.Executable>
rbdock ($Id: //depot/dev/client3/rdock/2013.1/src/exe/rbdock.cxx#4 $)

>  <Rbt.Library>
libRbt.so (2013.1, Build901 2013/11/27)

>  <Rbt.Parameter_File>
/export/apps/rDock/src/rDock_2013.1_src/data/scripts/dock_solv.prm

>  <Rbt.Receptor>
prm/blind_docking_80.prm

>  <SCORE>
-15.6078

>  <SCORE.INTER>
-14.9373

>  <SCORE.INTER.CONST>
1

>  <SCORE.INTER.POLAR>
0

>  <SCORE.INTER.ROT>
2

>  <SCORE.INTER.SOLV>
10.3331

>  <SCORE.INTER.VDW>
-18.3359

>  <SCORE.INTER.norm>
-0.786173

>  <SCORE.INTRA>
-0.67057

>  <SCORE.INTRA.DIHEDRAL>
-0.281891

>  <SCORE.INTRA.DIHEDRAL.0>
1.50031

>  <SCORE.INTRA.POLAR>
0

>  <SCORE.INTRA.POLAR.0>
0

>  <SCORE.INTRA.REPUL>
0

>  <SCORE.INTRA.REPUL.0>
0

>  <SCORE.INTRA.SOLV>
0.618998

>  <SCORE.INTRA.SOLV.lig_0>
-37.9941

>  <SCORE.INTRA.VDW>
-0.839124

>  <SCORE.INTRA.VDW.0>
-0.964461

>  <SCORE.INTRA.norm>
-0.0352932

>  <SCORE.RESTR>
0

>  <SCORE.RESTR.CAVITY>
0

>  <SCORE.RESTR.norm>
0

>  <SCORE.SYSTEM>
0

>  <SCORE.SYSTEM.CONST>
0

>  <SCORE.SYSTEM.DIHEDRAL>
0

>  <SCORE.SYSTEM.SOLV>
0

>  <SCORE.SYSTEM.norm>
0

>  <SCORE.heavy>
19

>  <SCORE.norm>
-0.821466

>  <RMSD>
16.453

$$$$
ligand
 OpenBabel11021811483D
libRbt.so/2013.1/901 2013/11/27
 19 21  0  0  0  0  0  0  0  0999 V2000
   34.8194   27.0533   44.7746 C   0  0  0  0  0  0  0  0  0  0  0  0
   33.9627   26.2745   45.6279 O   0  0  0  0  0  0  0  0  0  0  0  0
   34.8431   26.4926   43.3488 C   0  0  1  0  0  0  0  0  0  0  0  0
   33.5380   26.5344   42.7721 O   0  0  0  0  0  0  0  0  0  0  0  0
   35.7538   27.2965   42.4404 C   0  0  1  0  0  0  0  0  0  0  0  0
   36.5382   26.3860   41.6688 O   0  0  0  0  0  0  0  0  0  0  0  0
   34.8548   28.0790   41.5101 C   0  0  0  0  0  0  0  0  0  0  0  0
   33.4912   27.4266   41.6472 C   0  0  2  0  0  0  0  0  0  0  0  0
   31.8211   31.1333   44.8455 N   0  0  0  0  0  0  0  0  0  0  0  0
   32.9040   30.3223   44.9174 C   0  0  2  0  0  0  0  0  0  0  0  0
   33.7592   30.4246   45.9566 N   0  0  0  0  0  0  0  0  0  0  0  0
   33.1612   29.3997   43.9663 N   0  0  0  0  0  0  0  0  0  0  0  0
   32.3510   29.2419   42.9001 C   0  0  1  0  0  0  0  0  0  0  0  0
   31.2297   30.0274   42.7633 C   0  0  1  0  0  0  0  0  0  0  0  0
   30.9582   31.0395   43.8137 C   0  0  0  0  0  0  0  0  0  0  0  0
   29.9534   31.7815   43.7469 O   0  0  0  0  0  0  0  0  0  0  0  0
   30.6131   29.6647   41.6254 N   0  0  0  0  0  0  0  0  0  0  0  0
   31.3482   28.6704   41.0761 C   0  0  0  0  0  0  0  0  0  0  0  0
   32.4076   28.4222   41.8629 N   0  0  1  0  0  0  0  0  0  0  0  0
  1  2  1  0  0  0  0
  3  1  1  1  0  0  0
  3  4  1  0  0  0  0
  3  5  1  0  0  0  0
  5  6  1  6  0  0  0
  5  7  1  0  0  0  0
  7  8  1  0  0  0  0
  8  4  1  1  0  0  0
  8 19  1  0  0  0  0
  9 15  1  0  0  0  0
  9 10  1  0  0  0  0
 10 11  1  6  0  0  0
 10 12  1  0  0  0  0
 13 12  1  6  0  0  0
 13 14  1  0  0  0  0
 13 19  1  0  0  0  0
 14 15  1  6  0  0  0
 14 17  1  0  0  0  0
 15 16  2  0  0  0  0
 17 18  1  0  0  0  0
 19 18  1  6  0  0  0
M  END
>  <CHROM.1>
61.48222327,58.44873098,33.11382149,28.66463840,43.24485682,-0.40255038,-0.71354759
1.19249764

>  <Name>
ligand

>  <RI>
0

>  <Rbt.Current_Directory>
/home/itssahil/PROJECTS/Mol_Feturizer/New_Systems/rnas/3SKL

>  <Rbt.Executable>
rbdock ($Id: //depot/dev/client3/rdock/2013.1/src/exe/rbdock.cxx#4 $)

>  <Rbt.Library>
libRbt.so (2013.1, Build901 2013/11/27)

>  <Rbt.Parameter_File>
/export/apps/rDock/src/rDock_2013.1_src/data/scripts/dock_solv.prm

>  <Rbt.Receptor>
prm/blind_docking_80.prm

>  <SCORE>
-13.742

>  <SCORE.INTER>
-13.1815

>  <SCORE.INTER.CONST>
1

>  <SCORE.INTER.POLAR>
0

>  <SCORE.INTER.ROT>
2

>  <SCORE.INTER.SOLV>
12.0699

>  <SCORE.INTER.VDW>
-17.7443

>  <SCORE.INTER.norm>
-0.693761

>  <SCORE.INTRA>
-0.560584

>  <SCORE.INTRA.DIHEDRAL>
-0.292359

>  <SCORE.INTRA.DIHEDRAL.0>
1.50031

>  <SCORE.INTRA.POLAR>
0

>  <SCORE.INTRA.POLAR.0>
0

>  <SCORE.INTRA.REPUL>
0

>  <SCORE.INTRA.REPUL.0>
0

>  <SCORE.INTRA.SOLV>
0.865822

>  <SCORE.INTRA.SOLV.lig_0>
-37.9941

>  <SCORE.INTRA.VDW>
-0.847316

>  <SCORE.INTRA.VDW.0>
-0.964461

>  <SCORE.INTRA.norm>
-0.0295044

>  <SCORE.RESTR>
0

>  <SCORE.RESTR.CAVITY>
0

>  <SCORE.RESTR.norm>
0

>  <SCORE.SYSTEM>
0

>  <SCORE.SYSTEM.CONST>
0

>  <SCORE.SYSTEM.DIHEDRAL>
0

>  <SCORE.SYSTEM.SOLV>
0

>  <SCORE.SYSTEM.norm>
0

>  <SCORE.heavy>
19

>  <SCORE.norm>
-0.723265

>  <RMSD>
16.458

$$$$
ligand
 OpenBabel11021811483D
libRbt.so/2013.1/901 2013/11/27
 19 21  0  0  0  0  0  0  0  0999 V2000
   33.1704   29.4324   46.6138 C   0  0  0  0  0  0  0  0  0  0  0  0
   33.7846   28.1373   46.4945 O   0  0  0  0  0  0  0  0  0  0  0  0
   32.1569   29.4638   47.7626 C   0  0  1  0  0  0  0  0  0  0  0  0
   31.5758   30.7620   47.8829 O   0  0  0  0  0  0  0  0  0  0  0  0
   31.0172   28.4884   47.5375 C   0  0  1  0  0  0  0  0  0  0  0  0
   30.7733   27.7908   48.7596 O   0  0  0  0  0  0  0  0  0  0  0  0
   29.8001   29.3175   47.1952 C   0  0  0  0  0  0  0  0  0  0  0  0
   30.1675   30.7332   47.6009 C   0  0  2  0  0  0  0  0  0  0  0  0
   30.8505   31.7754   42.5804 N   0  0  0  0  0  0  0  0  0  0  0  0
   31.2851   30.7394   43.3377 C   0  0  2  0  0  0  0  0  0  0  0  0
   32.0223   29.7555   42.7807 N   0  0  0  0  0  0  0  0  0  0  0  0
   30.9988   30.6566   44.6542 N   0  0  0  0  0  0  0  0  0  0  0  0
   30.2671   31.6024   45.2771 C   0  0  1  0  0  0  0  0  0  0  0  0
   29.7960   32.6860   44.5722 C   0  0  1  0  0  0  0  0  0  0  0  0
   30.1152   32.7655   43.1254 C   0  0  0  0  0  0  0  0  0  0  0  0
   29.7178   33.7273   42.4314 O   0  0  0  0  0  0  0  0  0  0  0  0
   29.1059   33.4606   45.4267 N   0  0  0  0  0  0  0  0  0  0  0  0
   29.1562   32.8578   46.6370 C   0  0  0  0  0  0  0  0  0  0  0  0
   29.8668   31.7233   46.5325 N   0  0  1  0  0  0  0  0  0  0  0  0
  1  2  1  0  0  0  0
  3  1  1  6  0  0  0
  3  4  1  0  0  0  0
  3  5  1  0  0  0  0
  5  6  1  1  0  0  0
  5  7  1  0  0  0  0
  7  8  1  0  0  0  0
  8  4  1  6  0  0  0
  8 19  1  0  0  0  0
  9 15  1  0  0  0  0
  9 10  1  0  0  0  0
 10 11  1  6  0  0  0
 10 12  1  0  0  0  0
 13 12  1  6  0  0  0
 13 14  1  0  0  0  0
 13 19  1  0  0  0  0
 14 15  1  6  0  0  0
 14 17  1  0  0  0  0
 15 16  2  0  0  0  0
 17 18  1  0  0  0  0
 19 18  1  6  0  0  0
M  END
>  <CHROM.1>
178.90844959,68.21231628,30.86553386,30.77797767,45.68292731,-1.13570507
0.81878407,-1.15001821

>  <Name>
ligand

>  <RI>
0

>  <Rbt.Current_Directory>
/home/itssahil/PROJECTS/Mol_Feturizer/New_Systems/rnas/3SKL

>  <Rbt.Executable>
rbdock ($Id: //depot/dev/client3/rdock/2013.1/src/exe/rbdock.cxx#4 $)

>  <Rbt.Library>
libRbt.so (2013.1, Build901 2013/11/27)

>  <Rbt.Parameter_File>
/export/apps/rDock/src/rDock_2013.1_src/data/scripts/dock_solv.prm

>  <Rbt.Receptor>
prm/blind_docking_100.prm

>  <SCORE>
-15.6669

>  <SCORE.INTER>
-15.0849

>  <SCORE.INTER.CONST>
1

>  <SCORE.INTER.POLAR>
0

>  <SCORE.INTER.ROT>
2

>  <SCORE.INTER.SOLV>
8.92387

>  <SCORE.INTER.VDW>
-17.9645

>  <SCORE.INTER.norm>
-0.793941

>  <SCORE.INTRA>
-0.582016

>  <SCORE.INTRA.DIHEDRAL>
-0.284314

>  <SCORE.INTRA.DIHEDRAL.0>
1.50031

>  <SCORE.INTRA.POLAR>
0

>  <SCORE.INTRA.POLAR.0>
0

>  <SCORE.INTRA.REPUL>
0

>  <SCORE.INTRA.REPUL.0>
0

>  <SCORE.INTRA.SOLV>
0.398147

>  <SCORE.INTRA.SOLV.lig_0>
-37.9941

>  <SCORE.INTRA.VDW>
-0.638932

>  <SCORE.INTRA.VDW.0>
-0.964461

>  <SCORE.INTRA.norm>
-0.0306324

>  <SCORE.RESTR>
0

>  <SCORE.RESTR.CAVITY>
0

>  <SCORE.RESTR.norm>
0

>  <SCORE.SYSTEM>
0

>  <SCORE.SYSTEM.CONST>
0

>  <SCORE.SYSTEM.DIHEDRAL>
0

>  <SCORE.SYSTEM.SOLV>
0

>  <SCORE.SYSTEM.norm>
0

>  <SCORE.heavy>
19

>  <SCORE.norm>
-0.824574

>  <RMSD>
16.472

$$$$
ligand
 OpenBabel11021811483D
libRbt.so/2013.1/901 2013/11/27
 19 21  0  0  0  0  0  0  0  0999 V2000
   33.2478   29.4347   46.6749 C   0  0  0  0  0  0  0  0  0  0  0  0
   33.8888   28.1521   46.5617 O   0  0  0  0  0  0  0  0  0  0  0  0
   32.2073   29.4394   47.7997 C   0  0  1  0  0  0  0  0  0  0  0  0
   31.5905   30.7222   47.9066 O   0  0  0  0  0  0  0  0  0  0  0  0
   31.0986   28.4353   47.5481 C   0  0  1  0  0  0  0  0  0  0  0  0
   30.8443   27.7309   48.7643 O   0  0  0  0  0  0  0  0  0  0  0  0
   29.8689   29.2332   47.1777 C   0  0  0  0  0  0  0  0  0  0  0  0
   30.1905   30.6576   47.5918 C   0  0  2  0  0  0  0  0  0  0  0  0
   30.9198   31.6935   42.5766 N   0  0  0  0  0  0  0  0  0  0  0  0
   31.3590   30.6658   43.3423 C   0  0  2  0  0  0  0  0  0  0  0  0
   32.1160   29.6902   42.7974 N   0  0  0  0  0  0  0  0  0  0  0  0
   31.0581   30.5831   44.6555 N   0  0  0  0  0  0  0  0  0  0  0  0
   30.3063   31.5209   45.2667 C   0  0  1  0  0  0  0  0  0  0  0  0
   29.8293   32.5960   44.5527 C   0  0  1  0  0  0  0  0  0  0  0  0
   30.1647   32.6754   43.1095 C   0  0  0  0  0  0  0  0  0  0  0  0
   29.7629   33.6297   42.4078 O   0  0  0  0  0  0  0  0  0  0  0  0
   29.1187   33.3639   45.3963 N   0  0  0  0  0  0  0  0  0  0  0  0
   29.1625   32.7654   46.6091 C   0  0  0  0  0  0  0  0  0  0  0  0
   29.8894   31.6403   46.5168 N   0  0  1  0  0  0  0  0  0  0  0  0
  1  2  1  0  0  0  0
  3  1  1  6  0  0  0
  3  4  1  0  0  0  0
  3  5  1  0  0  0  0
  5  6  1  1  0  0  0
  5  7  1  0  0  0  0
  7  8  1  0  0  0  0
  8  4  1  6  0  0  0
  8 19  1  0  0  0  0
  9 15  1  0  0  0  0
  9 10  1  0  0  0  0
 10 11  1  6  0  0  0
 10 12  1  0  0  0  0
 13 12  1  6  0  0  0
 13 14  1  0  0  0  0
 13 19  1  0  0  0  0
 14 15  1  6  0  0  0
 14 17  1  0  0  0  0
 15 16  2  0  0  0  0
 17 18  1  0  0  0  0
 19 18  1  6  0  0  0
M  END
>  <CHROM.1>
179.44538449,69.18551607,30.91860564,30.71363830,45.68669828,-1.13978934
0.79737224,-1.15352608

>  <Name>
ligand

>  <RI>
0

>  <Rbt.Current_Directory>
/home/itssahil/PROJECTS/Mol_Feturizer/New_Systems/rnas/3SKL

>  <Rbt.Executable>
rbdock ($Id: //depot/dev/client3/rdock/2013.1/src/exe/rbdock.cxx#4 $)

>  <Rbt.Library>
libRbt.so (2013.1, Build901 2013/11/27)

>  <Rbt.Parameter_File>
/export/apps/rDock/src/rDock_2013.1_src/data/scripts/dock_solv.prm

>  <Rbt.Receptor>
prm/blind_docking_80.prm

>  <SCORE>
-15.7061

>  <SCORE.INTER>
-15.1296

>  <SCORE.INTER.CONST>
1

>  <SCORE.INTER.POLAR>
0

>  <SCORE.INTER.ROT>
2

>  <SCORE.INTER.SOLV>
8.70734

>  <SCORE.INTER.VDW>
-17.9222

>  <SCORE.INTER.norm>
-0.796295

>  <SCORE.INTRA>
-0.576502

>  <SCORE.INTRA.DIHEDRAL>
-0.286194

>  <SCORE.INTRA.DIHEDRAL.0>
1.50031

>  <SCORE.INTRA.POLAR>
0

>  <SCORE.INTRA.POLAR.0>
0

>  <SCORE.INTRA.REPUL>
0

>  <SCORE.INTRA.REPUL.0>
0

>  <SCORE.INTRA.SOLV>
0.360456

>  <SCORE.INTRA.SOLV.lig_0>
-37.9941

>  <SCORE.INTRA.VDW>
-0.613634

>  <SCORE.INTRA.VDW.0>
-0.964461

>  <SCORE.INTRA.norm>
-0.0303422

>  <SCORE.RESTR>
0

>  <SCORE.RESTR.CAVITY>
0

>  <SCORE.RESTR.norm>
0

>  <SCORE.SYSTEM>
0

>  <SCORE.SYSTEM.CONST>
0

>  <SCORE.SYSTEM.DIHEDRAL>
0

>  <SCORE.SYSTEM.SOLV>
0

>  <SCORE.SYSTEM.norm>
0

>  <SCORE.heavy>
19

>  <SCORE.norm>
-0.826637

>  <RMSD>
16.502

$$$$
ligand
 OpenBabel11021811483D
libRbt.so/2013.1/901 2013/11/27
 19 21  0  0  0  0  0  0  0  0999 V2000
   33.2521   29.5084   46.7026 C   0  0  0  0  0  0  0  0  0  0  0  0
   33.9327   28.2461   46.5927 O   0  0  0  0  0  0  0  0  0  0  0  0
   32.1986   29.4775   47.8149 C   0  0  1  0  0  0  0  0  0  0  0  0
   31.5571   30.7471   47.9330 O   0  0  0  0  0  0  0  0  0  0  0  0
   31.1116   28.4571   47.5353 C   0  0  1  0  0  0  0  0  0  0  0  0
   30.8560   27.7303   48.7379 O   0  0  0  0  0  0  0  0  0  0  0  0
   29.8718   29.2379   47.1618 C   0  0  0  0  0  0  0  0  0  0  0  0
   30.1622   30.6616   47.6005 C   0  0  2  0  0  0  0  0  0  0  0  0
   30.9063   31.7694   42.6028 N   0  0  0  0  0  0  0  0  0  0  0  0
   31.3531   30.7370   43.3579 C   0  0  2  0  0  0  0  0  0  0  0  0
   32.1239   29.7770   42.8048 N   0  0  0  0  0  0  0  0  0  0  0  0
   31.0462   30.6343   44.6683 N   0  0  0  0  0  0  0  0  0  0  0  0
   30.2806   31.5557   45.2872 C   0  0  1  0  0  0  0  0  0  0  0  0
   29.7953   32.6344   44.5843 C   0  0  1  0  0  0  0  0  0  0  0  0
   30.1374   32.7359   43.1441 C   0  0  0  0  0  0  0  0  0  0  0  0
   29.7286   33.6944   42.4523 O   0  0  0  0  0  0  0  0  0  0  0  0
   29.0716   33.3834   45.4337 N   0  0  0  0  0  0  0  0  0  0  0  0
   29.1157   32.7701   46.6390 C   0  0  0  0  0  0  0  0  0  0  0  0
   29.8557   31.6545   46.5364 N   0  0  1  0  0  0  0  0  0  0  0  0
  1  2  1  0  0  0  0
  3  1  1  6  0  0  0
  3  4  1  0  0  0  0
  3  5  1  0  0  0  0
  5  6  1  1  0  0  0
  5  7  1  0  0  0  0
  7  8  1  0  0  0  0
  8  4  1  6  0  0  0
  8 19  1  0  0  0  0
  9 15  1  0  0  0  0
  9 10  1  0  0  0  0
 10 11  1  6  0  0  0
 10 12  1  0  0  0  0
 13 12  1  6  0  0  0
 13 14  1  0  0  0  0
 13 19  1  0  0  0  0
 14 15  1  6  0  0  0
 14 17  1  0  0  0  0
 15 16  2  0  0  0  0
 17 18  1  0  0  0  0
 19 18  1  6  0  0  0
M  END
>  <CHROM.1>
178.52504535,69.74741846,30.90536014,30.75516929,45.70414163,-1.13762751
0.78029606,-1.14416258

>  <Name>
ligand

>  <RI>
0

>  <Rbt.Current_Directory>
/home/itssahil/PROJECTS/Mol_Feturizer/New_Systems/rnas/3SKL

>  <Rbt.Executable>
rbdock ($Id: //depot/dev/client3/rdock/2013.1/src/exe/rbdock.cxx#4 $)

>  <Rbt.Library>
libRbt.so (2013.1, Build901 2013/11/27)

>  <Rbt.Parameter_File>
/export/apps/rDock/src/rDock_2013.1_src/data/scripts/dock_solv.prm

>  <Rbt.Receptor>
prm/blind_docking_80.prm

>  <SCORE>
-15.6657

>  <SCORE.INTER>
-15.0882

>  <SCORE.INTER.CONST>
1

>  <SCORE.INTER.POLAR>
0

>  <SCORE.INTER.ROT>
2

>  <SCORE.INTER.SOLV>
8.70896

>  <SCORE.INTER.VDW>
-17.8951

>  <SCORE.INTER.norm>
-0.794115

>  <SCORE.INTRA>
-0.577479

>  <SCORE.INTRA.DIHEDRAL>
-0.27907

>  <SCORE.INTRA.DIHEDRAL.0>
1.50031

>  <SCORE.INTRA.POLAR>
0

>  <SCORE.INTRA.POLAR.0>
0

>  <SCORE.INTRA.REPUL>
0

>  <SCORE.INTRA.REPUL.0>
0

>  <SCORE.INTRA.SOLV>
0.332392

>  <SCORE.INTRA.SOLV.lig_0>
-37.9941

>  <SCORE.INTRA.VDW>
-0.60414

>  <SCORE.INTRA.VDW.0>
-0.964461

>  <SCORE.INTRA.norm>
-0.0303936

>  <SCORE.RESTR>
0

>  <SCORE.RESTR.CAVITY>
0

>  <SCORE.RESTR.norm>
0

>  <SCORE.SYSTEM>
0

>  <SCORE.SYSTEM.CONST>
0

>  <SCORE.SYSTEM.DIHEDRAL>
0

>  <SCORE.SYSTEM.SOLV>
0

>  <SCORE.SYSTEM.norm>
0

>  <SCORE.heavy>
19

>  <SCORE.norm>
-0.824508

>  <RMSD>
16.509

$$$$
ligand
 OpenBabel11021811483D
libRbt.so/2013.1/901 2013/11/27
 19 21  0  0  0  0  0  0  0  0999 V2000
   33.2425   29.5317   46.7637 C   0  0  0  0  0  0  0  0  0  0  0  0
   33.9319   28.2733   46.6654 O   0  0  0  0  0  0  0  0  0  0  0  0
   32.1708   29.4949   47.8582 C   0  0  1  0  0  0  0  0  0  0  0  0
   31.5192   30.7605   47.9644 O   0  0  0  0  0  0  0  0  0  0  0  0
   31.0951   28.4674   47.5614 C   0  0  1  0  0  0  0  0  0  0  0  0
   30.8241   27.7399   48.7602 O   0  0  0  0  0  0  0  0  0  0  0  0
   29.8568   29.2399   47.1665 C   0  0  0  0  0  0  0  0  0  0  0  0
   30.1307   30.6658   47.6088 C   0  0  2  0  0  0  0  0  0  0  0  0
   30.9213   31.7559   42.6143 N   0  0  0  0  0  0  0  0  0  0  0  0
   31.3593   30.7250   43.3766 C   0  0  2  0  0  0  0  0  0  0  0  0
   32.1329   29.7616   42.8334 N   0  0  0  0  0  0  0  0  0  0  0  0
   31.0405   30.6271   44.6846 N   0  0  0  0  0  0  0  0  0  0  0  0
   30.2714   31.5522   45.2937 C   0  0  1  0  0  0  0  0  0  0  0  0
   29.7946   32.6295   44.5830 C   0  0  1  0  0  0  0  0  0  0  0  0
   30.1497   32.7256   43.1456 C   0  0  0  0  0  0  0  0  0  0  0  0
   29.7490   33.6828   42.4471 O   0  0  0  0  0  0  0  0  0  0  0  0
   29.0649   33.3828   45.4236 N   0  0  0  0  0  0  0  0  0  0  0  0
   29.0971   32.7733   46.6312 C   0  0  0  0  0  0  0  0  0  0  0  0
   29.8357   31.6558   46.5388 N   0  0  1  0  0  0  0  0  0  0  0  0
  1  2  1  0  0  0  0
  3  1  1  6  0  0  0
  3  4  1  0  0  0  0
  3  5  1  0  0  0  0
  5  6  1  1  0  0  0
  5  7  1  0  0  0  0
  7  8  1  0  0  0  0
  8  4  1  6  0  0  0
  8 19  1  0  0  0  0
  9 15  1  0  0  0  0
  9 10  1  0  0  0  0
 10 11  1  6  0  0  0
 10 12  1  0  0  0  0
 13 12  1  6  0  0  0
 13 14  1  0  0  0  0
 13 19  1  0  0  0  0
 14 15  1  6  0  0  0
 14 17  1  0  0  0  0
 15 16  2  0  0  0  0
 17 18  1  0  0  0  0
 19 18  1  6  0  0  0
M  END
>  <CHROM.1>
178.58491195,70.42418673,30.89629200,30.75729496,45.72238722,-1.14752982
0.77508841,-1.14291135

>  <Name>
ligand

>  <RI>
0

>  <Rbt.Current_Directory>
/home/itssahil/PROJECTS/Mol_Feturizer/New_Systems/rnas/3SKL

>  <Rbt.Executable>
rbdock ($Id: //depot/dev/client3/rdock/2013.1/src/exe/rbdock.cxx#4 $)

>  <Rbt.Library>
libRbt.so (2013.1, Build901 2013/11/27)

>  <Rbt.Parameter_File>
/export/apps/rDock/src/rDock_2013.1_src/data/scripts/dock_solv.prm

>  <Rbt.Receptor>
prm/blind_docking_80.prm

>  <SCORE>
-15.688

>  <SCORE.INTER>
-15.1501

>  <SCORE.INTER.CONST>
1

>  <SCORE.INTER.POLAR>
0

>  <SCORE.INTER.ROT>
2

>  <SCORE.INTER.SOLV>
8.68749

>  <SCORE.INTER.VDW>
-17.9292

>  <SCORE.INTER.norm>
-0.797373

>  <SCORE.INTRA>
-0.537936

>  <SCORE.INTRA.DIHEDRAL>
-0.278905

>  <SCORE.INTRA.DIHEDRAL.0>
1.50031

>  <SCORE.INTRA.POLAR>
0

>  <SCORE.INTRA.POLAR.0>
0

>  <SCORE.INTRA.REPUL>
0

>  <SCORE.INTRA.REPUL.0>
0

>  <SCORE.INTRA.SOLV>
0.303913

>  <SCORE.INTRA.SOLV.lig_0>
-37.9941

>  <SCORE.INTRA.VDW>
-0.55044

>  <SCORE.INTRA.VDW.0>
-0.964461

>  <SCORE.INTRA.norm>
-0.0283124

>  <SCORE.RESTR>
0

>  <SCORE.RESTR.CAVITY>
0

>  <SCORE.RESTR.norm>
0

>  <SCORE.SYSTEM>
0

>  <SCORE.SYSTEM.CONST>
0

>  <SCORE.SYSTEM.DIHEDRAL>
0

>  <SCORE.SYSTEM.SOLV>
0

>  <SCORE.SYSTEM.norm>
0

>  <SCORE.heavy>
19

>  <SCORE.norm>
-0.825685

>  <RMSD>
16.514

$$$$
ligand
 OpenBabel11021811483D
libRbt.so/2013.1/901 2013/11/27
 19 21  0  0  0  0  0  0  0  0999 V2000
   28.5200   28.1002   50.6599 C   0  0  0  0  0  0  0  0  0  0  0  0
   27.0888   28.0576   50.7960 O   0  0  0  0  0  0  0  0  0  0  0  0
   28.9731   27.4585   49.3443 C   0  0  1  0  0  0  0  0  0  0  0  0
   28.4637   28.1889   48.2288 O   0  0  0  0  0  0  0  0  0  0  0  0
   30.4842   27.4467   49.2123 C   0  0  1  0  0  0  0  0  0  0  0  0
   30.8850   26.1599   48.7396 O   0  0  0  0  0  0  0  0  0  0  0  0
   30.8348   28.4831   48.1689 C   0  0  0  0  0  0  0  0  0  0  0  0
   29.5243   28.7852   47.4652 C   0  0  2  0  0  0  0  0  0  0  0  0
   30.2920   32.9024   44.4292 N   0  0  0  0  0  0  0  0  0  0  0  0
   30.6791   31.6118   44.2871 C   0  0  2  0  0  0  0  0  0  0  0  0
   31.3822   31.2313   43.1996 N   0  0  0  0  0  0  0  0  0  0  0  0
   30.3781   30.6770   45.2130 N   0  0  0  0  0  0  0  0  0  0  0  0
   29.6784   30.9849   46.3238 C   0  0  1  0  0  0  0  0  0  0  0  0
   29.2563   32.2769   46.5374 C   0  0  1  0  0  0  0  0  0  0  0  0
   29.5911   33.2956   45.5119 C   0  0  0  0  0  0  0  0  0  0  0  0
   29.2378   34.4874   45.6506 O   0  0  0  0  0  0  0  0  0  0  0  0
   28.5894   32.3012   47.7041 N   0  0  0  0  0  0  0  0  0  0  0  0
   28.6053   31.0408   48.1959 C   0  0  0  0  0  0  0  0  0  0  0  0
   29.2720   30.2459   47.3434 N   0  0  1  0  0  0  0  0  0  0  0  0
  1  2  1  0  0  0  0
  3  1  1  1  0  0  0
  3  4  1  0  0  0  0
  3  5  1  0  0  0  0
  5  6  1  6  0  0  0
  5  7  1  0  0  0  0
  7  8  1  0  0  0  0
  8  4  1  1  0  0  0
  8 19  1  0  0  0  0
  9 15  1  0  0  0  0
  9 10  1  0  0  0  0
 10 11  1  6  0  0  0
 10 12  1  0  0  0  0
 13 12  1  6  0  0  0
 13 14  1  0  0  0  0
 13 19  1  0  0  0  0
 14 15  1  6  0  0  0
 14 17  1  0  0  0  0
 15 16  2  0  0  0  0
 17 18  1  0  0  0  0
 19 18  1  6  0  0  0
M  END
>  <CHROM.1>
63.19295400,-151.07419527,29.54435499,30.12983375,47.26945212,1.77570233
-0.84792847,2.56297649

>  <Name>
ligand

>  <RI>
0

>  <Rbt.Current_Directory>
/home/itssahil/PROJECTS/Mol_Feturizer/New_Systems/rnas/3SKL

>  <Rbt.Executable>
rbdock ($Id: //depot/dev/client3/rdock/2013.1/src/exe/rbdock.cxx#4 $)

>  <Rbt.Library>
libRbt.so (2013.1, Build901 2013/11/27)

>  <Rbt.Parameter_File>
/export/apps/rDock/src/rDock_2013.1_src/data/scripts/dock_solv.prm

>  <Rbt.Receptor>
prm/blind_docking_100.prm

>  <SCORE>
-16.5891

>  <SCORE.INTER>
-15.9727

>  <SCORE.INTER.CONST>
1

>  <SCORE.INTER.POLAR>
0

>  <SCORE.INTER.ROT>
2

>  <SCORE.INTER.SOLV>
11.2277

>  <SCORE.INTER.VDW>
-19.3244

>  <SCORE.INTER.norm>
-0.840667

>  <SCORE.INTRA>
-0.616386

>  <SCORE.INTRA.DIHEDRAL>
-0.235608

>  <SCORE.INTRA.DIHEDRAL.0>
1.50031

>  <SCORE.INTRA.POLAR>
0

>  <SCORE.INTRA.POLAR.0>
0

>  <SCORE.INTRA.REPUL>
0

>  <SCORE.INTRA.REPUL.0>
0

>  <SCORE.INTRA.SOLV>
-0.570233

>  <SCORE.INTRA.SOLV.lig_0>
-37.9941

>  <SCORE.INTRA.VDW>
-0.213465

>  <SCORE.INTRA.VDW.0>
-0.964461

>  <SCORE.INTRA.norm>
-0.0324413

>  <SCORE.RESTR>
0

>  <SCORE.RESTR.CAVITY>
0

>  <SCORE.RESTR.norm>
0

>  <SCORE.SYSTEM>
0

>  <SCORE.SYSTEM.CONST>
0

>  <SCORE.SYSTEM.DIHEDRAL>
0

>  <SCORE.SYSTEM.SOLV>
0

>  <SCORE.SYSTEM.norm>
0

>  <SCORE.heavy>
19

>  <SCORE.norm>
-0.873109

>  <RMSD>
16.520

$$$$
ligand
 OpenBabel11021811483D
libRbt.so/2013.1/901 2013/11/27
 19 21  0  0  0  0  0  0  0  0999 V2000
   28.4864   28.1299   50.6549 C   0  0  0  0  0  0  0  0  0  0  0  0
   27.0538   28.2054   50.7578 O   0  0  0  0  0  0  0  0  0  0  0  0
   28.9158   27.4715   49.3396 C   0  0  1  0  0  0  0  0  0  0  0  0
   28.4325   28.2190   48.2238 O   0  0  0  0  0  0  0  0  0  0  0  0
   30.4254   27.4055   49.2072 C   0  0  1  0  0  0  0  0  0  0  0  0
   30.7798   26.1049   48.7352 O   0  0  0  0  0  0  0  0  0  0  0  0
   30.8126   28.4280   48.1629 C   0  0  0  0  0  0  0  0  0  0  0  0
   29.5135   28.7764   47.4595 C   0  0  2  0  0  0  0  0  0  0  0  0
   30.3754   32.8520   44.3929 N   0  0  0  0  0  0  0  0  0  0  0  0
   30.7112   31.5474   44.2484 C   0  0  2  0  0  0  0  0  0  0  0  0
   31.3783   31.1373   43.1491 N   0  0  0  0  0  0  0  0  0  0  0  0
   30.3935   30.6275   45.1837 N   0  0  0  0  0  0  0  0  0  0  0  0
   29.7274   30.9650   46.3065 C   0  0  1  0  0  0  0  0  0  0  0  0
   29.3581   32.2726   46.5231 C   0  0  1  0  0  0  0  0  0  0  0  0
   29.7108   33.2747   45.4873 C   0  0  0  0  0  0  0  0  0  0  0  0
   29.4050   34.4794   45.6280 O   0  0  0  0  0  0  0  0  0  0  0  0
   28.7154   32.3256   47.7023 N   0  0  0  0  0  0  0  0  0  0  0  0
   28.6938   31.0671   48.1987 C   0  0  0  0  0  0  0  0  0  0  0  0
   29.3136   30.2451   47.3367 N   0  0  1  0  0  0  0  0  0  0  0  0
  1  2  1  0  0  0  0
  3  1  1  1  0  0  0
  3  4  1  0  0  0  0
  3  5  1  0  0  0  0
  5  6  1  6  0  0  0
  5  7  1  0  0  0  0
  7  8  1  0  0  0  0
  8  4  1  1  0  0  0
  8 19  1  0  0  0  0
  9 15  1  0  0  0  0
  9 10  1  0  0  0  0
 10 11  1  6  0  0  0
 10 12  1  0  0  0  0
 13 12  1  6  0  0  0
 13 14  1  0  0  0  0
 13 19  1  0  0  0  0
 14 15  1  6  0  0  0
 14 17  1  0  0  0  0
 15 16  2  0  0  0  0
 17 18  1  0  0  0  0
 19 18  1  6  0  0  0
M  END
>  <CHROM.1>
59.99682098,-149.96775359,29.56685286,30.12069199,47.25287589,1.81338658
-0.87781661,2.58925489

>  <Name>
ligand

>  <RI>
0

>  <Rbt.Current_Directory>
/home/itssahil/PROJECTS/Mol_Feturizer/New_Systems/rnas/3SKL

>  <Rbt.Executable>
rbdock ($Id: //depot/dev/client3/rdock/2013.1/src/exe/rbdock.cxx#4 $)

>  <Rbt.Library>
libRbt.so (2013.1, Build901 2013/11/27)

>  <Rbt.Parameter_File>
/export/apps/rDock/src/rDock_2013.1_src/data/scripts/dock_solv.prm

>  <Rbt.Receptor>
prm/blind_docking_100.prm

>  <SCORE>
-16.7675

>  <SCORE.INTER>
-16.1169

>  <SCORE.INTER.CONST>
1

>  <SCORE.INTER.POLAR>
0

>  <SCORE.INTER.ROT>
2

>  <SCORE.INTER.SOLV>
11.3548

>  <SCORE.INTER.VDW>
-19.4628

>  <SCORE.INTER.norm>
-0.848255

>  <SCORE.INTRA>
-0.650695

>  <SCORE.INTRA.DIHEDRAL>
-0.273283

>  <SCORE.INTRA.DIHEDRAL.0>
1.50031

>  <SCORE.INTRA.POLAR>
0

>  <SCORE.INTRA.POLAR.0>
0

>  <SCORE.INTRA.REPUL>
0

>  <SCORE.INTRA.REPUL.0>
0

>  <SCORE.INTRA.SOLV>
-0.554352

>  <SCORE.INTRA.SOLV.lig_0>
-37.9941

>  <SCORE.INTRA.VDW>
-0.236877

>  <SCORE.INTRA.VDW.0>
-0.964461

>  <SCORE.INTRA.norm>
-0.0342471

>  <SCORE.RESTR>
0

>  <SCORE.RESTR.CAVITY>
0

>  <SCORE.RESTR.norm>
0

>  <SCORE.SYSTEM>
0

>  <SCORE.SYSTEM.CONST>
0

>  <SCORE.SYSTEM.DIHEDRAL>
0

>  <SCORE.SYSTEM.SOLV>
0

>  <SCORE.SYSTEM.norm>
0

>  <SCORE.heavy>
19

>  <SCORE.norm>
-0.882503

>  <RMSD>
16.527

$$$$
ligand
 OpenBabel11021811483D
libRbt.so/2013.1/901 2013/11/27
 19 21  0  0  0  0  0  0  0  0999 V2000
   35.8497   28.7516   47.6994 C   0  0  0  0  0  0  0  0  0  0  0  0
   35.6092   29.4207   46.4491 O   0  0  0  0  0  0  0  0  0  0  0  0
   34.6107   27.9792   48.1643 C   0  0  1  0  0  0  0  0  0  0  0  0
   33.5256   28.8734   48.4102 O   0  0  0  0  0  0  0  0  0  0  0  0
   34.1378   26.9872   47.1186 C   0  0  1  0  0  0  0  0  0  0  0  0
   33.8372   25.7532   47.7717 O   0  0  0  0  0  0  0  0  0  0  0  0
   32.8650   27.5532   46.5306 C   0  0  0  0  0  0  0  0  0  0  0  0
   32.4391   28.6409   47.4997 C   0  0  2  0  0  0  0  0  0  0  0  0
   28.8128   32.3013   47.0422 N   0  0  0  0  0  0  0  0  0  0  0  0
   28.8387   31.1669   47.7827 C   0  0  2  0  0  0  0  0  0  0  0  0
   27.7929   30.8512   48.5753 N   0  0  0  0  0  0  0  0  0  0  0  0
   29.8955   30.3278   47.7544 N   0  0  0  0  0  0  0  0  0  0  0  0
   30.9750   30.5795   46.9865 C   0  0  1  0  0  0  0  0  0  0  0  0
   31.0167   31.7106   46.2043 C   0  0  1  0  0  0  0  0  0  0  0  0
   29.8503   32.6267   46.2449 C   0  0  0  0  0  0  0  0  0  0  0  0
   29.8276   33.6694   45.5544 O   0  0  0  0  0  0  0  0  0  0  0  0
   32.1920   31.7133   45.5523 N   0  0  0  0  0  0  0  0  0  0  0  0
   32.8579   30.5980   45.9313 C   0  0  0  0  0  0  0  0  0  0  0  0
   32.1051   29.9147   46.8083 N   0  0  1  0  0  0  0  0  0  0  0  0
  1  2  1  0  0  0  0
  3  1  1  6  0  0  0
  3  4  1  0  0  0  0
  3  5  1  0  0  0  0
  5  6  1  1  0  0  0
  5  7  1  0  0  0  0
  7  8  1  0  0  0  0
  8  4  1  1  0  0  0
  8 19  1  0  0  0  0
  9 15  1  0  0  0  0
  9 10  1  0  0  0  0
 10 11  1  1  0  0  0
 10 12  1  0  0  0  0
 13 12  1  1  0  0  0
 13 14  1  0  0  0  0
 13 19  1  0  0  0  0
 14 15  1  1  0  0  0
 14 17  1  0  0  0  0
 15 16  2  0  0  0  0
 17 18  1  0  0  0  0
 19 18  1  1  0  0  0
M  END
>  <CHROM.1>
-62.98507729,-112.26658462,32.01519195,29.92424961,47.06674789,-0.66053350
0.28559705,-0.48625254

>  <Name>
ligand

>  <RI>
0

>  <Rbt.Current_Directory>
/home/itssahil/PROJECTS/Mol_Feturizer/New_Systems/rnas/3SKL

>  <Rbt.Executable>
rbdock ($Id: //depot/dev/client3/rdock/2013.1/src/exe/rbdock.cxx#4 $)

>  <Rbt.Library>
libRbt.so (2013.1, Build901 2013/11/27)

>  <Rbt.Parameter_File>
/export/apps/rDock/src/rDock_2013.1_src/data/scripts/dock_solv.prm

>  <Rbt.Receptor>
prm/blind_docking_100.prm

>  <SCORE>
-9.97122

>  <SCORE.INTER>
-9.49582

>  <SCORE.INTER.CONST>
1

>  <SCORE.INTER.POLAR>
0

>  <SCORE.INTER.ROT>
2

>  <SCORE.INTER.SOLV>
11.7691

>  <SCORE.INTER.VDW>
-15.1869

>  <SCORE.INTER.norm>
-0.49978

>  <SCORE.INTRA>
-0.475403

>  <SCORE.INTRA.DIHEDRAL>
-0.276302

>  <SCORE.INTRA.DIHEDRAL.0>
1.50031

>  <SCORE.INTRA.POLAR>
0

>  <SCORE.INTRA.POLAR.0>
0

>  <SCORE.INTRA.REPUL>
0

>  <SCORE.INTRA.REPUL.0>
0

>  <SCORE.INTRA.SOLV>
0.0263846

>  <SCORE.INTRA.SOLV.lig_0>
-37.9941

>  <SCORE.INTRA.VDW>
-0.350444

>  <SCORE.INTRA.VDW.0>
-0.964461

>  <SCORE.INTRA.norm>
-0.0250212

>  <SCORE.RESTR>
0

>  <SCORE.RESTR.CAVITY>
0

>  <SCORE.RESTR.norm>
0

>  <SCORE.SYSTEM>
0

>  <SCORE.SYSTEM.CONST>
0

>  <SCORE.SYSTEM.DIHEDRAL>
0

>  <SCORE.SYSTEM.SOLV>
0

>  <SCORE.SYSTEM.norm>
0

>  <SCORE.heavy>
19

>  <SCORE.norm>
-0.524801

>  <RMSD>
17.712

$$$$
ligand
 OpenBabel11021811483D
libRbt.so/2013.1/901 2013/11/27
 19 21  0  0  0  0  0  0  0  0999 V2000
   31.5377   31.2703   44.4914 C   0  0  0  0  0  0  0  0  0  0  0  0
   31.7839   30.1780   43.5888 O   0  0  0  0  0  0  0  0  0  0  0  0
   30.4108   30.9364   45.4746 C   0  0  1  0  0  0  0  0  0  0  0  0
   30.7549   29.7976   46.2634 O   0  0  0  0  0  0  0  0  0  0  0  0
   30.1448   32.0775   46.4379 C   0  0  1  0  0  0  0  0  0  0  0  0
   28.7321   32.2619   46.5386 O   0  0  0  0  0  0  0  0  0  0  0  0
   30.6790   31.6406   47.7832 C   0  0  0  0  0  0  0  0  0  0  0  0
   30.8856   30.1427   47.6516 C   0  0  2  0  0  0  0  0  0  0  0  0
   35.7002   29.0296   46.1225 N   0  0  0  0  0  0  0  0  0  0  0  0
   34.6075   29.3986   45.4116 C   0  0  2  0  0  0  0  0  0  0  0  0
   34.6856   29.5349   44.0710 N   0  0  0  0  0  0  0  0  0  0  0  0
   33.4222   29.6400   46.0106 N   0  0  0  0  0  0  0  0  0  0  0  0
   33.2708   29.5243   47.3455 C   0  0  1  0  0  0  0  0  0  0  0  0
   34.3362   29.1488   48.1309 C   0  0  1  0  0  0  0  0  0  0  0  0
   35.6346   28.8880   47.4618 C   0  0  0  0  0  0  0  0  0  0  0  0
   36.6392   28.5408   48.1211 O   0  0  0  0  0  0  0  0  0  0  0  0
   33.9119   29.1142   49.4057 N   0  0  0  0  0  0  0  0  0  0  0  0
   32.6046   29.4631   49.3977 C   0  0  0  0  0  0  0  0  0  0  0  0
   32.2251   29.7125   48.1341 N   0  0  1  0  0  0  0  0  0  0  0  0
  1  2  1  0  0  0  0
  3  1  1  6  0  0  0
  3  4  1  0  0  0  0
  3  5  1  0  0  0  0
  5  6  1  1  0  0  0
  5  7  1  0  0  0  0
  7  8  1  0  0  0  0
  8  4  1  6  0  0  0
  8 19  1  0  0  0  0
  9 15  1  0  0  0  0
  9 10  1  0  0  0  0
 10 11  1  1  0  0  0
 10 12  1  0  0  0  0
 13 12  1  1  0  0  0
 13 14  1  0  0  0  0
 13 19  1  0  0  0  0
 14 15  1  1  0  0  0
 14 17  1  0  0  0  0
 15 16  2  0  0  0  0
 17 18  1  0  0  0  0
 19 18  1  1  0  0  0
M  END
>  <CHROM.1>
60.63351703,23.11087216,32.68550185,30.03763113,46.68109178,-2.88192490,-0.41648868
1.67053620

>  <Name>
ligand

>  <RI>
0

>  <Rbt.Current_Directory>
/home/itssahil/PROJECTS/Mol_Feturizer/New_Systems/rnas/3SKL

>  <Rbt.Executable>
rbdock ($Id: //depot/dev/client3/rdock/2013.1/src/exe/rbdock.cxx#4 $)

>  <Rbt.Library>
libRbt.so (2013.1, Build901 2013/11/27)

>  <Rbt.Parameter_File>
/export/apps/rDock/src/rDock_2013.1_src/data/scripts/dock_solv.prm

>  <Rbt.Receptor>
prm/blind_docking_80.prm

>  <SCORE>
-12.8278

>  <SCORE.INTER>
-13.2435

>  <SCORE.INTER.CONST>
1

>  <SCORE.INTER.POLAR>
0

>  <SCORE.INTER.ROT>
2

>  <SCORE.INTER.SOLV>
6.65126

>  <SCORE.INTER.VDW>
-15.9794

>  <SCORE.INTER.norm>
-0.697026

>  <SCORE.INTRA>
0.415697

>  <SCORE.INTRA.DIHEDRAL>
-0.319707

>  <SCORE.INTRA.DIHEDRAL.0>
1.50031

>  <SCORE.INTRA.POLAR>
0

>  <SCORE.INTRA.POLAR.0>
0

>  <SCORE.INTRA.REPUL>
0

>  <SCORE.INTRA.REPUL.0>
0

>  <SCORE.INTRA.SOLV>
2.45683

>  <SCORE.INTRA.SOLV.lig_0>
-37.9941

>  <SCORE.INTRA.VDW>
-0.652866

>  <SCORE.INTRA.VDW.0>
-0.964461

>  <SCORE.INTRA.norm>
0.0218788

>  <SCORE.RESTR>
0

>  <SCORE.RESTR.CAVITY>
0

>  <SCORE.RESTR.norm>
0

>  <SCORE.SYSTEM>
0

>  <SCORE.SYSTEM.CONST>
0

>  <SCORE.SYSTEM.DIHEDRAL>
0

>  <SCORE.SYSTEM.SOLV>
0

>  <SCORE.SYSTEM.norm>
0

>  <SCORE.heavy>
19

>  <SCORE.norm>
-0.675147

>  <RMSD>
17.907

$$$$
