@<TRIPOS>MOLECULE
3SKL_rdock.pdb
 1358 1517 0 0 0
SMALL
GASTEIGER

@<TRIPOS>ATOM
      1  P          1.3700   31.0910   39.8360 P.3    23  G23         0.1280
      2  C5'       -0.4130   30.0800   41.4940 C.3    23  G23         0.1795
      3  O5'        0.2580   30.0110   40.2370 O.3    23  G23        -0.3259
      4  C4'       -1.4080   28.9400   41.6490 C.3    23  G23         0.1772
      5  O4'       -2.3200   28.9170   40.5240 O.3    23  G23        -0.3307
      6  C3'       -0.8140   27.5410   41.6630 C.3    23  G23         0.1860
      7  O3'       -0.3360   27.2140   42.9530 O.3    23  G23        -0.3112
      8  C2'       -2.0190   26.6950   41.2810 C.3    23  G23         0.2309
      9  O2'       -2.8640   26.4060   42.3740 O.3    23  G23        -0.2156
     10  C1'       -2.7370   27.5870   40.2700 C.3    23  G23         0.2408
     11  N1        -3.3090   24.1250   36.5870 N.ar   23  G23        -0.1709
     12  C2        -3.8260   24.1390   37.8600 C.ar   23  G23         0.2606
     13  N2        -4.5980   23.0990   38.2000 N.pl3  23  G23        -0.0859
     14  N3        -3.6060   25.1090   38.7360 N.ar   23  G23        -0.1918
     15  C4        -2.8110   26.0840   38.2300 C.ar   23  G23         0.1723
     16  C5        -2.2400   26.1570   36.9770 C.ar   23  G23         0.1748
     17  C6        -2.4890   25.1120   36.0480 C.ar   23  G23         0.3023
     18  O6        -2.0780   24.9940   34.8860 O.2    23  G23        -0.2633
     19  N7        -1.4810   27.3140   36.8520 N.ar   23  G23        -0.2173
     20  C8        -1.6070   27.9080   38.0080 C.ar   23  G23         0.1817
     21  N9        -2.4070   27.2210   38.8930 N.ar   23  G23        -0.2693
     22  OP1        2.1460   31.4720   41.0400 O.3    23  G23        -0.1955
     23  OP2        2.0690   30.5860   38.6400 O.co2  23  G23        -0.7863
     24  P          1.0890   26.5090   43.1330 P.3    24  C24         0.2141
     25  C5'       -0.3080   24.3280   43.5410 C.3    24  C24         0.1812
     26  O5'        0.7560   24.9690   42.8520 O.3    24  C24        -0.3114
     27  C4'       -0.7980   23.1250   42.7610 C.3    24  C24         0.1773
     28  O4'       -1.3930   23.5510   41.5130 O.3    24  C24        -0.3307
     29  C3'        0.2890   22.1540   42.3420 C.3    24  C24         0.1860
     30  O3'        0.5880   21.2760   43.4190 O.3    24  C24        -0.3112
     31  C2'       -0.3610   21.4390   41.1590 C.3    24  C24         0.2309
     32  O2'       -1.1910   20.3590   41.5420 O.3    24  C24        -0.2156
     33  C1'       -1.2030   22.5480   40.5280 C.3    24  C24         0.2420
     34  N1        -0.5720   23.1560   39.3000 N.ar   24  C24        -0.2535
     35  C2        -0.6930   22.5240   38.0450 C.ar   24  C24         0.3532
     36  O2        -1.3190   21.4620   37.9420 O.2    24  C24        -0.2443
     37  N3        -0.1080   23.1020   36.9620 N.ar   24  C24        -0.1739
     38  C4         0.5690   24.2480   37.0890 C.ar   24  C24         0.1759
     39  N4         1.1220   24.7800   35.9950 N.pl3  24  C24        -0.1070
     40  C5         0.7030   24.9050   38.3490 C.ar   24  C24         0.0566
     41  C6         0.1240   24.3310   39.4110 C.ar   24  C24         0.0850
     42  OP1        1.5010   26.6820   44.5460 O.3    24  C24        -0.4373
     43  OP2        1.9960   26.9720   42.0560 O.co2  24  C24        -0.5172
     44  P          1.9960   20.5180   43.4740 P.3    25  U25         0.2141
     45  C5'        2.5810   18.9560   41.4990 C.3    25  U25         0.1812
     46  O5'        1.6990   19.2590   42.5430 O.3    25  U25        -0.3114
     47  C4'        2.1390   17.7130   40.7590 C.3    25  U25         0.1773
     48  O4'        1.0840   18.0390   39.8160 O.3    25  U25        -0.3307
     49  C3'        3.2580   17.1050   39.9310 C.3    25  U25         0.1860
     50  O3'        3.9010   16.0840   40.6750 O.3    25  U25        -0.3112
     51  C2'        2.5580   16.6340   38.6580 C.3    25  U25         0.2309
     52  O2'        1.9550   15.3590   38.7660 O.3    25  U25        -0.2156
     53  C1'        1.5070   17.7310   38.5000 C.3    25  U25         0.2420
     54  N1         2.0350   18.9890   37.8470 N.ar   25  U25        -0.2534
     55  C2         2.4330   18.9610   36.5210 C.ar   25  U25         0.3546
     56  O2         2.3830   17.9650   35.8190 O.2    25  U25        -0.2443
     57  N3         2.9020   20.1590   36.0350 N.ar   25  U25        -0.1530
     58  C4         3.0090   21.3580   36.7190 C.ar   25  U25         0.2846
     59  O4         3.4470   22.3470   36.1470 O.2    25  U25        -0.2650
     60  C5         2.5790   21.3130   38.0910 C.ar   25  U25         0.0814
     61  C6         2.1160   20.1600   38.5850 C.ar   25  U25         0.0870
     62  OP1        2.2140   20.0400   44.8600 O.3    25  U25        -0.4373
     63  OP2        3.0250   21.3710   42.8250 O.co2  25  U25        -0.5172
     64  P          5.4520   16.2590   41.0370 P.3    26  U26         0.2141
     65  C5'        5.7340   14.5260   39.0820 C.3    26  U26         0.1812
     66  O5'        6.1300   15.7700   39.6640 O.3    26  U26        -0.3114
     67  C4'        5.8680   14.5420   37.5720 C.3    26  U26         0.1773
     68  O4'        5.0100   15.5570   36.9910 O.3    26  U26        -0.3307
     69  C3'        7.2520   14.8950   37.0590 C.3    26  U26         0.1860
     70  O3'        8.1140   13.7780   37.0990 O.3    26  U26        -0.3112
     71  C2'        6.9480   15.3420   35.6350 C.3    26  U26         0.2309
     72  O2'        6.7750   14.2650   34.7320 O.3    26  U26        -0.2156
     73  C1'        5.6410   16.1090   35.8460 C.3    26  U26         0.2420
     74  N1         5.8490   17.5880   36.0420 N.ar   26  U26        -0.2534
     75  C2         6.1730   18.3810   34.9490 C.ar   26  U26         0.3546
     76  O2         6.3020   17.9460   33.8160 O.2    26  U26        -0.2443
     77  N3         6.3420   19.7200   35.2290 N.ar   26  U26        -0.1530
     78  C4         6.2250   20.3350   36.4670 C.ar   26  U26         0.2846
     79  O4         6.4010   21.5450   36.5650 O.2    26  U26        -0.2650
     80  C5         5.8910   19.4490   37.5560 C.ar   26  U26         0.0814
     81  C6         5.7200   18.1400   37.3070 C.ar   26  U26         0.0870
     82  OP1        5.7820   15.3150   42.1340 O.3    26  U26        -0.4373
     83  OP2        5.7470   17.7020   41.2170 O.co2  26  U26        -0.5172
     84  P          9.6670   14.0170   37.4000 P.3    27  A27         0.2141
     85  C5'       10.3380   13.7900   34.8640 C.3    27  A27         0.1812
     86  O5'       10.2000   14.6200   36.0130 O.3    27  A27        -0.3114
     87  C4'       10.6300   14.6240   33.6370 C.3    27  A27         0.1773
     88  O4'        9.5650   15.5820   33.4420 O.3    27  A27        -0.3307
     89  C3'       11.8760   15.4830   33.7330 C.3    27  A27         0.1860
     90  O3'       13.0300   14.7220   33.4300 O.3    27  A27        -0.3112
     91  C2'       11.5860   16.5540   32.6870 C.3    27  A27         0.2309
     92  O2'       11.8300   16.1480   31.3480 O.3    27  A27        -0.2156
     93  C1'       10.0990   16.7930   32.9320 C.3    27  A27         0.2408
     94  N1        10.0710   21.8790   33.7810 N.ar   27  A27        -0.2040
     95  C2        10.3530   21.1610   32.6840 C.ar   27  A27         0.2016
     96  N3        10.3380   19.8360   32.5330 N.ar   27  A27        -0.2048
     97  C4         9.9900   19.2190   33.6790 C.ar   27  A27         0.1692
     98  C5         9.6770   19.8220   34.8850 C.ar   27  A27         0.1518
     99  C6         9.7260   21.2300   34.9200 C.ar   27  A27         0.1919
    100  N6         9.4510   21.9420   36.0190 N.pl3  27  A27        -0.1054
    101  N7         9.3690   18.8760   35.8480 N.ar   27  A27        -0.2193
    102  C8         9.4980   17.7340   35.2150 C.ar   27  A27         0.1816
    103  N9         9.8650   17.8650   33.9000 N.ar   27  A27        -0.2693
    104  OP1       10.2740   12.6880   37.6500 O.2    27  A27        -0.5172
    105  OP2        9.7930   15.0820   38.4240 O.co2  27  A27        -0.4373
    106  P         14.4020   14.9820   34.2210 P.3    28  U28         0.2141
    107  C5'       15.1840   16.3550   32.0880 C.3    28  U28         0.1812
    108  O5'       14.9560   16.3150   33.5130 O.3    28  U28        -0.3114
    109  C4'       15.3270   17.7820   31.5690 C.3    28  U28         0.1773
    110  O4'       14.0920   18.5150   31.7690 O.3    28  U28        -0.3307
    111  C3'       16.3660   18.6400   32.2740 C.3    28  U28         0.1860
    112  O3'       17.6570   18.3920   31.7710 O.3    28  U28        -0.3112
    113  C2'       15.8740   20.0450   31.9490 C.3    28  U28         0.2309
    114  O2'       16.1130   20.4290   30.6090 O.3    28  U28        -0.2156
    115  C1'       14.3790   19.8580   32.1460 C.3    28  U28         0.2420
    116  N1        13.8660   20.1570   33.5450 N.ar   28  U28        -0.2534
    117  C2        13.6660   21.4730   33.9260 C.ar   28  U28         0.3546
    118  O2        13.8940   22.4230   33.1980 O.2    28  U28        -0.2443
    119  N3        13.1840   21.6470   35.2050 N.ar   28  U28        -0.1530
    120  C4        12.8790   20.6570   36.1300 C.ar   28  U28         0.2846
    121  O4        12.4520   20.9630   37.2440 O.2    28  U28        -0.2650
    122  C5        13.1130   19.3110   35.6620 C.ar   28  U28         0.0814
    123  C6        13.5830   19.1200   34.4200 C.ar   28  U28         0.0870
    124  OP1       15.3190   13.8580   33.9070 O.2    28  U28        -0.5172
    125  OP2       14.0820   15.2940   35.6350 O.co2  28  U28        -0.4373
    126  P         18.9030   18.4390   32.7690 P.3    29  A29         0.2141
    127  C5'       19.9570   20.7580   32.0940 C.3    29  A29         0.1812
    128  O5'       19.1150   20.0140   32.9880 O.3    29  A29        -0.3114
    129  C4'       19.9950   22.2450   32.4230 C.3    29  A29         0.1773
    130  O4'       18.6360   22.7400   32.5270 O.3    29  A29        -0.3307
    131  C3'       20.6490   22.6320   33.7430 C.3    29  A29         0.1860
    132  O3'       22.0620   22.8000   33.6350 O.3    29  A29        -0.3112
    133  C2'       19.9820   23.9690   34.0180 C.3    29  A29         0.2309
    134  O2'       20.5830   25.0350   33.3200 O.3    29  A29        -0.2156
    135  C1'       18.5640   23.7420   33.5180 C.3    29  A29         0.2408
    136  N1        15.4290   25.1560   37.3540 N.ar   29  A29        -0.2040
    137  C2        16.1390   25.8740   36.4640 C.ar   29  A29         0.2016
    138  N3        16.9360   25.4490   35.4880 N.ar   29  A29        -0.2048
    139  C4        16.9730   24.1040   35.4630 C.ar   29  A29         0.1692
    140  C5        16.2930   23.2330   36.2980 C.ar   29  A29         0.1518
    141  C6        15.4810   23.8100   37.2990 C.ar   29  A29         0.1919
    142  N6        14.7740   23.1010   38.1830 N.pl3  29  A29        -0.1054
    143  N7        16.5760   21.9160   35.9690 N.ar   29  A29        -0.2193
    144  C8        17.4010   22.0130   34.9590 C.ar   29  A29         0.1816
    145  N9        17.6800   23.3010   34.5950 N.ar   29  A29        -0.2693
    146  OP1       20.0660   17.8810   32.0380 O.2    29  A29        -0.5172
    147  OP2       18.5010   17.8510   34.0690 O.co2  29  A29        -0.4373
    148  P         23.0680   21.5710   33.8550 P.3    30  C30         0.2141
    149  C5'       24.2150   21.0090   36.1450 C.3    30  C30         0.1812
    150  O5'       23.8790   21.9870   35.1620 O.3    30  C30        -0.3114
    151  C4'       23.6310   21.3710   37.5060 C.3    30  C30         0.1773
    152  O4'       23.9050   22.7630   37.8250 O.3    30  C30        -0.3307
    153  C3'       22.1170   21.2410   37.6450 C.3    30  C30         0.1860
    154  O3'       21.7740   21.0690   39.0310 O.3    30  C30        -0.3112
    155  C2'       21.7040   22.6180   37.1620 C.3    30  C30         0.2309
    156  O2'       20.3600   22.9380   37.4250 O.3    30  C30        -0.2156
    157  C1'       22.6710   23.4300   38.0080 C.3    30  C30         0.2420
    158  N1        22.8290   24.8710   37.6340 N.ar   30  C30        -0.2535
    159  C2        22.6600   25.8730   38.6110 C.ar   30  C30         0.3532
    160  O2        22.3760   25.5580   39.7790 O.2    30  C30        -0.2443
    161  N3        22.8130   27.1750   38.2430 N.ar   30  C30        -0.1739
    162  C4        23.1210   27.4900   36.9800 C.ar   30  C30         0.1759
    163  N4        23.2650   28.7830   36.6660 N.pl3  30  C30        -0.1070
    164  C5        23.3000   26.4860   35.9840 C.ar   30  C30         0.0566
    165  C6        23.1520   25.2090   36.3490 C.ar   30  C30         0.0850
    166  OP1       24.0260   21.5740   32.7160 O.2    30  C30        -0.5172
    167  OP2       22.2660   20.3580   34.1420 O.co2  30  C30        -0.4373
    168  P         22.0970   19.7200   39.8390 P.3    31  A31         0.2141
    169  C5'       23.9450   21.0150   41.1510 C.3    31  A31         0.1812
    170  O5'       23.5970   19.9070   40.3350 O.3    31  A31        -0.3114
    171  C4'       25.4070   20.9180   41.5300 C.3    31  A31         0.1773
    172  O4'       26.1340   20.5630   40.3440 O.3    31  A31        -0.3307
    173  C3'       26.0460   22.1790   42.0810 C.3    31  A31         0.1860
    174  O3'       26.1650   22.0320   43.4930 O.3    31  A31        -0.3112
    175  C2'       27.4430   22.1920   41.4730 C.3    31  A31         0.2309
    176  O2'       28.4130   21.6980   42.3860 O.3    31  A31        -0.2156
    177  C1'       27.3440   21.2620   40.2630 C.3    31  A31         0.2408
    178  N1        26.8890   25.4660   37.2130 N.ar   31  A31        -0.2040
    179  C2        26.7550   25.3220   38.5410 C.ar   31  A31         0.2016
    180  N3        26.8810   24.2210   39.2810 N.ar   31  A31        -0.2048
    181  C4        27.1750   23.1610   38.5190 C.ar   31  A31         0.1692
    182  C5        27.3390   23.1570   37.1400 C.ar   31  A31         0.1518
    183  C6        27.1860   24.3800   36.4680 C.ar   31  A31         0.1919
    184  N6        27.3180   24.5090   35.1450 N.pl3  31  A31        -0.1054
    185  N7        27.6400   21.8940   36.6800 N.ar   31  A31        -0.2193
    186  C8        27.6580   21.1650   37.7700 C.ar   31  A31         0.1816
    187  N9        27.3950   21.8590   38.9210 N.ar   31  A31        -0.2693
    188  OP1       22.0660   18.5960   38.8760 O.2    31  A31        -0.5172
    189  OP2       21.2200   19.6990   41.0310 O.co2  31  A31        -0.4373
    190  P         25.1690   22.7370   44.5210 P.3    32  G32         0.2141
    191  C5'       27.0170   24.4980   45.0770 C.3    32  G32         0.1812
    192  O5'       25.6970   24.2350   44.6620 O.3    32  G32        -0.3114
    193  C4'       27.7540   25.2930   44.0140 C.3    32  G32         0.1773
    194  O4'       27.1680   26.6090   43.8630 O.3    32  G32        -0.3307
    195  C3'       29.2160   25.5410   44.3520 C.3    32  G32         0.1860
    196  O3'       30.0140   25.1820   43.2690 O.3    32  G32        -0.3112
    197  C2'       29.2910   27.0310   44.6640 C.3    32  G32         0.2309
    198  O2'       30.5460   27.6130   44.3720 O.3    32  G32        -0.2156
    199  C1'       28.2080   27.5520   43.7460 C.3    32  G32         0.2408
    200  N1        27.1560   32.3040   42.3200 N.ar   32  G32        -0.1709
    201  C2        27.6680   31.2600   41.5780 C.ar   32  G32         0.2606
    202  N2        27.9320   31.5100   40.2900 N.pl3  32  G32        -0.0859
    203  N3        27.9060   30.0530   42.0600 N.ar   32  G32        -0.1918
    204  C4        27.5820   29.9630   43.3750 C.ar   32  G32         0.1723
    205  C5        27.0670   30.9350   44.2000 C.ar   32  G32         0.1748
    206  C6        26.8190   32.2210   43.6710 C.ar   32  G32         0.3023
    207  O6        26.3650   33.2080   44.2580 O.2    32  G32        -0.2633
    208  N7        26.8720   30.4400   45.4790 N.ar   32  G32        -0.2173
    209  C8        27.2610   29.2000   45.4080 C.ar   32  G32         0.1817
    210  N9        27.7050   28.8450   44.1620 N.ar   32  G32        -0.2693
    211  OP1       25.3890   22.0460   45.8040 O.3    32  G32        -0.4373
    212  OP2       23.8220   22.8160   43.9040 O.co2  32  G32        -0.5172
    213  P         31.0920   24.0430   43.5190 P.3    33  G33         0.2141
    214  C5'       31.6600   22.5150   41.4860 C.3    33  G33         0.1812
    215  O5'       31.6920   23.8170   42.0500 O.3    33  G33        -0.3114
    216  C4'       31.6170   22.5720   39.9790 C.3    33  G33         0.1773
    217  O4'       30.3340   23.0890   39.5550 O.3    33  G33        -0.3307
    218  C3'       32.6450   23.5030   39.3410 C.3    33  G33         0.1860
    219  O3'       33.9050   22.8810   39.2050 O.3    33  G33        -0.3112
    220  C2'       31.9990   23.7990   37.9990 C.3    33  G33         0.2309
    221  O2'       32.1730   22.7590   37.0620 O.3    33  G33        -0.2156
    222  C1'       30.5300   23.9080   38.4050 C.3    33  G33         0.2408
    223  N1        29.9780   28.7070   36.7180 N.ar   33  G33        -0.1709
    224  C2        30.4040   27.5960   36.0310 C.ar   33  G33         0.2606
    225  N2        30.7200   27.7770   34.7400 N.pl3  33  G33        -0.0859
    226  N3        30.5090   26.3860   36.5750 N.ar   33  G33        -0.1918
    227  C4        30.1470   26.3710   37.8830 C.ar   33  G33         0.1723
    228  C5        29.7130   27.4280   38.6510 C.ar   33  G33         0.1748
    229  C6        29.6080   28.7080   38.0580 C.ar   33  G33         0.3023
    230  O6        29.2390   29.7530   38.5880 O.2    33  G33        -0.2633
    231  N7        29.4480   27.0200   39.9520 N.ar   33  G33        -0.2173
    232  C8        29.7180   25.7460   39.9480 C.ar   33  G33         0.1817
    233  N9        30.1420   25.2790   38.7270 N.ar   33  G33        -0.2693
    234  OP1       30.3780   22.8070   43.9230 O.2    33  G33        -0.5172
    235  OP2       32.1520   24.6240   44.3870 O.co2  33  G33        -0.4373
    236  P         35.2150   23.6780   39.6540 P.3    34  G34         0.2141
    237  C5'       35.4840   24.1040   37.0370 C.3    34  G34         0.1812
    238  O5'       35.5240   24.6140   38.3820 O.3    34  G34        -0.3114
    239  C4'       35.6260   25.2010   35.9920 C.3    34  G34         0.1773
    240  O4'       34.3400   25.7930   35.6850 O.3    34  G34        -0.3307
    241  C3'       36.5110   26.3770   36.3710 C.3    34  G34         0.1860
    242  O3'       37.8560   26.0950   36.0800 O.3    34  G34        -0.3112
    243  C2'       35.9600   27.4910   35.4870 C.3    34  G34         0.2309
    244  O2'       36.3870   27.4390   34.1390 O.3    34  G34        -0.2156
    245  C1'       34.4710   27.2040   35.5650 C.3    34  G34         0.2408
    246  N1        33.0510   31.6750   37.6600 N.ar   34  G34        -0.1709
    247  C2        33.7110   31.4460   36.4780 C.ar   34  G34         0.2606
    248  N2        34.0230   32.5390   35.7730 N.pl3  34  G34        -0.0859
    249  N3        34.0330   30.2320   36.0250 N.ar   34  G34        -0.1918
    250  C4        33.6380   29.2410   36.8710 C.ar   34  G34         0.1723
    251  C5        32.9750   29.3740   38.0790 C.ar   34  G34         0.1748
    252  C6        32.6360   30.6790   38.5410 C.ar   34  G34         0.3023
    253  O6        32.0560   31.0040   39.5770 O.2    34  G34        -0.2633
    254  N7        32.7490   28.1300   38.6510 N.ar   34  G34        -0.2173
    255  C8        33.2620   27.2850   37.8070 C.ar   34  G34         0.1817
    256  N9        33.8180   27.8790   36.6950 N.ar   34  G34        -0.2693
    257  OP1       36.3150   22.7130   39.8450 O.2    34  G34        -0.5172
    258  OP2       34.8570   24.5650   40.7840 O.co2  34  G34        -0.4373
    259  P         39.0090   26.6400   37.0380 P.3    35  U35         0.2141
    260  C5'       39.3430   28.6570   35.3770 C.3    35  U35         0.1812
    261  O5'       39.0150   28.1970   36.6830 O.3    35  U35        -0.3114
    262  C4'       39.3260   30.1740   35.3090 C.3    35  U35         0.1773
    263  O4'       37.9560   30.6400   35.3550 O.3    35  U35        -0.3307
    264  C3'       39.9950   30.8980   36.4640 C.3    35  U35         0.1860
    265  O3'       41.3840   30.9780   36.2810 O.3    35  U35        -0.3112
    266  C2'       39.3350   32.2630   36.3490 C.3    35  U35         0.2309
    267  O2'       39.8420   33.0340   35.2740 O.3    35  U35        -0.2156
    268  C1'       37.8930   31.8550   36.0790 C.3    35  U35         0.2420
    269  N1        37.0800   31.6700   37.3340 N.ar   35  U35        -0.2534
    270  C2        36.5070   32.7760   37.9310 C.ar   35  U35         0.3546
    271  O2        36.6210   33.9020   37.4910 O.2    35  U35        -0.2443
    272  N3        35.7850   32.5160   39.0720 N.ar   35  U35        -0.1530
    273  C4        35.5830   31.2790   39.6640 C.ar   35  U35         0.2846
    274  O4        34.9120   31.1910   40.6800 O.2    35  U35        -0.2650
    275  C5        36.2130   30.1730   38.9880 C.ar   35  U35         0.0814
    276  C6        36.9190   30.4060   37.8750 C.ar   35  U35         0.0870
    277  OP1       40.2860   26.0160   36.6210 O.2    35  U35        -0.5172
    278  OP2       38.5790   26.5270   38.4520 O.co2  35  U35        -0.4373
    279  P         42.3450   31.1200   37.5540 P.3    36  A36         0.2141
    280  C5'       42.4610   33.7330   37.3470 C.3    36  A36         0.1812
    281  O5'       42.0430   32.5970   38.0840 O.3    36  A36        -0.3114
    282  C4'       41.9190   35.0040   37.9660 C.3    36  A36         0.1773
    283  O4'       40.4680   35.0150   37.9150 O.3    36  A36        -0.3307
    284  C3'       42.2430   35.2190   39.4380 C.3    36  A36         0.1860
    285  O3'       43.5490   35.7290   39.6040 O.3    36  A36        -0.3112
    286  C2'       41.1910   36.2560   39.7900 C.3    36  A36         0.2309
    287  O2'       41.5000   37.5400   39.2910 O.3    36  A36        -0.2156
    288  C1'       39.9810   35.6870   39.0630 C.3    36  A36         0.2408
    289  N1        36.6520   35.1790   42.9430 N.ar   36  A36        -0.2040
    290  C2        37.1880   36.2550   42.3560 C.ar   36  A36         0.2016
    291  N3        38.0590   36.3110   41.3470 N.ar   36  A36        -0.2048
    292  C4        38.3850   35.0780   40.9210 C.ar   36  A36         0.1692
    293  C5        37.9190   33.8780   41.4180 C.ar   36  A36         0.1518
    294  C6        37.0020   33.9530   42.4950 C.ar   36  A36         0.1919
    295  N6        36.4650   32.8810   43.0820 N.pl3  36  A36        -0.1054
    296  N7        38.4740   32.8130   40.7230 N.ar   36  A36        -0.2193
    297  C8        39.2520   33.3840   39.8400 C.ar   36  A36         0.1816
    298  N9        39.2380   34.7490   39.8970 N.ar   36  A36        -0.2693
    299  OP1       43.7500   31.0670   37.0820 O.2    36  A36        -0.5172
    300  OP2       41.8840   30.1600   38.5830 O.co2  36  A36        -0.4373
    301  P         44.3140   35.5320   40.9960 P.3    37  G37         0.2141
    302  C5'       43.8090   37.4290   42.7620 C.3    37  G37         0.1812
    303  O5'       43.3530   36.2720   42.0490 O.3    37  G37        -0.3114
    304  C4'       42.6530   38.2590   43.3010 C.3    37  G37         0.1773
    305  O4'       41.3930   37.7270   42.8240 O.3    37  G37        -0.3307
    306  C3'       42.5000   38.2340   44.8150 C.3    37  G37         0.1860
    307  O3'       43.4010   39.1380   45.4380 O.3    37  G37        -0.3112
    308  C2'       41.0310   38.6210   44.9910 C.3    37  G37         0.2309
    309  O2'       40.7580   40.0050   44.8450 O.3    37  G37        -0.2156
    310  C1'       40.4040   37.8410   43.8410 C.3    37  G37         0.2408
    311  N1        36.9720   35.2370   46.5610 N.ar   37  G37        -0.1709
    312  C2        37.1100   36.5940   46.3920 C.ar   37  G37         0.2606
    313  N2        36.2290   37.3760   47.0200 N.pl3  37  G37        -0.0859
    314  N3        38.0550   37.1540   45.6520 N.ar   37  G37        -0.1918
    315  C4        38.8750   36.2380   45.0760 C.ar   37  G37         0.1723
    316  C5        38.8190   34.8660   45.1730 C.ar   37  G37         0.1748
    317  C6        37.8000   34.2750   45.9720 C.ar   37  G37         0.3023
    318  O6        37.5970   33.0700   46.1880 O.2    37  G37        -0.2633
    319  N7        39.8350   34.2830   44.4240 N.ar   37  G37        -0.2173
    320  C8        40.4690   35.2930   43.8990 C.ar   37  G37         0.1817
    321  N9        39.9410   36.5130   44.2480 N.ar   37  G37        -0.2693
    322  OP1       45.6040   36.2650   40.9080 O.2    37  G37        -0.5172
    323  OP2       44.3140   34.0830   41.3020 O.co2  37  G37        -0.4373
    324  P         44.1560   38.7080   46.7860 P.3    38  C38         0.2141
    325  C5'       42.4660   40.1010   48.2180 C.3    38  C38         0.1812
    326  O5'       43.0260   38.8470   47.9030 O.3    38  C38        -0.3114
    327  C4'       41.2810   39.8860   49.1240 C.3    38  C38         0.1773
    328  O4'       40.2640   39.1570   48.3960 O.3    38  C38        -0.3307
    329  C3'       41.5510   38.9840   50.3100 C.3    38  C38         0.1860
    330  O3'       42.1710   39.6730   51.3580 O.3    38  C38        -0.3112
    331  C2'       40.1380   38.5830   50.6670 C.3    38  C38         0.2309
    332  O2'       39.4360   39.6550   51.2440 O.3    38  C38        -0.2156
    333  C1'       39.5810   38.2860   49.2810 C.3    38  C38         0.2420
    334  N1        39.7590   36.8480   48.8500 N.ar   38  C38        -0.2535
    335  C2        38.8500   35.8670   49.2900 C.ar   38  C38         0.3532
    336  O2        37.9050   36.1900   50.0300 O.2    38  C38        -0.2443
    337  N3        39.0320   34.5780   48.8910 N.ar   38  C38        -0.1739
    338  C4        40.0600   34.2510   48.1030 C.ar   38  C38         0.1759
    339  N4        40.1900   32.9710   47.7320 N.pl3  38  C38        -0.1070
    340  C5        40.9930   35.2300   47.6480 C.ar   38  C38         0.0566
    341  C6        40.8060   36.4960   48.0430 C.ar   38  C38         0.0850
    342  OP1       45.2280   39.7040   47.0300 O.3    38  C38        -0.4373
    343  OP2       44.4790   37.2660   46.7270 O.co2  38  C38        -0.5172
    344  P         43.2650   38.9060   52.2330 P.3    39  A39         0.2141
    345  C5'       41.5980   38.5370   54.2030 C.3    39  A39         0.1812
    346  O5'       42.3590   37.9700   53.1550 O.3    39  A39        -0.3114
    347  C4'       40.5280   37.5720   54.6570 C.3    39  A39         0.1773
    348  O4'       39.8740   37.0140   53.4960 O.3    39  A39        -0.3307
    349  C3'       41.0550   36.3700   55.4160 C.3    39  A39         0.1860
    350  O3'       41.2050   36.7010   56.7900 O.3    39  A39        -0.3112
    351  C2'       39.9480   35.3460   55.1740 C.3    39  A39         0.2309
    352  O2'       38.8380   35.5020   56.0330 O.3    39  A39        -0.2156
    353  C1'       39.5280   35.6660   53.7430 C.3    39  A39         0.2408
    354  N1        39.9140   30.9380   51.7710 N.ar   39  A39        -0.2040
    355  C2        39.1500   31.4380   52.7540 C.ar   39  A39         0.2016
    356  N3        39.0900   32.6870   53.2200 N.ar   39  A39        -0.2048
    357  C4        39.9590   33.4770   52.5600 C.ar   39  A39         0.1692
    358  C5        40.8110   33.1060   51.5300 C.ar   39  A39         0.1518
    359  C6        40.7700   31.7590   51.1300 C.ar   39  A39         0.1919
    360  N6        41.5370   31.2650   50.1590 N.pl3  39  A39        -0.1054
    361  N7        41.5560   34.1830   51.0920 N.ar   39  A39        -0.2193
    362  C8        41.1490   35.1670   51.8570 C.ar   39  A39         0.1816
    363  N9        40.1830   34.8150   52.7600 N.ar   39  A39        -0.2693
    364  OP1       43.9670   39.9030   53.0790 O.3    39  A39        -0.4373
    365  OP2       44.0520   38.0170   51.3390 O.co2  39  A39        -0.5172
    366  P         42.5720   36.3960   57.5720 P.3    40  U40         0.2141
    367  C5'       41.8870   34.1350   58.7070 C.3    40  U40         0.1812
    368  O5'       42.6070   34.7950   57.6540 O.3    40  U40        -0.3114
    369  C4'       42.4710   32.7750   59.0640 C.3    40  U40         0.1773
    370  O4'       42.3790   31.8910   57.9220 O.3    40  U40        -0.3307
    371  C3'       43.9260   32.7560   59.5050 C.3    40  U40         0.1860
    372  O3'       44.1040   31.7950   60.5590 O.3    40  U40        -0.3112
    373  C2'       44.6610   32.3700   58.2240 C.3    40  U40         0.2309
    374  O2'       45.8740   31.6880   58.4680 O.3    40  U40        -0.2156
    375  C1'       43.6600   31.4440   57.5390 C.3    40  U40         0.2420
    376  N1        43.7340   31.4590   56.0460 N.ar   40  U40        -0.2534
    377  C2        44.1450   30.3280   55.3530 C.ar   40  U40         0.3546
    378  O2        44.4700   29.2810   55.8810 O.2    40  U40        -0.2443
    379  N3        44.1720   30.4550   53.9870 N.ar   40  U40        -0.1530
    380  C4        43.8430   31.5760   53.2590 C.ar   40  U40         0.2846
    381  O4        43.9230   31.5440   52.0420 O.2    40  U40        -0.2650
    382  C5        43.4160   32.7110   54.0390 C.ar   40  U40         0.0814
    383  C6        43.3760   32.6120   55.3750 C.ar   40  U40         0.0870
    384  OP1       42.4070   36.9220   58.9500 O.3    40  U40        -0.4373
    385  OP2       43.7080   36.8530   56.7360 O.co2  40  U40        -0.5172
    386  P         43.6290   32.1120   62.0690 P.3    41  A41         0.2141
    387  C5'       41.9210   30.1190   62.3150 C.3    41  A41         0.1812
    388  O5'       42.1390   31.5190   62.1190 O.3    41  A41        -0.3114
    389  C4'       40.5550   29.6900   61.8040 C.3    41  A41         0.1773
    390  O4'       40.4400   29.9570   60.3830 O.3    41  A41        -0.3307
    391  C3'       40.2470   28.2100   61.9320 C.3    41  A41         0.1860
    392  O3'       39.7210   27.9500   63.2170 O.3    41  A41        -0.3112
    393  C2'       39.1960   28.0130   60.8450 C.3    41  A41         0.2309
    394  O2'       37.9120   28.4500   61.2260 O.3    41  A41        -0.2156
    395  C1'       39.7190   28.9180   59.7440 C.3    41  A41         0.2408
    396  N1        40.0290   25.4320   55.9680 N.ar   41  A41        -0.2040
    397  C2        38.9860   25.9320   56.6480 C.ar   41  A41         0.2016
    398  N3        38.9790   26.8470   57.6220 N.ar   41  A41        -0.2048
    399  C4        40.2200   27.2650   57.8950 C.ar   41  A41         0.1692
    400  C5        41.3860   26.8490   57.2930 C.ar   41  A41         0.1518
    401  C6        41.2670   25.8810   56.2710 C.ar   41  A41         0.1919
    402  N6        42.3120   25.3990   55.5920 N.pl3  41  A41        -0.1054
    403  N7        42.4720   27.5120   57.8290 N.ar   41  A41        -0.2193
    404  C8        41.9560   28.2960   58.7300 C.ar   41  A41         0.1816
    405  N9        40.5980   28.1980   58.8240 N.ar   41  A41        -0.2693
    406  OP1       43.5590   33.5810   62.2340 O.2    41  A41        -0.5172
    407  OP2       44.4750   31.3260   63.0010 O.co2  41  A41        -0.4373
    408  P         40.3700   26.8320   64.1510 P.3    42  A42         0.2141
    409  C5'       38.5180   25.1310   63.2750 C.3    42  A42         0.1812
    410  O5'       39.9050   25.4570   63.4630 O.3    42  A42        -0.3114
    411  C4'       38.2820   23.6350   63.0430 C.3    42  A42         0.1773
    412  O4'       38.4670   23.2740   61.6470 O.3    42  A42        -0.3307
    413  C3'       39.1560   22.6610   63.8260 C.3    42  A42         0.1860
    414  O3'       38.3930   21.5270   64.1810 O.3    42  A42        -0.3112
    415  C2'       40.1870   22.2420   62.7970 C.3    42  A42         0.2309
    416  O2'       40.7530   20.9850   63.1020 O.3    42  A42        -0.2156
    417  C1'       39.3150   22.1490   61.5540 C.3    42  A42         0.2408
    418  N1        41.7390   19.6360   57.7480 N.ar   42  A42        -0.2040
    419  C2        41.0060   19.1970   58.7850 C.ar   42  A42         0.2016
    420  N3        40.3950   19.9000   59.7400 N.ar   42  A42        -0.2048
    421  C4        40.5930   21.2160   59.5650 C.ar   42  A42         0.1692
    422  C5        41.3250   21.8150   58.5550 C.ar   42  A42         0.1518
    423  C6        41.9210   20.9640   57.6030 C.ar   42  A42         0.1919
    424  N6        42.6500   21.4070   56.5780 N.pl3  42  A42        -0.1054
    425  N7        41.3130   23.1880   58.6900 N.ar   42  A42        -0.2193
    426  C8        40.5950   23.3940   59.7660 C.ar   42  A42         0.1816
    427  N9        40.1140   22.2490   60.3370 N.ar   42  A42        -0.2693
    428  OP1       39.7280   26.9610   65.4780 O.3    42  A42        -0.4373
    429  OP2       41.8440   26.9180   64.0750 O.co2  42  A42        -0.5172
    430  P         37.6000   21.4560   65.5600 P.3    43  U43         0.2141
    431  C5'       34.9910   21.2160   65.3160 C.3    43  U43         0.1812
    432  O5'       36.1540   22.0160   65.1590 O.3    43  U43        -0.3114
    433  C4'       33.7400   22.0750   65.4490 C.3    43  U43         0.1773
    434  O4'       33.5780   22.5330   66.8140 O.3    43  U43        -0.3307
    435  C3'       33.6970   23.3360   64.5920 C.3    43  U43         0.1860
    436  O3'       32.3940   23.4520   64.0360 O.3    43  U43        -0.3112
    437  C2'       33.9730   24.4570   65.5880 C.3    43  U43         0.2309
    438  O2'       33.4310   25.6960   65.1640 O.3    43  U43        -0.2156
    439  C1'       33.2080   23.8960   66.7820 C.3    43  U43         0.2420
    440  N1        33.5020   24.5120   68.1200 N.ar   43  U43        -0.2534
    441  C2        32.5320   25.2920   68.7360 C.ar   43  U43         0.3546
    442  O2        31.4400   25.5290   68.2430 O.2    43  U43        -0.2443
    443  N3        32.8960   25.7980   69.9660 N.ar   43  U43        -0.1530
    444  C4        34.1040   25.6040   70.6290 C.ar   43  U43         0.2846
    445  O4        34.2910   26.1230   71.7290 O.2    43  U43        -0.2650
    446  C5        35.0580   24.7750   69.9250 C.ar   43  U43         0.0814
    447  C6        34.7270   24.2690   68.7270 C.ar   43  U43         0.0870
    448  OP1       38.2200   22.4110   66.5080 O.3    43  U43        -0.4373
    449  OP2       37.4890   20.0200   65.9070 O.co2  43  U43        -0.5172
    450  P         32.2330   23.7750   62.4840 P.3    44  G44         0.2141
    451  C5'       33.1480   25.8940   61.2690 C.3    44  G44         0.1812
    452  O5'       33.2890   24.9610   62.3060 O.3    44  G44        -0.3114
    453  C4'       34.4660   26.0840   60.5590 C.3    44  G44         0.1773
    454  O4'       35.4710   25.1830   61.0860 O.3    44  G44        -0.3307
    455  C3'       34.4380   25.7260   59.0910 C.3    44  G44         0.1860
    456  O3'       33.7920   26.7400   58.3690 O.3    44  G44        -0.3112
    457  C2'       35.9340   25.6550   58.8240 C.3    44  G44         0.2309
    458  O2'       36.5750   26.9140   58.8800 O.3    44  G44        -0.2156
    459  C1'       36.3600   24.8360   60.0360 C.3    44  G44         0.2408
    460  N1        38.1320   20.9120   57.3030 N.ar   44  G44        -0.1709
    461  C2        38.3910   22.2510   57.1700 C.ar   44  G44         0.2606
    462  N2        39.2320   22.5960   56.1900 N.pl3  44  G44        -0.0859
    463  N3        37.8660   23.1860   57.9450 N.ar   44  G44        -0.1918
    464  C4        37.0370   22.6680   58.8840 C.ar   44  G44         0.1723
    465  C5        36.7120   21.3450   59.0930 C.ar   44  G44         0.1748
    466  C6        37.2870   20.3620   58.2590 C.ar   44  G44         0.3023
    467  O6        37.1200   19.1420   58.2890 O.2    44  G44        -0.2633
    468  N7        35.8320   21.2150   60.1550 N.ar   44  G44        -0.2173
    469  C8        35.6440   22.4440   60.5600 C.ar   44  G44         0.1817
    470  N9        36.3380   23.3830   59.8320 N.ar   44  G44        -0.2693
    471  OP1       30.8550   24.2780   62.2560 O.3    44  G44        -0.4373
    472  OP2       32.7280   22.6020   61.7300 O.co2  44  G44        -0.5172
    473  P         32.5650   26.3690   57.4170 P.3    45  G45         0.2141
    474  C5'       34.3450   26.7750   55.5710 C.3    45  G45         0.1812
    475  O5'       33.3190   25.9340   56.0760 O.3    45  G45        -0.3114
    476  C4'       35.2950   26.0340   54.6590 C.3    45  G45         0.1773
    477  O4'       35.9360   24.9690   55.3880 O.3    45  G45        -0.3307
    478  C3'       34.6520   25.3350   53.4790 C.3    45  G45         0.1860
    479  O3'       34.4050   26.2570   52.4330 O.3    45  G45        -0.3112
    480  C2'       35.7280   24.3210   53.1070 C.3    45  G45         0.2309
    481  O2'       36.7280   24.8430   52.2590 O.3    45  G45        -0.2156
    482  C1'       36.3530   23.9880   54.4590 C.3    45  G45         0.2408
    483  N1        36.9960   18.9830   53.8600 N.ar   45  G45        -0.1709
    484  C2        37.5410   20.0280   53.1430 C.ar   45  G45         0.2606
    485  N2        38.3670   19.7100   52.1360 N.pl3  45  G45        -0.0859
    486  N3        37.2930   21.3040   53.4000 N.ar   45  G45        -0.1918
    487  C4        36.4390   21.4610   54.4440 C.ar   45  G45         0.1723
    488  C5        35.8410   20.4900   55.2140 C.ar   45  G45         0.1748
    489  C6        36.1160   19.1270   54.9380 C.ar   45  G45         0.3023
    490  O6        35.6860   18.1240   55.5200 O.2    45  G45        -0.2633
    491  N7        35.0360   21.0670   56.1870 N.ar   45  G45        -0.2173
    492  C8        35.1600   22.3480   55.9870 C.ar   45  G45         0.1817
    493  N9        35.9950   22.6600   54.9460 N.ar   45  G45        -0.2693
    494  OP1       31.7830   27.6040   57.1640 O.2    45  G45        -0.5172
    495  OP2       31.8830   25.1810   57.9710 O.co2  45  G45        -0.4373
    496  P         32.9600   26.3280   51.7580 P.3    46  G46         0.2141
    497  C5'       31.8970   27.8870   53.6020 C.3    46  G46         0.1812
    498  O5'       32.3920   27.7250   52.2740 O.3    46  G46        -0.3114
    499  C4'       32.0380   29.3290   54.0620 C.3    46  G46         0.1773
    500  O4'       33.3960   29.5700   54.5360 O.3    46  G46        -0.3307
    501  C3'       31.7860   30.4040   53.0030 C.3    46  G46         0.1860
    502  O3'       30.3940   30.7210   52.9070 O.3    46  G46        -0.3112
    503  C2'       32.6200   31.5590   53.5570 C.3    46  G46         0.2309
    504  O2'       32.0050   32.2320   54.6400 O.3    46  G46        -0.2156
    505  C1'       33.8640   30.8130   54.0360 C.3    46  G46         0.2408
    506  N1        37.0840   32.8160   50.6280 N.ar   46  G46        -0.1709
    507  C2        36.3360   33.4520   51.5940 C.ar   46  G46         0.2606
    508  N2        36.4570   34.7810   51.6610 N.pl3  46  G46        -0.0859
    509  N3        35.5250   32.8260   52.4350 N.ar   46  G46        -0.1918
    510  C4        35.5230   31.4850   52.2320 C.ar   46  G46         0.1723
    511  C5        36.2310   30.7590   51.2980 C.ar   46  G46         0.1748
    512  C6        37.0910   31.4400   50.4040 C.ar   46  G46         0.3023
    513  O6        37.8030   30.9550   49.5170 O.2    46  G46        -0.2633
    514  N7        35.9610   29.4030   51.4090 N.ar   46  G46        -0.2173
    515  C8        35.1090   29.3370   52.3850 C.ar   46  G46         0.1817
    516  N9        34.8000   30.5570   52.9410 N.ar   46  G46        -0.2693
    517  OP1       32.1360   25.2220   52.3070 O.3    46  G46        -0.4373
    518  OP2       33.1370   26.4640   50.2960 O.co2  46  G46        -0.5172
    519  P         29.7540   31.2210   51.5220 P.3    47  C47         0.2141
    520  C5'       29.8380   33.7490   52.1640 C.3    47  C47         0.1812
    521  O5'       30.3530   32.6860   51.3950 O.3    47  C47        -0.3114
    522  C4'       30.6470   35.0050   51.9000 C.3    47  C47         0.1773
    523  O4'       32.0600   34.6930   51.9940 O.3    47  C47        -0.3307
    524  C3'       30.5030   35.5840   50.5000 C.3    47  C47         0.1860
    525  O3'       29.3380   36.3820   50.3740 O.3    47  C47        -0.3112
    526  C2'       31.7740   36.4060   50.4070 C.3    47  C47         0.2309
    527  O2'       31.7300   37.5540   51.2260 O.3    47  C47        -0.2156
    528  C1'       32.7660   35.4280   51.0110 C.3    47  C47         0.2420
    529  N1        33.4260   34.5090   50.0200 N.ar   47  C47        -0.2535
    530  C2        34.4990   34.9880   49.2540 C.ar   47  C47         0.3532
    531  O2        34.8720   36.1630   49.4020 O.2    47  C47        -0.2443
    532  N3        35.1070   34.1420   48.3780 N.ar   47  C47        -0.1739
    533  C4        34.6820   32.8750   48.2530 C.ar   47  C47         0.1759
    534  N4        35.3040   32.0780   47.3780 N.pl3  47  C47        -0.1070
    535  C5        33.5910   32.3730   49.0240 C.ar   47  C47         0.0566
    536  C6        33.0050   33.2150   49.8850 C.ar   47  C47         0.0850
    537  OP1       28.2870   31.3220   51.6620 O.3    47  C47        -0.4373
    538  OP2       30.3220   30.4130   50.4250 O.co2  47  C47        -0.5172
    539  P         28.7370   36.6080   48.9170 P.3    48  U48         0.2141
    540  C5'       29.8400   38.8610   48.2460 C.3    48  U48         0.1812
    541  O5'       29.8870   37.4540   48.2240 O.3    48  U48        -0.3114
    542  C4'       30.8710   39.3990   47.2840 C.3    48  U48         0.1773
    543  O4'       32.1000   38.6610   47.4540 O.3    48  U48        -0.3307
    544  C3'       30.5460   39.1930   45.8190 C.3    48  U48         0.1860
    545  O3'       29.6410   40.1770   45.3970 O.3    48  U48        -0.3112
    546  C2'       31.9240   39.4060   45.2190 C.3    48  U48         0.2309
    547  O2'       32.3180   40.7660   45.1760 O.3    48  U48        -0.2156
    548  C1'       32.7860   38.6460   46.2190 C.3    48  U48         0.2420
    549  N1        33.0740   37.2380   45.7990 N.ar   48  U48        -0.2534
    550  C2        34.0060   37.0440   44.8090 C.ar   48  U48         0.3546
    551  O2        34.5930   37.9650   44.2770 O.2    48  U48        -0.2443
    552  N3        34.2300   35.7360   44.4650 N.ar   48  U48        -0.1530
    553  C4        33.6240   34.6210   45.0100 C.ar   48  U48         0.2846
    554  O4        33.9300   33.5070   44.5980 O.2    48  U48        -0.2650
    555  C5        32.6530   34.8960   46.0380 C.ar   48  U48         0.0814
    556  C6        32.4200   36.1690   46.3910 C.ar   48  U48         0.0870
    557  OP1       27.5230   37.4410   49.0100 O.3    48  U48        -0.4373
    558  OP2       28.6800   35.3040   48.2280 O.co2  48  U48        -0.5172
    559  P         28.6160   39.8850   44.2130 P.3    49  A49         0.2141
    560  C5'       29.8670   41.2390   42.3420 C.3    49  A49         0.1812
    561  O5'       29.5540   39.9780   42.9090 O.3    49  A49        -0.3114
    562  C4'       31.0510   41.1390   41.4150 C.3    49  A49         0.1773
    563  O4'       32.0820   40.3560   42.0490 O.3    49  A49        -0.3307
    564  C3'       30.7730   40.3900   40.1280 C.3    49  A49         0.1860
    565  O3'       30.1730   41.2170   39.1690 O.3    49  A49        -0.3112
    566  C2'       32.1660   39.9570   39.7110 C.3    49  A49         0.2309
    567  O2'       32.8890   40.9960   39.0870 O.3    49  A49        -0.2156
    568  C1'       32.7720   39.5940   41.0660 C.3    49  A49         0.2408
    569  N1        34.4320   34.7670   40.1920 N.ar   49  A49        -0.2040
    570  C2        34.8210   35.9410   39.6850 C.ar   49  A49         0.2016
    571  N3        34.3480   37.1590   39.9530 N.ar   49  A49        -0.2048
    572  C4        33.3560   37.1140   40.8640 C.ar   49  A49         0.1692
    573  C5        32.8530   35.9800   41.4750 C.ar   49  A49         0.1518
    574  C6        33.4340   34.7470   41.1050 C.ar   49  A49         0.1919
    575  N6        33.0470   33.5710   41.6170 N.pl3  49  A49        -0.1054
    576  N7        31.8390   36.3060   42.3600 N.ar   49  A49        -0.2193
    577  C8        31.7470   37.6090   42.2640 C.ar   49  A49         0.1816
    578  N9        32.6340   38.1700   41.3870 N.ar   49  A49        -0.2693
    579  OP1       27.6310   40.9930   44.2020 O.2    49  A49        -0.5172
    580  OP2       28.1470   38.4880   44.3330 O.co2  49  A49        -0.4373
    581  P         28.9270   40.6200   38.3800 P.3    50  C50         0.2141
    582  C5'       30.3470   40.4210   36.2040 C.3    50  C50         0.1812
    583  O5'       29.6320   39.7580   37.2400 O.3    50  C50        -0.3114
    584  C4'       31.3780   39.5170   35.5590 C.3    50  C50         0.1773
    585  O4'       32.2700   38.9440   36.5520 O.3    50  C50        -0.3307
    586  C3'       30.8060   38.3060   34.8540 C.3    50  C50         0.1860
    587  O3'       30.3100   38.6640   33.5960 O.3    50  C50        -0.3112
    588  C2'       32.0510   37.4450   34.7490 C.3    50  C50         0.2309
    589  O2'       32.9700   37.9270   33.7920 O.3    50  C50        -0.2156
    590  C1'       32.6210   37.6240   36.1520 C.3    50  C50         0.2420
    591  N1        32.0920   36.5870   37.1310 N.ar   50  C50        -0.2535
    592  C2        32.6230   35.2810   37.1370 C.ar   50  C50         0.3532
    593  O2        33.5330   34.9760   36.3610 O.2    50  C50        -0.2443
    594  N3        32.1290   34.3730   38.0150 N.ar   50  C50        -0.1739
    595  C4        31.1530   34.7080   38.8560 C.ar   50  C50         0.1759
    596  N4        30.7080   33.7660   39.6870 N.pl3  50  C50        -0.1070
    597  C5        30.5880   36.0170   38.8700 C.ar   50  C50         0.0566
    598  C6        31.0800   36.9110   38.0020 C.ar   50  C50         0.0850
    599  OP1       28.1950   41.7410   37.7540 O.2    50  C50        -0.5172
    600  OP2       28.2100   39.6950   39.2860 O.co2  50  C50        -0.4373
    601  P         28.9430   38.0170   33.0840 P.3    51  U51         0.2141
    602  C5'       30.2570   36.0960   31.8380 C.3    51  U51         0.1812
    603  O5'       29.3410   36.4810   32.8540 O.3    51  U51        -0.3114
    604  C4'       30.6490   34.6380   31.9950 C.3    51  U51         0.1773
    605  O4'       31.2990   34.4350   33.2750 O.3    51  U51        -0.3307
    606  C3'       29.5010   33.6410   32.0120 C.3    51  U51         0.1860
    607  O3'       29.0870   33.3230   30.7030 O.3    51  U51        -0.3112
    608  C2'       30.1690   32.4500   32.6820 C.3    51  U51         0.2309
    609  O2'       30.9900   31.7090   31.8010 O.3    51  U51        -0.2156
    610  C1'       30.9940   33.1410   33.7620 C.3    51  U51         0.2420
    611  N1        30.2210   33.2400   35.0390 N.ar   51  U51        -0.2534
    612  C2        30.1850   32.1480   35.8860 C.ar   51  U51         0.3546
    613  O2        30.7770   31.1060   35.6700 O.2    51  U51        -0.2443
    614  N3        29.4340   32.3240   37.0210 N.ar   51  U51        -0.1530
    615  C4        28.7130   33.4440   37.3900 C.ar   51  U51         0.2846
    616  O4        28.0910   33.4480   38.4530 O.2    51  U51        -0.2650
    617  C5        28.7860   34.5350   36.4500 C.ar   51  U51         0.0814
    618  C6        29.5190   34.3950   35.3400 C.ar   51  U51         0.0870
    619  OP1       28.6060   38.6330   31.7780 O.2    51  U51        -0.5172
    620  OP2       27.9670   38.0620   34.1980 O.co2  51  U51        -0.4373
    621  P         27.5690   32.9370   30.4060 P.3    52  G52         0.2141
    622  C5'       28.2690   30.4220   30.7520 C.3    52  G52         0.1812
    623  O5'       27.4260   31.5130   31.1130 O.3    52  G52        -0.3114
    624  C4'       27.9770   29.1980   31.6030 C.3    52  G52         0.1773
    625  O4'       28.4620   29.3890   32.9600 O.3    52  G52        -0.3307
    626  C3'       26.5070   28.8680   31.7680 C.3    52  G52         0.1860
    627  O3'       26.0890   28.1020   30.6820 O.3    52  G52        -0.3112
    628  C2'       26.5460   28.0540   33.0480 C.3    52  G52         0.2309
    629  O2'       27.0570   26.7550   32.8270 O.3    52  G52        -0.2156
    630  C1'       27.5150   28.8840   33.8820 C.3    52  G52         0.2408
    631  N1        25.4580   30.6440   38.2540 N.ar   52  G52        -0.1709
    632  C2        25.9850   29.4070   37.9860 C.ar   52  G52         0.2606
    633  N2        25.9630   28.5280   38.9960 N.pl3  52  G52        -0.0859
    634  N3        26.4980   29.0530   36.8100 N.ar   52  G52        -0.1918
    635  C4        26.4350   30.0530   35.8930 C.ar   52  G52         0.1723
    636  C5        25.9230   31.3210   36.0680 C.ar   52  G52         0.1748
    637  C6        25.3830   31.6840   37.3370 C.ar   52  G52         0.3023
    638  O6        24.8830   32.7640   37.6800 O.2    52  G52        -0.2633
    639  N7        26.0420   32.0610   34.8980 N.ar   52  G52        -0.2173
    640  C8        26.6070   31.2480   34.0640 C.ar   52  G52         0.1817
    641  N9        26.8820   30.0100   34.5860 N.ar   52  G52        -0.2693
    642  OP1       27.4080   32.7810   28.9440 O.2    52  G52        -0.5172
    643  OP2       26.7080   33.9000   31.1130 O.co2  52  G52        -0.4373
    644  P         24.5510   27.7760   30.4160 P.3    53  A53         0.2141
    645  C5'       24.9130   29.9410   28.9900 C.3    53  A53         0.1812
    646  O5'       24.0200   29.1020   29.7140 O.3    53  A53        -0.3114
    647  C4'       24.2730   30.4170   27.6970 C.3    53  A53         0.1773
    648  O4'       24.0380   29.2770   26.8400 O.3    53  A53        -0.3307
    649  C3'       22.8930   31.0340   27.8490 C.3    53  A53         0.1860
    650  O3'       22.9780   32.4000   28.2570 O.3    53  A53        -0.3112
    651  C2'       22.3330   30.8680   26.4420 C.3    53  A53         0.2309
    652  O2'       22.8250   31.8440   25.5480 O.3    53  A53        -0.2156
    653  C1'       22.8810   29.5000   26.0640 C.3    53  A53         0.2408
    654  N1        18.5880   26.9870   24.6990 N.ar   53  A53        -0.2040
    655  C2        19.1600   28.1030   24.2120 C.ar   53  A53         0.2016
    656  N3        20.2800   28.7170   24.6110 N.ar   53  A53        -0.2048
    657  C4        20.8430   28.0580   25.6420 C.ar   53  A53         0.1692
    658  C5        20.3760   26.9020   26.2470 C.ar   53  A53         0.1518
    659  C6        19.1830   26.3480   25.7330 C.ar   53  A53         0.1919
    660  N6        18.6250   25.2370   26.2250 N.pl3  53  A53        -0.1054
    661  N7        21.2180   26.5090   27.2740 N.ar   53  A53        -0.2193
    662  C8        22.1610   27.4200   27.2730 C.ar   53  A53         0.1816
    663  N9        21.9910   28.3840   26.3220 N.ar   53  A53        -0.2693
    664  OP1       23.8420   27.5910   31.7130 O.3    53  A53        -0.4373
    665  OP2       24.5110   26.7040   29.4020 O.co2  53  A53        -0.5172
    666  P         21.7670   33.0120   29.1040 P.3    54  C54         0.2141
    667  C5'       20.6270   33.9320   26.8840 C.3    54  C54         0.1812
    668  O5'       20.5670   33.0550   28.0310 O.3    54  C54        -0.3114
    669  C4'       19.4860   33.6740   25.9110 C.3    54  C54         0.1773
    670  O4'       19.4920   32.2820   25.5100 O.3    54  C54        -0.3307
    671  C3'       18.1030   33.9190   26.4890 C.3    54  C54         0.1860
    672  O3'       17.6940   35.2710   26.2700 O.3    54  C54        -0.3112
    673  C2'       17.2180   32.9130   25.7600 C.3    54  C54         0.2309
    674  O2'       16.7150   33.4300   24.5470 O.3    54  C54        -0.2156
    675  C1'       18.1750   31.7570   25.4780 C.3    54  C54         0.2420
    676  N1        18.0780   30.5800   26.4350 N.ar   54  C54        -0.2535
    677  C2        17.0720   29.6120   26.2840 C.ar   54  C54         0.3532
    678  O2        16.2390   29.7260   25.3800 O.2    54  C54        -0.2443
    679  N3        17.0280   28.5630   27.1480 N.ar   54  C54        -0.1739
    680  C4        17.9320   28.4560   28.1270 C.ar   54  C54         0.1759
    681  N4        17.8420   27.4090   28.9540 N.pl3  54  C54        -0.1070
    682  C5        18.9680   29.4170   28.2960 C.ar   54  C54         0.0566
    683  C6        18.9990   30.4450   27.4400 C.ar   54  C54         0.0850
    684  OP1       22.1340   34.3920   29.5030 O.2    54  C54        -0.5172
    685  OP2       21.4000   32.0170   30.1400 O.co2  54  C54        -0.4373
    686  P         16.7620   35.9830   27.3690 P.3    55  C55         0.2141
    687  C5'       16.9840   36.0740   29.9910 C.3    55  C55         0.1812
    688  O5'       17.4300   35.5180   28.7560 O.3    55  C55        -0.3114
    689  C4'       16.9930   35.0520   31.1190 C.3    55  C55         0.1773
    690  O4'       15.9990   34.0280   30.8790 O.3    55  C55        -0.3307
    691  C3'       18.3080   34.3150   31.3500 C.3    55  C55         0.1860
    692  O3'       18.5610   34.2640   32.7310 O.3    55  C55        -0.3112
    693  C2'       18.0330   32.9140   30.8190 C.3    55  C55         0.2309
    694  O2'       18.8130   31.9330   31.4720 O.3    55  C55        -0.2156
    695  C1'       16.5620   32.7700   31.1800 C.3    55  C55         0.2420
    696  N1        15.8160   31.7160   30.4230 N.ar   55  C55        -0.2535
    697  C2        15.2390   30.6450   31.1180 C.ar   55  C55         0.3532
    698  O2        15.3670   30.5740   32.3460 O.2    55  C55        -0.2443
    699  N3        14.5530   29.7030   30.4220 N.ar   55  C55        -0.1739
    700  C4        14.4240   29.8040   29.0960 C.ar   55  C55         0.1759
    701  N4        13.7390   28.8450   28.4560 N.pl3  55  C55        -0.1070
    702  C5        14.9930   30.8960   28.3710 C.ar   55  C55         0.0566
    703  C6        15.6750   31.8150   29.0660 C.ar   55  C55         0.0850
    704  OP1       15.4130   35.3670   27.2870 O.3    55  C55        -0.4373
    705  OP2       16.9210   37.4500   27.2240 O.co2  55  C55        -0.5172
    706  P         19.5600   35.2990   33.4110 P.3    56  C56         0.2141
    707  C5'       17.9280   37.2740   34.0130 C.3    56  C56         0.1812
    708  O5'       18.5880   36.0770   34.4130 O.3    56  C56        -0.3114
    709  C4'       16.6190   37.4180   34.7590 C.3    56  C56         0.1773
    710  O4'       15.7200   36.3320   34.4050 O.3    56  C56        -0.3307
    711  C3'       16.7400   37.2980   36.2670 C.3    56  C56         0.1860
    712  O3'       17.1630   38.5240   36.8330 O.3    56  C56        -0.3112
    713  C2'       15.3100   36.9580   36.6500 C.3    56  C56         0.2309
    714  O2'       14.4720   38.0950   36.6620 O.3    56  C56        -0.2156
    715  C1'       14.9180   36.0000   35.5260 C.3    56  C56         0.2420
    716  N1        15.1500   34.5770   35.8930 N.ar   56  C56        -0.2535
    717  C2        14.3950   33.9850   36.9240 C.ar   56  C56         0.3532
    718  O2        13.5270   34.6460   37.5190 O.2    56  C56        -0.2443
    719  N3        14.6330   32.6860   37.2460 N.ar   56  C56        -0.1739
    720  C4        15.5630   31.9840   36.5980 C.ar   56  C56         0.1759
    721  N4        15.7440   30.7090   36.9620 N.pl3  56  C56        -0.1070
    722  C5        16.3440   32.5650   35.5510 C.ar   56  C56         0.0566
    723  C6        16.1040   33.8480   35.2350 C.ar   56  C56         0.0850
    724  OP1       20.0520   36.2510   32.3850 O.2    56  C56        -0.5172
    725  OP2       20.5160   34.5180   34.2260 O.co2  56  C56        -0.4373
    726  P         17.9840   38.5020   38.2070 P.3    57  C57         0.2141
    727  C5'       17.0480   38.0820   40.5980 C.3    57  C57         0.1812
    728  O5'       16.8600   37.9820   39.2120 O.3    57  C57        -0.3114
    729  C4'       15.9870   37.2820   41.3160 C.3    57  C57         0.1773
    730  O4'       15.3030   36.4140   40.3770 O.3    57  C57        -0.3307
    731  C3'       16.5470   36.3480   42.3710 C.3    57  C57         0.1860
    732  O3'       16.6810   37.0180   43.5950 O.3    57  C57        -0.3112
    733  C2'       15.5090   35.2390   42.4140 C.3    57  C57         0.2309
    734  O2'       14.3370   35.6100   43.1070 O.3    57  C57        -0.2156
    735  C1'       15.2280   35.1010   40.9200 C.3    57  C57         0.2420
    736  N1        16.1740   34.1610   40.1790 N.ar   57  C57        -0.2535
    737  C2        16.2080   32.7900   40.4920 C.ar   57  C57         0.3532
    738  O2        15.4830   32.3370   41.3850 O.2    57  C57        -0.2443
    739  N3        17.0540   31.9810   39.8050 N.ar   57  C57        -0.1739
    740  C4        17.8340   32.4740   38.8440 C.ar   57  C57         0.1759
    741  N4        18.6380   31.6250   38.2040 N.pl3  57  C57        -0.1070
    742  C5        17.8210   33.8550   38.5050 C.ar   57  C57         0.0566
    743  C6        16.9860   34.6470   39.1880 C.ar   57  C57         0.0850
    744  OP1       18.3580   39.8970   38.5530 O.3    57  C57        -0.4373
    745  OP2       19.0370   37.4650   38.1100 O.co2  57  C57        -0.5172
    746  P         18.1630   37.3040   44.1060 P.3    58  G58         0.2141
    747  C5'       19.0650   35.0160   45.0590 C.3    58  G58         0.1812
    748  O5'       18.8430   35.8600   43.9410 O.3    58  G58        -0.3114
    749  C4'       18.6220   33.5940   44.7750 C.3    58  G58         0.1773
    750  O4'       18.2460   33.4560   43.3850 O.3    58  G58        -0.3307
    751  C3'       19.6910   32.5360   44.9610 C.3    58  G58         0.1860
    752  O3'       19.8340   32.1880   46.3160 O.3    58  G58        -0.3112
    753  C2'       19.1100   31.3930   44.1430 C.3    58  G58         0.2309
    754  O2'       18.0400   30.7290   44.7840 O.3    58  G58        -0.2156
    755  C1'       18.5830   32.1550   42.9300 C.3    58  G58         0.2408
    756  N1        21.5580   29.6440   39.5650 N.ar   58  G58        -0.1709
    757  C2        20.7590   29.1310   40.5560 C.ar   58  G58         0.2606
    758  N2        20.7470   27.7950   40.6600 N.pl3  58  G58        -0.0859
    759  N3        20.0200   29.8720   41.3850 N.ar   58  G58        -0.1918
    760  C4        20.1500   31.2040   41.1340 C.ar   58  G58         0.1723
    761  C5        20.9250   31.8030   40.1690 C.ar   58  G58         0.1748
    762  C6        21.6960   30.9980   39.2960 C.ar   58  G58         0.3023
    763  O6        22.4370   31.3680   38.3830 O.2    58  G58        -0.2633
    764  N7        20.7920   33.1810   40.2170 N.ar   58  G58        -0.2173
    765  C8        19.9630   33.3930   41.1970 C.ar   58  G58         0.1817
    766  N9        19.5270   32.2440   41.8050 N.ar   58  G58        -0.2693
    767  OP1       18.0770   37.6810   45.5400 O.3    58  G58        -0.4373
    768  OP2       18.8170   38.2340   43.1500 O.co2  58  G58        -0.5172
    769  P         21.2660   32.3190   47.0140 P.3    59  C59         0.2141
    770  C5'       21.5200   29.7480   46.7780 C.3    59  C59         0.1812
    771  O5'       22.0380   31.0320   46.4830 O.3    59  C59        -0.3114
    772  C4'       22.1060   28.7040   45.8550 C.3    59  C59         0.1773
    773  O4'       21.7690   29.0300   44.4820 O.3    59  C59        -0.3307
    774  C3'       23.6200   28.6230   45.8850 C.3    59  C59         0.1860
    775  O3'       24.0350   27.7600   46.9390 O.3    59  C59        -0.3112
    776  C2'       23.9150   28.0420   44.5080 C.3    59  C59         0.2309
    777  O2'       23.7040   26.6450   44.4860 O.3    59  C59        -0.2156
    778  C1'       22.8610   28.7250   43.6380 C.3    59  C59         0.2420
    779  N1        23.2940   29.9780   42.9260 N.ar   59  C59        -0.2535
    780  C2        23.8850   29.8850   41.6550 C.ar   59  C59         0.3532
    781  O2        24.0550   28.7740   41.1480 O.2    59  C59        -0.2443
    782  N3        24.2590   31.0210   41.0090 N.ar   59  C59        -0.1739
    783  C4        24.0570   32.2100   41.5790 C.ar   59  C59         0.1759
    784  N4        24.4380   33.2990   40.9030 N.pl3  59  C59        -0.1070
    785  C5        23.4550   32.3320   42.8700 C.ar   59  C59         0.0566
    786  C6        23.0930   31.2050   43.4970 C.ar   59  C59         0.0850
    787  OP1       21.0830   32.1780   48.4710 O.3    59  C59        -0.4373
    788  OP2       21.9420   33.5210   46.4850 O.co2  59  C59        -0.5172
    789  P         24.8660   28.3300   48.1900 P.3    60  C60         0.2141
    790  C5'       23.5690   27.5110   50.3230 C.3    60  C60         0.1812
    791  O5'       23.7370   28.4920   49.3120 O.3    60  C60        -0.3114
    792  C4'       22.1030   27.3630   50.6670 C.3    60  C60         0.1773
    793  O4'       21.3060   27.3670   49.4540 O.3    60  C60        -0.3307
    794  C3'       21.7600   26.0490   51.3480 C.3    60  C60         0.1860
    795  O3'       21.9990   26.1290   52.7330 O.3    60  C60        -0.3112
    796  C2'       20.2880   25.8810   51.0100 C.3    60  C60         0.2309
    797  O2'       19.4320   26.6550   51.8280 O.3    60  C60        -0.2156
    798  C1'       20.2800   26.3860   49.5620 C.3    60  C60         0.2420
    799  N1        20.5030   25.2880   48.5440 N.ar   60  C60        -0.2535
    800  C2        19.6710   24.1540   48.5500 C.ar   60  C60         0.3532
    801  O2        18.7600   24.0650   49.3830 O.2    60  C60        -0.2443
    802  N3        19.8800   23.1810   47.6220 N.ar   60  C60        -0.1739
    803  C4        20.8650   23.2960   46.7300 C.ar   60  C60         0.1759
    804  N4        21.0190   22.3010   45.8580 N.pl3  60  C60        -0.1070
    805  C5        21.7270   24.4340   46.7020 C.ar   60  C60         0.0566
    806  C6        21.5090   25.3940   47.6160 C.ar   60  C60         0.0850
    807  OP1       25.3490   29.6770   47.8500 O.2    60  C60        -0.5172
    808  OP2       25.8390   27.2970   48.6250 O.co2  60  C60        -0.4373
    809  P         23.0530   25.1090   53.3630 P.3    61  U61         0.2141
    810  C5'       20.8910   24.0100   54.4010 C.3    61  U61         0.1812
    811  O5'       22.1470   23.8420   53.7430 O.3    61  U61        -0.3114
    812  C4'       20.0330   22.7590   54.3090 C.3    61  U61         0.1773
    813  O4'       19.4000   22.6610   53.0050 O.3    61  U61        -0.3307
    814  C3'       20.7790   21.4430   54.4390 C.3    61  U61         0.1860
    815  O3'       21.0710   21.1460   55.7940 O.3    61  U61        -0.3112
    816  C2'       19.7750   20.4700   53.8320 C.3    61  U61         0.2309
    817  O2'       18.7590   20.0680   54.7320 O.3    61  U61        -0.2156
    818  C1'       19.2100   21.2920   52.6730 C.3    61  U61         0.2420
    819  N1        19.8960   20.9600   51.3730 N.ar   61  U61        -0.2534
    820  C2        19.4820   19.8540   50.6440 C.ar   61  U61         0.3546
    821  O2        18.5620   19.1200   50.9760 O.2    61  U61        -0.2443
    822  N3        20.1850   19.6340   49.4830 N.ar   61  U61        -0.1530
    823  C4        21.2400   20.3780   48.9920 C.ar   61  U61         0.2846
    824  O4        21.7680   20.0530   47.9390 O.2    61  U61        -0.2650
    825  C5        21.6240   21.5000   49.8060 C.ar   61  U61         0.0814
    826  C6        20.9530   21.7420   50.9370 C.ar   61  U61         0.0870
    827  OP1       23.6090   25.7350   54.5850 O.3    61  U61        -0.4373
    828  OP2       23.9720   24.6630   52.2870 O.co2  61  U61        -0.5172
    829  P         22.2660   20.1390   56.1470 P.3    62  U62         0.2141
    830  C5'       20.8570   17.9170   56.1560 C.3    62  U62         0.1812
    831  O5'       21.7820   18.7590   55.4790 O.3    62  U62        -0.3114
    832  C4'       20.4240   16.7190   55.3200 C.3    62  U62         0.1773
    833  O4'       20.0170   17.1390   53.9920 O.3    62  U62        -0.3307
    834  C3'       21.4810   15.6510   55.0680 C.3    62  U62         0.1860
    835  O3'       21.6340   14.7810   56.1890 O.3    62  U62        -0.3112
    836  C2'       20.8970   14.9450   53.8470 C.3    62  U62         0.2309
    837  O2'       19.8420   14.0510   54.1580 O.3    62  U62        -0.2156
    838  C1'       20.3740   16.1420   53.0450 C.3    62  U62         0.2420
    839  N1        21.3780   16.7120   52.0510 N.ar   62  U62        -0.2534
    840  C2        21.6470   16.0300   50.8730 C.ar   62  U62         0.3546
    841  O2        21.1170   14.9750   50.5760 O.2    62  U62        -0.2443
    842  N3        22.5710   16.6350   50.0460 N.ar   62  U62        -0.1530
    843  C4        23.2430   17.8300   50.2730 C.ar   62  U62         0.2846
    844  O4        24.0480   18.2600   49.4470 O.2    62  U62        -0.2650
    845  C5        22.9100   18.4770   51.5190 C.ar   62  U62         0.0814
    846  C6        22.0140   17.9080   52.3330 C.ar   62  U62         0.0870
    847  OP1       22.3090   19.9910   57.6200 O.3    62  U62        -0.4373
    848  OP2       23.4820   20.6040   55.4450 O.co2  62  U62        -0.5172
    849  P         23.0990   14.2860   56.6150 P.3    63  C63         0.2141
    850  C5'       22.5540   11.8810   55.8650 C.3    63  C63         0.1812
    851  O5'       23.3000   13.0540   55.6300 O.3    63  C63        -0.3114
    852  C4'       22.7590   10.9020   54.7340 C.3    63  C63         0.1773
    853  O4'       22.2940   11.5050   53.4990 O.3    63  C63        -0.3307
    854  C3'       24.2050   10.5320   54.4470 C.3    63  C63         0.1860
    855  O3'       24.6520    9.5150   55.3310 O.3    63  C63        -0.3112
    856  C2'       24.0620   10.0280   53.0220 C.3    63  C63         0.2309
    857  O2'       23.4490    8.7560   52.9900 O.3    63  C63        -0.2156
    858  C1'       23.1190   11.0780   52.4300 C.3    63  C63         0.2420
    859  N1        23.8210   12.2760   51.8160 N.ar   63  C63        -0.2535
    860  C2        24.3060   12.2190   50.4930 C.ar   63  C63         0.3532
    861  O2        24.1520   11.1920   49.8220 O.2    63  C63        -0.2443
    862  N3        24.9340   13.3040   49.9740 N.ar   63  C63        -0.1739
    863  C4        25.0880   14.4060   50.7080 C.ar   63  C63         0.1759
    864  N4        25.7120   15.4480   50.1540 N.pl3  63  C63        -0.1070
    865  C5        24.6070   14.4870   52.0480 C.ar   63  C63         0.0566
    866  C6        23.9870   13.4160   52.5530 C.ar   63  C63         0.0850
    867  OP1       23.0500   13.7630   57.9990 O.3    63  C63        -0.4373
    868  OP2       24.0880   15.3380   56.2770 O.co2  63  C63        -0.5172
    869  P         26.1770    9.4750   55.8230 P.3    64  A64         0.2141
    870  C5'       26.9200    7.6240   54.1900 C.3    64  A64         0.1812
    871  O5'       26.9340    9.0000   54.5080 O.3    64  A64        -0.3114
    872  C4'       27.2840    7.4220   52.7410 C.3    64  A64         0.1773
    873  O4'       26.5720    8.3740   51.9160 O.3    64  A64        -0.3307
    874  C3'       28.7410    7.6760   52.4160 C.3    64  A64         0.1860
    875  O3'       29.5060    6.5490   52.7730 O.3    64  A64        -0.3112
    876  C2'       28.6390    7.8480   50.9090 C.3    64  A64         0.2309
    877  O2'       28.4500    6.6280   50.2260 O.3    64  A64        -0.2156
    878  C1'       27.3760    8.6970   50.7940 C.3    64  A64         0.2408
    879  N1        29.4680   12.6010   48.1730 N.ar   64  A64        -0.2040
    880  C2        29.3350   11.3030   47.8850 C.ar   64  A64         0.2016
    881  N3        28.7750   10.3440   48.6180 N.ar   64  A64        -0.2048
    882  C4        28.3100   10.8280   49.7860 C.ar   64  A64         0.1692
    883  C5        28.3740   12.1380   50.2230 C.ar   64  A64         0.1518
    884  C6        28.9930   13.0610   49.3490 C.ar   64  A64         0.1919
    885  N6        29.1300   14.3600   49.6210 N.pl3  64  A64        -0.1054
    886  N7        27.7870   12.2670   51.4740 N.ar   64  A64        -0.2193
    887  C8        27.3910   11.0490   51.7640 C.ar   64  A64         0.1816
    888  N9        27.6680   10.1310   50.7860 N.ar   64  A64        -0.2693
    889  OP1       26.3050    8.4060   56.8360 O.3    64  A64        -0.4373
    890  OP2       26.6340   10.8450   56.1440 O.co2  64  A64        -0.5172
    891  P         30.9200    6.7150   53.4930 P.3    65  A65         0.2141
    892  C5'       31.9830    5.8440   51.3340 C.3    65  A65         0.1812
    893  O5'       31.8870    6.8990   52.2510 O.3    65  A65        -0.3114
    894  C4'       32.7590    6.2890   50.1320 C.3    65  A65         0.1773
    895  O4'       31.9560    7.2090   49.3610 O.3    65  A65        -0.3307
    896  C3'       34.0090    7.0770   50.4450 C.3    65  A65         0.1860
    897  O3'       35.0290    6.1950   50.7750 O.3    65  A65        -0.3112
    898  C2'       34.2320    7.6820   49.0770 C.3    65  A65         0.2309
    899  O2'       34.6590    6.7000   48.1480 O.3    65  A65        -0.2156
    900  C1'       32.8140    8.1590   48.7720 C.3    65  A65         0.2408
    901  N1        33.2950   13.2370   48.2260 N.ar   65  A65        -0.2040
    902  C2        33.7000   12.2110   47.4660 C.ar   65  A65         0.2016
    903  N3        33.5370   10.9030   47.6750 N.ar   65  A65        -0.2048
    904  C4        32.8670   10.6810   48.8200 C.ar   65  A65         0.1692
    905  C5        32.3860   11.6300   49.7090 C.ar   65  A65         0.1518
    906  C6        32.6240   12.9780   49.3750 C.ar   65  A65         0.1919
    907  N6        32.2180   14.0010   50.1330 N.pl3  65  A65        -0.1054
    908  N7        31.7460   11.0300   50.7790 N.ar   65  A65        -0.2193
    909  C8        31.8550    9.7480   50.5200 C.ar   65  A65         0.1816
    910  N9        32.5160    9.4670   49.3480 N.ar   65  A65        -0.2693
    911  OP1       31.2460    5.4330   54.1560 O.2    65  A65        -0.5172
    912  OP2       30.9480    7.9760   54.2670 O.co2  65  A65        -0.4373
    913  P         36.2540    6.6690   51.6710 P.3    66  A66         0.2141
    914  C5'       37.7540    7.1150   49.5620 C.3    66  A66         0.1812
    915  O5'       37.0720    7.6240   50.6950 O.3    66  A66        -0.3114
    916  C4'       38.2340    8.2640   48.6940 C.3    66  A66         0.1773
    917  O4'       37.0880    9.0610   48.2900 O.3    66  A66        -0.3307
    918  C3'       39.1770    9.2520   49.3690 C.3    66  A66         0.1860
    919  O3'       40.5190    8.8420   49.2220 O.3    66  A66        -0.3112
    920  C2'       38.9030   10.4960   48.5480 C.3    66  A66         0.2309
    921  O2'       39.5110   10.4140   47.2720 O.3    66  A66        -0.2156
    922  C1'       37.3840   10.4350   48.4330 C.3    66  A66         0.2408
    923  N1        35.4210   14.6370   50.7480 N.ar   66  A66        -0.2040
    924  C2        36.0620   14.4770   49.5770 C.ar   66  A66         0.2016
    925  N3        36.5470   13.3560   49.0280 N.ar   66  A66        -0.2048
    926  C4        36.3190   12.2940   49.8270 C.ar   66  A66         0.1692
    927  C5        35.6750   12.3040   51.0560 C.ar   66  A66         0.1518
    928  C6        35.2090   13.5520   51.5300 C.ar   66  A66         0.1919
    929  N6        34.5740   13.7050   52.7000 N.pl3  66  A66        -0.1054
    930  N7        35.6210   11.0310   51.5930 N.ar   66  A66        -0.2193
    931  C8        36.2230   10.2930   50.6980 C.ar   66  A66         0.1816
    932  N9        36.6720   10.9800   49.6010 N.ar   66  A66        -0.2693
    933  OP1       37.0630    5.4700   51.9820 O.2    66  A66        -0.5172
    934  OP2       35.7370    7.5060   52.7740 O.co2  66  A66        -0.4373
    935  P         41.6010    9.1900   50.3460 P.3    67  C67         0.2141
    936  C5'       42.2400   11.6350   49.6560 C.3    67  C67         0.1812
    937  O5'       41.4560   10.7800   50.4910 O.3    67  C67        -0.3114
    938  C4'       41.7580   13.0820   49.5780 C.3    67  C67         0.1773
    939  O4'       40.3410   13.2480   49.8330 O.3    67  C67        -0.3307
    940  C3'       42.3400   14.0410   50.5900 C.3    67  C67         0.1860
    941  O3'       43.7150   14.2580   50.3670 O.3    67  C67        -0.3112
    942  C2'       41.4850   15.2670   50.2860 C.3    67  C67         0.2309
    943  O2'       41.8380   15.9160   49.0810 O.3    67  C67        -0.2156
    944  C1'       40.1120   14.6230   50.1270 C.3    67  C67         0.2420
    945  N1        39.2490   14.7820   51.3490 N.ar   67  C67        -0.2535
    946  C2        38.5900   16.0010   51.5680 C.ar   67  C67         0.3532
    947  O2        38.7320   16.9190   50.7460 O.2    67  C67        -0.2443
    948  N3        37.8110   16.1390   52.6750 N.ar   67  C67        -0.1739
    949  C4        37.6810   15.1240   53.5350 C.ar   67  C67         0.1759
    950  N4        36.9030   15.3010   54.6070 N.pl3  67  C67        -0.1070
    951  C5        38.3430   13.8780   53.3320 C.ar   67  C67         0.0566
    952  C6        39.1110   13.7530   52.2420 C.ar   67  C67         0.0850
    953  OP1       42.9460    8.8920   49.8000 O.2    67  C67        -0.5172
    954  OP2       41.1810    8.5470   51.6090 O.co2  67  C67        -0.4373
    955  P         44.6450   14.6120   51.6210 P.3    68  C68         0.2141
    956  C5'       44.1660   17.1390   51.0070 C.3    68  C68         0.1812
    957  O5'       44.1630   16.0970   51.9870 O.3    68  C68        -0.3114
    958  C4'       43.7180   18.4440   51.6320 C.3    68  C68         0.1773
    959  O4'       42.3950   18.3110   52.2160 O.3    68  C68        -0.3307
    960  C3'       44.6310   18.9150   52.7590 C.3    68  C68         0.1860
    961  O3'       44.9450   20.2710   52.5910 O.3    68  C68        -0.3112
    962  C2'       43.7930   18.7480   54.0090 C.3    68  C68         0.2309
    963  O2'       44.1570   19.7150   54.9750 O.3    68  C68        -0.2156
    964  C1'       42.4060   19.0120   53.4390 C.3    68  C68         0.2420
    965  N1        41.2880   18.5460   54.3040 N.ar   68  C68        -0.2535
    966  C2        40.3490   19.4770   54.7770 C.ar   68  C68         0.3532
    967  O2        40.4570   20.6700   54.4600 O.2    68  C68        -0.2443
    968  N3        39.3360   19.0430   55.5680 N.ar   68  C68        -0.1739
    969  C4        39.2470   17.7500   55.8890 C.ar   68  C68         0.1759
    970  N4        38.2330   17.3720   56.6690 N.pl3  68  C68        -0.1070
    971  C5        40.1920   16.7890   55.4180 C.ar   68  C68         0.0566
    972  C6        41.1880   17.2250   54.6400 C.ar   68  C68         0.0850
    973  OP1       46.0550   14.6400   51.1460 O.2    68  C68        -0.5172
    974  OP2       44.2640   13.7460   52.7670 O.co2  68  C68        -0.4373
    975  P         46.2240   20.6960   51.7430 P.3    69  U69         0.2141
    976  C5'       46.5000   22.6740   53.4070 C.3    69  U69         0.1812
    977  O5'       46.3050   22.2520   52.0710 O.3    69  U69        -0.3114
    978  C4'       47.3980   23.8840   53.4060 C.3    69  U69         0.1773
    979  O4'       48.6840   23.5180   52.8390 O.3    69  U69        -0.3307
    980  C3'       46.9360   25.0050   52.4930 C.3    69  U69         0.1860
    981  O3'       45.8770   25.7700   53.0730 O.3    69  U69        -0.3112
    982  C2'       48.2370   25.7760   52.3860 C.3    69  U69         0.2309
    983  O2'       48.5640   26.3870   53.6140 O.3    69  U69        -0.2156
    984  C1'       49.2100   24.6280   52.1250 C.3    69  U69         0.2420
    985  N1        49.4060   24.2780   50.6590 N.ar   69  U69        -0.2534
    986  C2        50.0240   25.1820   49.7970 C.ar   69  U69         0.3546
    987  O2        50.4390   26.2760   50.1300 O.2    69  U69        -0.2443
    988  N3        50.1450   24.7610   48.4930 N.ar   69  U69        -0.1530
    989  C4        49.7190   23.5590   47.9630 C.ar   69  U69         0.2846
    990  O4        49.8950   23.3300   46.7730 O.2    69  U69        -0.2650
    991  C5        49.0910   22.6710   48.9110 C.ar   69  U69         0.0814
    992  C6        48.9650   23.0550   50.1910 C.ar   69  U69         0.0870
    993  OP1       45.8830   20.5310   50.3060 O.2    69  U69        -0.5172
    994  OP2       47.4210   20.0320   52.3330 O.co2  69  U69        -0.4373
    995  P         45.0600   26.8030   52.1640 P.3    70  A70         0.2141
    996  C5'       43.0270   25.1750   52.1490 C.3    70  A70         0.1812
    997  O5'       43.5320   26.4610   52.4270 O.3    70  A70        -0.3114
    998  C4'       41.5210   25.2320   51.9720 C.3    70  A70         0.1773
    999  O4'       40.9130   25.7680   53.1650 O.3    70  A70        -0.3307
   1000  C3'       41.0350   26.0890   50.8150 C.3    70  A70         0.1860
   1001  O3'       40.0570   25.3600   50.1240 O.3    70  A70        -0.3112
   1002  C2'       40.4070   27.3190   51.4510 C.3    70  A70         0.2309
   1003  O2'       39.2010   27.6660   50.8030 O.3    70  A70        -0.2156
   1004  C1'       40.0660   26.8520   52.8530 C.3    70  A70         0.2408
   1005  N1        37.9310   30.1120   56.2190 N.ar   70  A70        -0.2040
   1006  C2        37.3810   29.2530   55.3530 C.ar   70  A70         0.2016
   1007  N3        37.9890   28.4280   54.4980 N.ar   70  A70        -0.2048
   1008  C4        39.3240   28.5420   54.5880 C.ar   70  A70         0.1692
   1009  C5        40.0220   29.3770   55.4310 C.ar   70  A70         0.1518
   1010  C6        39.2710   30.1960   56.2840 C.ar   70  A70         0.1919
   1011  N6        39.8250   31.0440   57.1500 N.pl3  70  A70        -0.1054
   1012  N7        41.3830   29.2250   55.2560 N.ar   70  A70        -0.2193
   1013  C8        41.4790   28.3200   54.3220 C.ar   70  A70         0.1816
   1014  N9        40.2770   27.8650   53.8730 N.ar   70  A70        -0.2693
   1015  OP1       45.3730   26.5210   50.7430 O.2    70  A70        -0.5172
   1016  OP2       45.3080   28.1510   52.7150 O.co2  70  A70        -0.4373
   1017  P         40.0580   25.2930   48.5290 P.3    71  U71         0.2141
   1018  C5'       37.9040   23.9520   49.0050 C.3    71  U71         0.1812
   1019  O5'       38.5250   24.9830   48.2710 O.3    71  U71        -0.3114
   1020  C4'       38.0350   22.6580   48.2370 C.3    71  U71         0.1773
   1021  O4'       37.9860   21.5660   49.1650 O.3    71  U71        -0.3307
   1022  C3'       36.9280   22.3960   47.2270 C.3    71  U71         0.1860
   1023  O3'       37.3200   22.9470   45.9630 O.3    71  U71        -0.3112
   1024  C2'       36.9000   20.8770   47.1590 C.3    71  U71         0.2309
   1025  O2'       37.7870   20.3840   46.1630 O.3    71  U71        -0.2156
   1026  C1'       37.4060   20.4460   48.5310 C.3    71  U71         0.2420
   1027  N1        36.3950   19.8320   49.4480 N.ar   71  U71        -0.2534
   1028  C2        36.2940   18.4570   49.4740 C.ar   71  U71         0.3546
   1029  O2        36.9680   17.7320   48.7630 O.2    71  U71        -0.2443
   1030  N3        35.3670   17.9530   50.3590 N.ar   71  U71        -0.1530
   1031  C4        34.5570   18.6810   51.2100 C.ar   71  U71         0.2846
   1032  O4        33.7730   18.0940   51.9480 O.2    71  U71        -0.2650
   1033  C5        34.7290   20.1130   51.1300 C.ar   71  U71         0.0814
   1034  C6        35.6240   20.6250   50.2740 C.ar   71  U71         0.0870
   1035  OP1       40.9020   24.1460   48.1290 O.3    71  U71        -0.4373
   1036  OP2       40.3330   26.6330   47.9630 O.co2  71  U71        -0.5172
   1037  P         36.2900   23.0410   44.7390 P.3    72  U72         0.2141
   1038  C5'       35.3560   20.7730   43.7310 C.3    72  U72         0.1812
   1039  O5'       36.4790   21.6200   44.0040 O.3    72  U72        -0.3114
   1040  C4'       35.7780   19.3520   43.3770 C.3    72  U72         0.1773
   1041  O4'       36.3350   18.6760   44.5390 O.3    72  U72        -0.3307
   1042  C3'       34.6420   18.4480   42.9160 C.3    72  U72         0.1860
   1043  O3'       34.4600   18.5520   41.5210 O.3    72  U72        -0.3112
   1044  C2'       35.1560   17.0690   43.2970 C.3    72  U72         0.2309
   1045  O2'       36.1030   16.5630   42.3720 O.3    72  U72        -0.2156
   1046  C1'       35.8200   17.3570   44.6350 C.3    72  U72         0.2420
   1047  N1        34.8910   17.2390   45.8290 N.ar   72  U72        -0.2534
   1048  C2        34.4910   15.9910   46.2840 C.ar   72  U72         0.3546
   1049  O2        34.8330   14.9420   45.7760 O.2    72  U72        -0.2443
   1050  N3        33.6590   16.0060   47.3760 N.ar   72  U72        -0.1530
   1051  C4        33.1900   17.1160   48.0540 C.ar   72  U72         0.2846
   1052  O4        32.4460   16.9770   49.0220 O.2    72  U72        -0.2650
   1053  C5        33.6430   18.3760   47.5260 C.ar   72  U72         0.0814
   1054  C6        34.4570   18.3880   46.4660 C.ar   72  U72         0.0870
   1055  OP1       36.7610   24.1200   43.8380 O.2    72  U72        -0.5172
   1056  OP2       34.9240   23.1330   45.3150 O.co2  72  U72        -0.4373
   1057  P         32.9860   18.4740   40.9100 P.3    73  U73         0.2141
   1058  C5'       33.5340   15.9450   40.4430 C.3    73  U73         0.1812
   1059  O5'       32.6420   16.9100   40.9750 O.3    73  U73        -0.3114
   1060  C4'       33.2150   14.5620   40.9670 C.3    73  U73         0.1773
   1061  O4'       33.5380   14.4640   42.3720 O.3    73  U73        -0.3307
   1062  C3'       31.7510   14.1840   40.9200 C.3    73  U73         0.1860
   1063  O3'       31.4070   13.7910   39.6170 O.3    73  U73        -0.3112
   1064  C2'       31.7270   13.0220   41.9040 C.3    73  U73         0.2309
   1065  O2'       32.2700   11.8340   41.3660 O.3    73  U73        -0.2156
   1066  C1'       32.6400   13.5600   42.9990 C.3    73  U73         0.2420
   1067  N1        31.8870   14.2570   44.0980 N.ar   73  U73        -0.2534
   1068  C2        31.3040   13.5010   45.1090 C.ar   73  U73         0.3546
   1069  O2        31.3720   12.2900   45.1660 O.2    73  U73        -0.2443
   1070  N3        30.6330   14.2220   46.0680 N.ar   73  U73        -0.1530
   1071  C4        30.4850   15.5970   46.1140 C.ar   73  U73         0.2846
   1072  O4        29.8570   16.1060   47.0330 O.2    73  U73        -0.2650
   1073  C5        31.1120   16.3190   45.0310 C.ar   73  U73         0.0814
   1074  C6        31.7750   15.6400   44.0850 C.ar   73  U73         0.0870
   1075  OP1       33.0720   18.9050   39.5010 O.2    73  U73        -0.5172
   1076  OP2       32.0570   19.1700   41.8200 O.co2  73  U73        -0.4373
   1077  P         29.8990   13.9260   39.1220 P.3    74  G74         0.2141
   1078  C5'       28.8220   11.6180   39.7350 C.3    74  G74         0.1812
   1079  O5'       29.0990   12.9590   40.1230 O.3    74  G74        -0.3114
   1080  C4'       28.1790   10.8060   40.8470 C.3    74  G74         0.1773
   1081  O4'       28.8200   11.0560   42.1250 O.3    74  G74        -0.3307
   1082  C3'       26.7290   11.1220   41.1520 C.3    74  G74         0.1860
   1083  O3'       25.8560   10.6300   40.1570 O.3    74  G74        -0.3112
   1084  C2'       26.5790   10.3860   42.4800 C.3    74  G74         0.2309
   1085  O2'       26.4650    8.9790   42.3520 O.3    74  G74        -0.2156
   1086  C1'       27.8890   10.7720   43.1600 C.3    74  G74         0.2408
   1087  N1        25.9980   12.6160   47.4920 N.ar   74  G74        -0.1709
   1088  C2        26.0000   11.3260   47.0220 C.ar   74  G74         0.2606
   1089  N2        25.4300   10.4030   47.8050 N.pl3  74  G74        -0.0859
   1090  N3        26.5330   10.9600   45.8680 N.ar   74  G74        -0.1918
   1091  C4        27.0690   12.0110   45.2040 C.ar   74  G74         0.1723
   1092  C5        27.1130   13.3310   45.5850 C.ar   74  G74         0.1748
   1093  C6        26.5450   13.7070   46.8240 C.ar   74  G74         0.3023
   1094  O6        26.4850   14.8350   47.3290 O.2    74  G74        -0.2633
   1095  N7        27.7510   14.0980   44.6220 N.ar   74  G74        -0.2173
   1096  C8        28.0740   13.2430   43.6930 C.ar   74  G74         0.1817
   1097  N9        27.7010   11.9560   43.9840 N.ar   74  G74        -0.2693
   1098  OP1       29.8590   13.3950   37.7370 O.2    74  G74        -0.5172
   1099  OP2       29.4390   15.3060   39.3880 O.co2  74  G74        -0.4373
   1100  P         24.4290   11.3330   39.9590 P.3    75  G75         0.2141
   1101  C5'       23.3060    9.5470   41.5220 C.3    75  G75         0.1812
   1102  O5'       23.6380   10.9240   41.2930 O.3    75  G75        -0.3114
   1103  C4'       22.5200    9.3590   42.8050 C.3    75  G75         0.1773
   1104  O4'       23.3380    9.6850   43.9550 O.3    75  G75        -0.3307
   1105  C3'       21.3270   10.2780   42.9880 C.3    75  G75         0.1860
   1106  O3'       20.2390    9.8920   42.1670 O.3    75  G75        -0.3112
   1107  C2'       21.0670   10.0860   44.4790 C.3    75  G75         0.2309
   1108  O2'       20.4810    8.8400   44.8020 O.3    75  G75        -0.2156
   1109  C1'       22.4970   10.1460   45.0010 C.3    75  G75         0.2408
   1110  N1        22.0270   13.7700   48.5190 N.ar   75  G75        -0.1709
   1111  C2        21.4950   12.4980   48.4920 C.ar   75  G75         0.2606
   1112  N2        20.7310   12.1370   49.5360 N.pl3  75  G75        -0.0859
   1113  N3        21.6960   11.6390   47.5050 N.ar   75  G75        -0.1918
   1114  C4        22.4860   12.1580   46.5310 C.ar   75  G75         0.1723
   1115  C5        23.0610   13.4080   46.4630 C.ar   75  G75         0.1748
   1116  C6        22.8410   14.3200   47.5290 C.ar   75  G75         0.3023
   1117  O6        23.2700   15.4760   47.6560 O.2    75  G75        -0.2633
   1118  N7        23.7980   13.5470   45.2940 N.ar   75  G75        -0.2173
   1119  C8        23.6550   12.3990   44.6890 C.ar   75  G75         0.1817
   1120  N9        22.8750   11.5050   45.3840 N.ar   75  G75        -0.2693
   1121  OP1       23.7800   10.7030   38.7860 O.2    75  G75        -0.5172
   1122  OP2       24.6220   12.8010   39.9800 O.co2  75  G75        -0.4373
   1123  P         18.9700   10.8580   42.0310 P.3    76  A76         0.2141
   1124  C5'       16.9400   11.1230   43.6160 C.3    76  A76         0.1812
   1125  O5'       18.1020   10.4110   43.2910 O.3    76  A76        -0.3114
   1126  C4'       16.8450   11.3450   45.1090 C.3    76  A76         0.1773
   1127  O4'       18.1490   11.4500   45.7370 O.3    76  A76        -0.3307
   1128  C3'       16.2120   12.6570   45.5010 C.3    76  A76         0.1860
   1129  O3'       14.8380   12.6670   45.2070 O.3    76  A76        -0.3112
   1130  C2'       16.5430   12.6490   46.9820 C.3    76  A76         0.2309
   1131  O2'       15.8570   11.6430   47.7080 O.3    76  A76        -0.2156
   1132  C1'       18.0310   12.3240   46.8550 C.3    76  A76         0.2408
   1133  N1        19.4280   17.0380   48.5140 N.ar   76  A76        -0.2040
   1134  C2        18.5900   16.1250   49.0250 C.ar   76  A76         0.2016
   1135  N3        18.2720   14.9170   48.5480 N.ar   76  A76        -0.2048
   1136  C4        18.9160   14.6610   47.3930 C.ar   76  A76         0.1692
   1137  C5        19.8060   15.5040   46.7460 C.ar   76  A76         0.1518
   1138  C6        20.0650   16.7530   47.3550 C.ar   76  A76         0.1919
   1139  N6        20.8980   17.6600   46.8400 N.pl3  76  A76        -0.1054
   1140  N7        20.2790   14.9170   45.5860 N.ar   76  A76        -0.2193
   1141  C8        19.6770   13.7490   45.5550 C.ar   76  A76         0.1816
   1142  N9        18.8410   13.5210   46.6140 N.ar   76  A76        -0.2693
   1143  OP1       18.2450   10.4850   40.7960 O.2    76  A76        -0.5172
   1144  OP2       19.3880   12.2630   42.2510 O.co2  76  A76        -0.4373
   1145  P         14.3580   13.5660   43.9740 P.3    77  G77         0.2141
   1146  C5'       12.7790   14.7980   45.6570 C.3    77  G77         0.1812
   1147  O5'       13.8110   14.8870   44.6910 O.3    77  G77        -0.3114
   1148  C4'       13.1030   15.6360   46.8760 C.3    77  G77         0.1773
   1149  O4'       14.5000   15.5010   47.2430 O.3    77  G77        -0.3307
   1150  C3'       12.9660   17.1390   46.7090 C.3    77  G77         0.1860
   1151  O3'       11.6090   17.5720   46.6200 O.3    77  G77        -0.3112
   1152  C2'       13.6650   17.5780   47.9890 C.3    77  G77         0.2309
   1153  O2'       12.9560   17.2530   49.1710 O.3    77  G77        -0.2156
   1154  C1'       14.9180   16.7120   47.8700 C.3    77  G77         0.2408
   1155  N1        17.9290   20.8140   47.3880 N.ar   77  G77        -0.1709
   1156  C2        17.0080   20.5170   48.3670 C.ar   77  G77         0.2606
   1157  N2        16.8620   21.4270   49.3420 N.pl3  77  G77        -0.0859
   1158  N3        16.2800   19.4050   48.3890 N.ar   77  G77        -0.1918
   1159  C4        16.5460   18.5920   47.3310 C.ar   77  G77         0.1723
   1160  C5        17.4440   18.8010   46.3040 C.ar   77  G77         0.1748
   1161  C6        18.2160   19.9930   46.2980 C.ar   77  G77         0.3023
   1162  O6        19.0630   20.3510   45.4740 O.2    77  G77        -0.2633
   1163  N7        17.4260   17.7370   45.4100 N.ar   77  G77        -0.2173
   1164  C8        16.5330   16.9220   45.9030 C.ar   77  G77         0.1817
   1165  N9        15.9570   17.3710   47.0710 N.ar   77  G77        -0.2693
   1166  OP1       13.2520   12.8560   43.2880 O.3    77  G77        -0.4373
   1167  OP2       15.5560   13.9700   43.2090 O.co2  77  G77        -0.5172
   1168  P         11.1880   18.6900   45.5410 P.3    78  A78         0.2141
   1169  C5'       11.1040   20.3370   47.5830 C.3    78  A78         0.1812
   1170  O5'       11.5610   20.0750   46.2610 O.3    78  A78        -0.3114
   1171  C4'       11.7190   21.5990   48.1530 C.3    78  A78         0.1773
   1172  O4'       13.1490   21.4260   48.3450 O.3    78  A78        -0.3307
   1173  C3'       11.6300   22.8310   47.2710 C.3    78  A78         0.1860
   1174  O3'       10.3240   23.4120   47.2900 O.3    78  A78        -0.3112
   1175  C2'       12.6960   23.7040   47.9320 C.3    78  A78         0.2309
   1176  O2'       12.2800   24.2720   49.1630 O.3    78  A78        -0.2156
   1177  C1'       13.8050   22.6710   48.1420 C.3    78  A78         0.2408
   1178  N1        17.7590   24.7290   45.4980 N.ar   78  A78        -0.2040
   1179  C2        17.1590   25.1000   46.6350 C.ar   78  A78         0.2016
   1180  N3        16.1390   24.5200   47.2730 N.ar   78  A78        -0.2048
   1181  C4        15.7100   23.4260   46.6150 C.ar   78  A78         0.1692
   1182  C5        16.2260   22.9240   45.4370 C.ar   78  A78         0.1518
   1183  C6        17.3100   23.6270   44.8580 C.ar   78  A78         0.1919
   1184  N6        17.9060   23.2560   43.7130 N.pl3  78  A78        -0.1054
   1185  N7        15.5400   21.7870   45.0520 N.ar   78  A78        -0.2193
   1186  C8        14.6420   21.6240   45.9870 C.ar   78  A78         0.1816
   1187  N9        14.6880   22.5700   46.9740 N.ar   78  A78        -0.2693
   1188  OP1        9.7190   18.5950   45.3520 O.3    78  A78        -0.4373
   1189  OP2       12.0740   18.5720   44.3620 O.co2  78  A78        -0.5172
   1190  P          9.7960   24.2410   46.0190 P.3    79  C79         0.2141
   1191  C5'       10.8350   26.4970   46.8510 C.3    79  C79         0.1812
   1192  O5'       10.8660   25.4230   45.9240 O.3    79  C79        -0.3114
   1193  C4'       11.7940   27.5990   46.4360 C.3    79  C79         0.1773
   1194  O4'       13.1520   27.0840   46.3840 O.3    79  C79        -0.3307
   1195  C3'       11.5620   28.1680   45.0470 C.3    79  C79         0.1860
   1196  O3'       10.5200   29.1250   45.0580 O.3    79  C79        -0.3112
   1197  C2'       12.9330   28.7640   44.7400 C.3    79  C79         0.2309
   1198  O2'       13.1770   30.0030   45.3740 O.3    79  C79        -0.2156
   1199  C1'       13.8580   27.6920   45.3150 C.3    79  C79         0.2420
   1200  N1        14.2480   26.6510   44.2990 N.ar   79  C79        -0.2535
   1201  C2        15.1920   26.9690   43.2950 C.ar   79  C79         0.3532
   1202  O2        15.7010   28.0970   43.2680 O.2    79  C79        -0.2443
   1203  N3        15.5250   26.0190   42.3810 N.ar   79  C79        -0.1739
   1204  C4        14.9630   24.8080   42.4420 C.ar   79  C79         0.1759
   1205  N4        15.3160   23.9120   41.5230 N.pl3  79  C79        -0.1070
   1206  C5        14.0020   24.4660   43.4490 C.ar   79  C79         0.0566
   1207  C6        13.6790   25.4040   44.3460 C.ar   79  C79         0.0850
   1208  OP1        8.4730   24.8150   46.3440 O.3    79  C79        -0.4373
   1209  OP2        9.9220   23.3930   44.8150 O.co2  79  C79        -0.5172
   1210  P          9.4970   29.1770   43.8270 P.3    80  U80         0.2141
   1211  C5'       10.8020   31.0800   42.6750 C.3    80  U80         0.1812
   1212  O5'       10.4130   29.7320   42.6530 O.3    80  U80        -0.3114
   1213  C4'       11.7720   31.3220   41.5540 C.3    80  U80         0.1773
   1214  O4'       12.9050   30.4270   41.7030 O.3    80  U80        -0.3307
   1215  C3'       11.2480   30.9760   40.1740 C.3    80  U80         0.1860
   1216  O3'       10.3830   31.9930   39.6970 O.3    80  U80        -0.3112
   1217  C2'       12.5730   30.9140   39.4290 C.3    80  U80         0.2309
   1218  O2'       13.1680   32.1890   39.2980 O.3    80  U80        -0.2156
   1219  C1'       13.3900   30.0820   40.4120 C.3    80  U80         0.2420
   1220  N1        13.2870   28.5940   40.2280 N.ar   80  U80        -0.2534
   1221  C2        13.9430   27.9660   39.1710 C.ar   80  U80         0.3546
   1222  O2        14.6170   28.5540   38.3350 O.2    80  U80        -0.2443
   1223  N3        13.7740   26.5990   39.1220 N.ar   80  U80        -0.1530
   1224  C4        13.0390   25.8190   40.0040 C.ar   80  U80         0.2846
   1225  O4        12.9730   24.6050   39.8470 O.2    80  U80        -0.2650
   1226  C5        12.3980   26.5450   41.0660 C.ar   80  U80         0.0814
   1227  C6        12.5470   27.8680   41.1380 C.ar   80  U80         0.0870
   1228  OP1        8.4650   30.1920   44.1420 O.3    80  U80        -0.4373
   1229  OP2        9.0920   27.8050   43.4420 O.co2  80  U80        -0.5172
   1230  P          9.2660   31.6650   38.5950 P.3    81  A81         0.2141
   1231  C5'       10.8730   32.5390   36.7060 C.3    81  A81         0.1812
   1232  O5'       10.1430   31.4500   37.2840 O.3    81  A81        -0.3114
   1233  C4'       11.6070   32.0470   35.4780 C.3    81  A81         0.1773
   1234  O4'       12.5870   31.0490   35.8780 O.3    81  A81        -0.3307
   1235  C3'       10.7290   31.3160   34.4780 C.3    81  A81         0.1860
   1236  O3'       10.1030   32.2390   33.6080 O.3    81  A81        -0.3112
   1237  C2'       11.7490   30.4380   33.7620 C.3    81  A81         0.2309
   1238  O2'       12.5160   31.1580   32.8100 O.3    81  A81        -0.2156
   1239  C1'       12.6420   30.0110   34.9170 C.3    81  A81         0.2408
   1240  N1        13.1260   24.8720   35.0050 N.ar   81  A81        -0.2040
   1241  C2        13.6140   25.7950   34.1610 C.ar   81  A81         0.2016
   1242  N3        13.4510   27.1180   34.1890 N.ar   81  A81        -0.2048
   1243  C4        12.6760   27.4870   35.2280 C.ar   81  A81         0.1692
   1244  C5        12.1030   26.6500   36.1730 C.ar   81  A81         0.1518
   1245  C6        12.3510   25.2730   36.0410 C.ar   81  A81         0.1919
   1246  N6        11.8550   24.3610   36.8830 N.pl3  81  A81        -0.1054
   1247  N7        11.3670   27.3700   37.0900 N.ar   81  A81        -0.2193
   1248  C8        11.5120   28.6140   36.6960 C.ar   81  A81         0.1816
   1249  N9        12.2790   28.7600   35.5740 N.ar   81  A81        -0.2693
   1250  OP1        8.4410   32.8840   38.4070 O.2    81  A81        -0.5172
   1251  OP2        8.6170   30.3710   38.9320 O.co2  81  A81        -0.4373
   1252  P          8.8690   31.7630   32.7030 P.3    82  U82         0.2141
   1253  C5'       10.1380   30.8800   30.5530 C.3    82  U82         0.1812
   1254  O5'        9.5160   30.6090   31.8020 O.3    82  U82        -0.3114
   1255  C4'       10.4990   29.5700   29.8770 C.3    82  U82         0.1773
   1256  O4'       11.2460   28.7370   30.8000 O.3    82  U82        -0.3307
   1257  C3'        9.3140   28.7000   29.4790 C.3    82  U82         0.1860
   1258  O3'        8.7290   29.1470   28.2460 O.3    82  U82        -0.3112
   1259  C2'        9.9870   27.3360   29.3590 C.3    82  U82         0.2309
   1260  O2'       10.6660   27.1490   28.1270 O.3    82  U82        -0.2156
   1261  C1'       10.9840   27.3720   30.5160 C.3    82  U82         0.2420
   1262  N1        10.4810   26.6760   31.7460 N.ar   82  U82        -0.2534
   1263  C2        10.4440   25.2930   31.7820 C.ar   82  U82         0.3546
   1264  O2        10.8020   24.5870   30.8610 O.2    82  U82        -0.2443
   1265  N3         9.9680   24.7530   32.9520 N.ar   82  U82        -0.1530
   1266  C4         9.5280   25.4410   34.0680 C.ar   82  U82         0.2846
   1267  O4         9.1230   24.8190   35.0450 O.2    82  U82        -0.2650
   1268  C5         9.5920   26.8750   33.9610 C.ar   82  U82         0.0814
   1269  C6        10.0540   27.4230   32.8320 C.ar   82  U82         0.0870
   1270  OP1        8.4490   32.9010   31.8560 O.2    82  U82        -0.5172
   1271  OP2        7.8820   31.0980   33.5820 O.co2  82  U82        -0.4373
   1272  P          7.1900   28.8370   27.8870 P.3    83  A83         0.2141
   1273  C5'        7.8240   26.6080   26.5940 C.3    83  A83         0.1812
   1274  O5'        7.1720   27.2350   27.7090 O.3    83  A83        -0.3114
   1275  C4'        7.8090   25.0900   26.6880 C.3    83  A83         0.1773
   1276  O4'        8.5560   24.6170   27.8380 O.3    83  A83        -0.3307
   1277  C3'        6.4360   24.4670   26.8460 C.3    83  A83         0.1860
   1278  O3'        5.8180   24.3840   25.5680 O.3    83  A83        -0.3112
   1279  C2'        6.7810   23.0970   27.4340 C.3    83  A83         0.2309
   1280  O2'        7.1540   22.1370   26.4620 O.3    83  A83        -0.2156
   1281  C1'        7.9670   23.4240   28.3370 C.3    83  A83         0.2408
   1282  N1         6.8650   21.2920   32.9320 N.ar   83  A83        -0.2040
   1283  C2         7.2280   20.7500   31.7590 C.ar   83  A83         0.2016
   1284  N3         7.5070   21.3600   30.6000 N.ar   83  A83        -0.2048
   1285  C4         7.3730   22.6910   30.7060 C.ar   83  A83         0.1692
   1286  C5         7.0010   23.3920   31.8420 C.ar   83  A83         0.1518
   1287  C6         6.7390   22.6380   33.0110 C.ar   83  A83         0.1919
   1288  N6         6.3750   23.1860   34.1770 N.pl3  83  A83        -0.1054
   1289  N7         6.9650   24.7500   31.5850 N.ar   83  A83        -0.2193
   1290  C8         7.3070   24.8410   30.3210 C.ar   83  A83         0.1816
   1291  N9         7.5710   23.6390   29.7270 N.ar   83  A83        -0.2693
   1292  OP1        6.8920   29.4740   26.5840 O.2    83  A83        -0.5172
   1293  OP2        6.3540   29.1810   29.0590 O.co2  83  A83        -0.4373
   1294  P          4.2280   24.2530   25.4440 P.3    84  A84         0.2141
   1295  C5'        3.8210   21.6360   25.2320 C.3    84  A84         0.1812
   1296  O5'        3.9570   22.7910   26.0550 O.3    84  A84        -0.3114
   1297  C4'        3.7430   20.3680   26.0750 C.3    84  A84         0.1773
   1298  O4'        4.6960   20.4370   27.1710 O.3    84  A84        -0.3307
   1299  C3'        2.4190   20.1090   26.7840 C.3    84  A84         0.1860
   1300  O3'        1.4310   19.5650   25.9130 O.3    84  A84        -0.3112
   1301  C2'        2.8520   19.1340   27.8750 C.3    84  A84         0.2309
   1302  O2'        3.1010   17.8240   27.4040 O.3    84  A84        -0.2156
   1303  C1'        4.1620   19.7820   28.3160 C.3    84  A84         0.2408
   1304  N1         3.5190   20.4570   33.4000 N.ar   84  A84        -0.2040
   1305  C2         3.6810   19.3520   32.6620 C.ar   84  A84         0.2016
   1306  N3         3.8470   19.2470   31.3400 N.ar   84  A84        -0.2048
   1307  C4         3.8330   20.4580   30.7490 C.ar   84  A84         0.1692
   1308  C5         3.6730   21.6800   31.3780 C.ar   84  A84         0.1518
   1309  C6         3.5070   21.6570   32.7810 C.ar   84  A84         0.1919
   1310  N6         3.3470   22.7580   33.5200 N.pl3  84  A84        -0.1054
   1311  N7         3.7100   22.7120   30.4550 N.ar   84  A84        -0.2193
   1312  C8         3.8870   22.1040   29.3070 C.ar   84  A84         0.1816
   1313  N9         3.9770   20.7440   29.4070 N.ar   84  A84        -0.2693
   1314  OP1        3.8840   24.2740   24.0060 O.2    84  A84        -0.5172
   1315  OP2        3.6100   25.2560   26.3460 O.co2  84  A84        -0.4373
   1316  P         -0.0730   20.1130   26.0100 P.3    85  G85         0.2141
   1317  C5'       -0.8820   18.0090   27.3440 C.3    85  G85         0.1812
   1318  O5'       -0.6120   19.4010   27.3360 O.3    85  G85        -0.3114
   1319  C4'       -1.0120   17.4980   28.7650 C.3    85  G85         0.1773
   1320  O4'        0.1340   17.9320   29.5360 O.3    85  G85        -0.3307
   1321  C3'       -2.2090   18.0330   29.5350 C.3    85  G85         0.1860
   1322  O3'       -3.3660   17.2640   29.2620 O.3    85  G85        -0.3112
   1323  C2'       -1.7420   17.8910   30.9800 C.3    85  G85         0.2309
   1324  O2'       -1.8610   16.5850   31.5120 O.3    85  G85        -0.2156
   1325  C1'       -0.2770   18.2810   30.8470 C.3    85  G85         0.2408
   1326  N1        -0.0380   22.0230   34.2620 N.ar   85  G85        -0.1709
   1327  C2        -0.2570   20.6740   34.4510 C.ar   85  G85         0.2606
   1328  N2        -0.4330   20.2600   35.7130 N.pl3  85  G85        -0.0859
   1329  N3        -0.2970   19.7890   33.4660 N.ar   85  G85        -0.1918
   1330  C4        -0.0970   20.3640   32.2570 C.ar   85  G85         0.1723
   1331  C5         0.1260   21.6890   31.9620 C.ar   85  G85         0.1748
   1332  C6         0.1640   22.6300   33.0190 C.ar   85  G85         0.3023
   1333  O6         0.3450   23.8570   32.9390 O.2    85  G85        -0.2633
   1334  N7         0.2720   21.8760   30.5940 N.ar   85  G85        -0.2173
   1335  C8         0.1420   20.6760   30.1000 C.ar   85  G85         0.1817
   1336  N9        -0.0790   19.7100   31.0530 N.ar   85  G85        -0.2693
   1337  OP1       -0.8410   19.6130   24.8510 O.2    85  G85        -0.5172
   1338  OP2       -0.0180   21.5710   26.2570 O.co2  85  G85        -0.4373
   1339  P         -4.7610   17.9970   28.9930 P.3    86  U86         0.2141
   1340  C5'       -5.6730   17.4860   31.4200 C.3    86  U86         0.1813
   1341  O5'       -5.2030   18.4460   30.4700 O.3    86  U86        -0.3114
   1342  C4'       -5.4230   17.9390   32.8490 C.3    86  U86         0.1801
   1343  O4'       -4.1100   18.5350   32.9510 O.3    86  U86        -0.3306
   1344  C3'       -6.3860   18.9940   33.3800 C.3    86  U86         0.2161
   1345  O3'       -7.5170   18.3790   33.9890 O.3    86  U86        -0.2175
   1346  C2'       -5.5520   19.7440   34.4150 C.3    86  U86         0.2338
   1347  O2'       -5.6400   19.2040   35.7240 O.3    86  U86        -0.2155
   1348  C1'       -4.1310   19.6180   33.8620 C.3    86  U86         0.2421
   1349  N1        -3.6620   20.8630   33.1670 N.ar   86  U86        -0.2534
   1350  C2        -3.4080   22.0050   33.9130 C.ar   86  U86         0.3546
   1351  O2        -3.5410   22.0650   35.1210 O.2    86  U86        -0.2443
   1352  N3        -2.9830   23.0900   33.1860 N.ar   86  U86        -0.1530
   1353  C4        -2.7980   23.1550   31.8170 C.ar   86  U86         0.2846
   1354  O4        -2.4120   24.2030   31.3110 O.2    86  U86        -0.2650
   1355  C5        -3.0840   21.9340   31.1060 C.ar   86  U86         0.0814
   1356  C6        -3.4980   20.8610   31.7920 C.ar   86  U86         0.0870
   1357  OP1       -5.7080   16.9780   28.4780 O.3    86  U86        -0.4373
   1358  OP2       -4.4970   19.2240   28.2020 O.co2  86  U86        -0.5172
@<TRIPOS>BOND
     1  1314  1294    2
     2   655   656   ar
     3   655   654   ar
     4   674   673    1
     5   656   657   ar
     6   654   659   ar
     7  1337  1316    2
     8  1295  1296    1
     9  1295  1297    1
    10   678   677    2
    11  1294  1278    1
    12  1294  1296    1
    13  1294  1315    1
    14   675   670    1
    15   675   673    1
    16   675   676    1
    17   670   669    1
    18   652   651    1
    19  1278  1277    1
    20   657   658   ar
    21   657   663   ar
    22   659   660    1
    23   659   658   ar
    24   673   671    1
    25   669   671    1
    26   669   667    1
    27  1300  1316    1
    28  1300  1299    1
    29  1316  1338    1
    30  1316  1318    1
    31   653   663    1
    32   653   651    1
    33   653   648    1
    34  1297  1299    1
    35  1297  1298    1
    36   658   661   ar
    37   672   671    1
    38   672   686    1
    39   677   676   ar
    40   677   679   ar
    41   663   662   ar
    42   676   683   ar
    43   651   649    1
    44  1280  1279    1
    45  1292  1272    2
    46  1273  1275    1
    47  1273  1274    1
    48  1275  1277    1
    49  1275  1276    1
    50  1299  1301    1
    51   648   647    1
    52  1277  1279    1
    53   667   668    1
    54   679   680   ar
    55  1298  1303    1
    56   705   686    2
    57   662   661   ar
    58   704   686    1
    59  1318  1317    1
    60  1317  1319    1
    61   686   688    1
    62  1302  1301    1
    63  1279  1281    1
    64   683   682   ar
    65   647   649    1
    66   647   645    1
    67  1274  1272    1
    68  1276  1281    1
    69   649   650    1
    70  1301  1303    1
    71  1272  1258    1
    72  1272  1293    1
    73   668   666    1
    74   680   682   ar
    75   680   681    1
    76  1260  1259    1
    77  1358  1339    2
    78  1258  1257    1
    79   650   666    1
    80  1303  1313    1
    81  1281  1291    1
    82   702   703   ar
    83   702   700   ar
    84   701   700    1
    85  1357  1339    1
    86   688   687    1
    87  1319  1321    1
    88  1319  1320    1
    89   642   621    2
    90   645   646    1
    91  1339  1322    1
    92  1339  1341    1
    93   703   696   ar
    94   700   699   ar
    95   666   684    2
    96   666   685    1
    97  1322  1321    1
    98  1312  1313   ar
    99  1312  1311   ar
   100  1259  1257    1
   101  1259  1261    1
   102   665   644    2
   103  1313  1307   ar
   104  1257  1255    1
   105  1321  1323    1
   106  1320  1325    1
   107   646   644    1
   108  1291  1290   ar
   109  1291  1285   ar
   110  1255  1253    1
   111  1255  1256    1
   112   687   689    1
   113  1335  1334   ar
   114  1335  1336   ar
   115  1290  1289   ar
   116   621   607    1
   117   621   623    1
   118   621   643    1
   119   644   627    1
   120   644   664    1
   121   699   697   ar
   122   696   697   ar
   123   696   695    1
   124  1311  1308   ar
   125  1341  1340    1
   126  1261  1256    1
   127  1261  1262    1
   128  1253  1254    1
   129  1334  1331   ar
   130  1284  1285   ar
   131  1284  1283   ar
   132   114   113    1
   133   627   626    1
   134   607   606    1
   135  1285  1286   ar
   136  1307  1306   ar
   137  1307  1308   ar
   138   622   623    1
   139   622   624    1
   140   693   695    1
   141   693   691    1
   142   693   694    1
   143  1325  1323    1
   144  1325  1336    1
   145  1264  1263    2
   146   690   689    1
   147   690   695    1
   148  1323  1324    1
   149  1336  1330   ar
   150  1355  1356   ar
   151  1355  1353   ar
   152   697   698    2
   153   689   691    1
   154  1354  1353    2
   155  1306  1305   ar
   156    92    91    1
   157   691   692    1
   158  1308  1309   ar
   159  1340  1342    1
   160   109   110    1
   161   109   107    1
   162   109   111    1
   163  1289  1286   ar
   164   624   626    1
   165   624   625    1
   166  1262  1263   ar
   167  1262  1269   ar
   168  1283  1282   ar
   169   626   628    1
   170   110   115    1
   171   112   111    1
   172   112   126    1
   173   619   601    2
   174  1263  1265   ar
   175  1356  1349   ar
   176   609   608    1
   177  1254  1252    1
   178  1353  1352   ar
   179   602   604    1
   180   602   603    1
   181  1286  1287   ar
   182  1270  1252    2
   183   113   115    1
   184   113   111    1
   185  1331  1330   ar
   186  1331  1332   ar
   187   604   606    1
   188   604   605    1
   189   606   608    1
   190   146   126    2
   191   107   108    1
   192   127   129    1
   193   127   128    1
   194   115   116    1
   195  1330  1329   ar
   196   724   706    2
   197   129   130    1
   198   129   131    1
   199   130   135    1
   200    96    95   ar
   201    96    97   ar
   202  1305  1304   ar
   203   608   610    1
   204    95    94   ar
   205    91    93    1
   206    91    89    1
   207  1252  1271    1
   208  1252  1236    1
   209   166   148    2
   210   692   706    1
   211   126   128    1
   212   126   147    1
   213  1309  1304   ar
   214  1309  1310    1
   215  1238  1237    1
   216   629   628    1
   217  1269  1268   ar
   218  1342  1343    1
   219  1342  1344    1
   220   603   601    1
   221  1282  1287   ar
   222    93    88    1
   223    93   103    1
   224  1333  1332    2
   225  1343  1348    1
   226  1265  1266   ar
   227   625   630    1
   228  1287  1288    1
   229  1332  1326   ar
   230   628   630    1
   231   601   587    1
   232   601   620    1
   233  1349  1348    1
   234  1349  1350   ar
   235  1352  1350   ar
   236   118   117    2
   237   605   610    1
   238   134   133    1
   239  1344  1345    1
   240  1344  1346    1
   241   706   725    1
   242   706   708    1
   243    90    89    1
   244    90   106    1
   245    88    87    1
   246  1329  1327   ar
   247   108   106    1
   248   135   133    1
   249   135   145    1
   250   116   117   ar
   251   116   123   ar
   252   587   586    1
   253  1236  1235    1
   254   132   131    1
   255   132   148    1
   256    87    89    1
   257    87    85    1
   258    97   103   ar
   259    97    98   ar
   260   131   133    1
   261  1237  1235    1
   262  1237  1239    1
   263   610   611    1
   264    94    99   ar
   265   589   588    1
   266    76    75    2
   267   148   167    1
   268   148   150    1
   269  1348  1346    1
   270   630   641    1
   271   103   102   ar
   272   124   106    2
   273  1350  1351    2
   274   117   119   ar
   275  1268  1266   ar
   276   707   708    1
   277   707   709    1
   278   640   641   ar
   279   640   639   ar
   280  1266  1267    2
   281   244   243    1
   282  1241  1242   ar
   283  1241  1240   ar
   284  1242  1243   ar
   285   106   125    1
   286  1326  1327   ar
   287   710   709    1
   288   710   715    1
   289  1346  1347    1
   290   123   122   ar
   291  1327  1328    1
   292  1235  1233    1
   293   641   635   ar
   294   145   144   ar
   295   145   139   ar
   296    72    71    1
   297   225   224    1
   298   588   586    1
   299   588   590    1
   300   709   711    1
   301   586   584    1
   302    85    86    1
   303    98    99   ar
   304    98   101   ar
   305    18    17    2
   306   639   636   ar
   307  1239  1249    1
   308  1239  1234    1
   309    99   100    1
   310    75    77   ar
   311    75    74   ar
   312   144   143   ar
   313  1240  1245   ar
   314   611   618   ar
   315   611   612   ar
   316   184   183    1
   317   150   149    1
   318   119   120   ar
   319   102   101   ar
   320  1243  1249   ar
   321  1243  1244   ar
   322    77    78   ar
   323   723   722   ar
   324   723   716   ar
   325   267   266    1
   326   262   263    1
   327   262   260    1
   328   262   264    1
   329   618   617   ar
   330   263   268    1
   331   260   261    1
   332   139   138   ar
   333   139   140   ar
   334  1233  1234    1
   335  1233  1231    1
   336   243   245    1
   337   243   241    1
   338   138   137   ar
   339   715   716    1
   340   715   713    1
   341   722   720   ar
   342   584   582    1
   343   584   585    1
   344   245   240    1
   345   245   256    1
   346  1249  1248   ar
   347    71    73    1
   348    71    69    1
   349   122   120   ar
   350   613   612    2
   351   240   239    1
   352   248   247    1
   353    56    55    2
   354    73    74    1
   355    73    68    1
   356   612   614   ar
   357   635   636   ar
   358   635   634   ar
   359   716   717   ar
   360   143   140   ar
   361   164   165   ar
   362   164   162   ar
   363   239   241    1
   364   239   237    1
   365    39    38    1
   366    86    84    1
   367   249   247   ar
   368   249   250   ar
   369   224   226   ar
   370   224   223   ar
   371    57    55   ar
   372    57    58   ar
   373  1245  1244   ar
   374  1245  1246    1
   375    74    81   ar
   376    17    11   ar
   377    17    16   ar
   378   636   637   ar
   379   268   266    1
   380   268   269    1
   381   242   241    1
   382   242   259    1
   383   120   121    2
   384   149   151    1
   385    59    58    2
   386   590   585    1
   387   590   591    1
   388  1244  1247   ar
   389   582   583    1
   390   711   713    1
   391   711   712    1
   392   265   264    1
   393   265   279    1
   394   140   141   ar
   395   165   158   ar
   396   266   264    1
   397   593   592    2
   398   617   615   ar
   399   137   136   ar
   400    78    79    2
   401    78    80   ar
   402   183   182   ar
   403   183   178   ar
   404   247   246   ar
   405    55    54   ar
   406   226   227   ar
   407    11    12   ar
   408   720   721    1
   409   720   719   ar
   410   277   259    2
   411   713   714    1
   412   163   162    1
   413   185   182   ar
   414   185   186   ar
   415   261   259    1
   416   256   250   ar
   417   256   255   ar
   418  1248  1247   ar
   419  1231  1232    1
   420   223   229   ar
   421    58    60   ar
   422   634   632   ar
   423   712   726    1
   424    19    16   ar
   425    19    20   ar
   426   250   251   ar
   427   717   719   ar
   428   717   718    2
   429    37    38   ar
   430    37    35   ar
   431    16    15   ar
   432   162   161   ar
   433    68    67    1
   434   614   615   ar
   435   237   238    1
   436   259   278    1
   437    69    70    1
   438    69    67    1
   439   221   220    1
   440   299   279    2
   441    38    40   ar
   442    70    84    1
   443   591   592   ar
   444   591   598   ar
   445   592   594   ar
   446   182   181   ar
   447   155   156    1
   448   155   153    1
   449   155   157    1
   450   178   179   ar
   451   583   581    1
   452  1232  1230    1
   453   141   136   ar
   454   141   142    1
   455    81    80   ar
   456   269   276   ar
   457   269   270   ar
   458   637   638    2
   459   637   631   ar
   460   280   282    1
   461   280   281    1
   462   615   616    2
   463    84   104    2
   464    84   105    1
   465   271   270    2
   466   151   153    1
   467   151   152    1
   468   279   281    1
   469   279   300    1
   470    67    65    1
   471   158   157    1
   472   158   159   ar
   473   153   154    1
   474   246   252   ar
   475  1098  1077    2
   476   599   581    2
   477   186   187   ar
   478   255   254   ar
   479   152   157    1
   480    54    53    1
   481    54    61   ar
   482    12    13    1
   483    12    14   ar
   484   276   275   ar
   485   227   228   ar
   486   227   233   ar
   487   283   282    1
   488   283   288    1
   489   270   272   ar
   490    36    35    2
   491   282   284    1
   492   632   631   ar
   493   632   633    1
   494   220   222    1
   495   220   218    1
   496   598   597   ar
   497    20    21   ar
   498   594   595   ar
   499    35    34   ar
   500   229   230    2
   501   229   228   ar
   502   251   252   ar
   503   251   254   ar
   504    60    61   ar
   505   745   726    2
   506   741   740    1
   507   726   744    1
   508   726   728    1
   509    15    14   ar
   510    15    21   ar
   511   161   159   ar
   512  1222  1221    2
   513    40    41   ar
   514   581   565    1
   515   581   600    1
   516   238   236    1
   517   763   762    2
   518   222   233    1
   519   222   217    1
   520  1250  1230    2
   521    53    51    1
   522    53    48    1
   523   742   740   ar
   524   742   743   ar
   525   181   187   ar
   526   181   180   ar
   527   179   180   ar
   528   252   253    2
   529  1230  1251    1
   530  1230  1216    1
   531   159   160    2
   532    23     1    1
   533   228   231   ar
   534    51    52    1
   535    51    49    1
   536   233   232   ar
   537  1121  1100    2
   538   740   739   ar
   539   595   597   ar
   540   595   596    1
   541   188   168    2
   542    21    10    1
   543   187   177    1
   544   275   273   ar
   545   154   168    1
   546   288   286    1
   547   288   298    1
   548   272   273   ar
   549    65    66    1
   550   567   566    1
   551  1077  1099    1
   552  1077  1063    1
   553  1077  1079    1
   554  1223  1221   ar
   555  1223  1224   ar
   556   565   564    1
   557  1221  1220   ar
   558   743   736   ar
   559   219   218    1
   560   219   236    1
   561   728   727    1
   562   287   286    1
   563   762   756   ar
   564   762   761   ar
   565  1218  1217    1
   566    34    41   ar
   567    34    33    1
   568   218   216    1
   569  1217  1215    1
   570  1217  1219    1
   571   284   285    1
   572   284   286    1
   573  1075  1057    2
   574   217   216    1
   575   756   757   ar
   576   285   301    1
   577  1063  1062    1
   578   236   257    2
   579   236   258    1
   580    66    64    1
   581   273   274    2
   582   570   571   ar
   583   570   569   ar
   584  1216  1215    1
   585   566   564    1
   586   566   568    1
   587  1078  1079    1
   588  1078  1080    1
   589   739   737   ar
   590    48    47    1
   591     1     3    1
   592     1    22    1
   593   168   170    1
   594   168   189    1
   595   297   298   ar
   596   297   296   ar
   597  1225  1224    2
   598   298   292   ar
   599    49    50    1
   600    49    47    1
   601   232   231   ar
   602   571   572   ar
   603  1100  1122    1
   604  1100  1083    1
   605  1100  1102    1
   606   216   214    1
   607  1224  1226   ar
   608   564   562    1
   609  1083  1082    1
   610   761   764   ar
   611   761   760   ar
   612  1215  1213    1
   613   736   737   ar
   614   736   735    1
   615   569   574   ar
   616   764   765   ar
   617  1220  1219    1
   618  1220  1227   ar
   619     3     2    1
   620   177   172    1
   621   177   175    1
   622    10     5    1
   623    10     8    1
   624   202   201    1
   625   170   169    1
   626   172   171    1
   627   730   735    1
   628   730   729    1
   629  1219  1214    1
   630  1058  1060    1
   631  1058  1059    1
   632   737   738    2
   633     5     4    1
   634    33    31    1
   635    33    28    1
   636   757   758    1
   637   757   759   ar
   638   727   729    1
   639    50    64    1
   640   296   293   ar
   641    47    45    1
   642  1143  1123    2
   643  1080  1082    1
   644  1080  1081    1
   645   572   578   ar
   646   572   573   ar
   647   784   783    1
   648   322   301    2
   649  1057  1059    1
   650  1057  1043    1
   651  1057  1076    1
   652  1062  1060    1
   653  1062  1064    1
   654   735   733    1
   655   292   291   ar
   656   292   293   ar
   657  1060  1061    1
   658   301   323    1
   659   301   303    1
   660   782   783   ar
   661   782   780   ar
   662    64    83    2
   663    64    82    1
   664  1226  1227   ar
   665   568   578    1
   666   568   563    1
   667   574   573   ar
   668   574   575    1
   669   760   759   ar
   670   760   766   ar
   671   781   780    2
   672   169   171    1
   673  1082  1084    1
   674    31    32    1
   675    31    29    1
   676   765   766   ar
   677     8     6    1
   678     8     9    1
   679  1102  1101    1
   680   729   731    1
   681   291   290   ar
   682  1065  1064    1
   683   578   577   ar
   684   562   563    1
   685   562   560    1
   686   293   294   ar
   687   175   173    1
   688   175   176    1
   689   573   576   ar
   690   214   215    1
   691     2     4    1
   692    45    46    1
   693    28    27    1
   694  1043  1042    1
   695  1101  1103    1
   696  1205  1204    1
   697   171   173    1
   698  1213  1214    1
   699  1213  1211    1
   700   201   203   ar
   701   201   200   ar
   702   783   785   ar
   703     4     6    1
   704   780   779   ar
   705     6     7    1
   706   766   755    1
   707  1064  1066    1
   708  1123  1106    1
   709  1123  1144    1
   710  1123  1125    1
   711   303   302    1
   712   215   213    1
   713    43    24    2
   714   203   204   ar
   715   173   174    1
   716  1081  1086    1
   717  1106  1105    1
   718   577   576   ar
   719   200   206   ar
   720    29    27    1
   721    29    30    1
   722   560   561    1
   723  1085  1084    1
   724   290   289   ar
   725   731   733    1
   726   731   732    1
   727  1061  1066    1
   728  1045  1044    1
   729  1203  1204   ar
   730  1203  1201   ar
   731   733   734    1
   732  1204  1206   ar
   733  1084  1086    1
   734   294   289   ar
   735   294   295    1
   736    46    44    1
   737  1212  1211    1
   738  1212  1210    1
   739    27    25    1
   740   302   304    1
   741  1103  1105    1
   742  1103  1104    1
   743   305   304    1
   744   305   310    1
   745    63    44    2
   746    26    24    1
   747    26    25    1
   748   785   786   ar
   749   561   559    1
   750  1042  1044    1
   751  1042  1040    1
   752   779   786   ar
   753   779   778    1
   754   755   750    1
   755   755   753    1
   756     7    24    1
   757  1105  1107    1
   758  1066  1067    1
   759    24    42    1
   760   768   746    2
   761  1086  1097    1
   762  1167  1145    2
   763  1202  1201    2
   764   196   213    1
   765   196   195    1
   766  1166  1145    1
   767  1125  1124    1
   768  1201  1200   ar
   769  1044  1046    1
   770   304   306    1
   771   204   210   ar
   772   204   205   ar
   773  1040  1038    1
   774  1040  1041    1
   775   750   749    1
   776    30    44    1
   777  1229  1210    2
   778  1206  1207   ar
   779    44    62    1
   780   174   190    1
   781   213   234    2
   782   213   235    1
   783   732   746    1
   784  1124  1126    1
   785   778   773    1
   786   778   776    1
   787   206   205   ar
   788   206   207    2
   789  1096  1097   ar
   790  1096  1095   ar
   791  1184  1183    1
   792  1038  1039    1
   793   199   194    1
   794   199   210    1
   795   199   197    1
   796  1210  1228    1
   797  1210  1196    1
   798  1055  1037    2
   799   310   321    1
   800   310   308    1
   801   194   193    1
   802   320   321   ar
   803   320   319   ar
   804   212   190    2
   805   748   746    1
   806   748   747    1
   807  1104  1109    1
   808  1145  1147    1
   809  1145  1129    1
   810  1097  1091   ar
   811  1039  1037    1
   812   193   195    1
   813   193   191    1
   814  1074  1067   ar
   815  1074  1073   ar
   816  1067  1068   ar
   817   746   767    1
   818   753   754    1
   819   753   751    1
   820   210   209   ar
   821   205   208   ar
   822   579   559    2
   823   559   580    1
   824   559   545    1
   825   321   315   ar
   826   551   550    2
   827  1200  1207   ar
   828  1200  1199    1
   829   195   197    1
   830  1189  1168    2
   831   198   197    1
   832   319   316   ar
   833   552   550   ar
   834   552   553   ar
   835  1107  1108    1
   836  1107  1109    1
   837   773   772    1
   838   777   776    1
   839   776   774    1
   840   190   192    1
   841   190   211    1
   842  1041  1046    1
   843   554   553    2
   844  1095  1092   ar
   845  1046  1047    1
   846   192   191    1
   847  1119  1118   ar
   848  1119  1120   ar
   849  1147  1146    1
   850  1037  1056    1
   851  1037  1023    1
   852  1197  1195    1
   853  1197  1199    1
   854  1197  1198    1
   855   749   751    1
   856   749   747    1
   857   550   549   ar
   858  1209  1190    2
   859   306   308    1
   860   306   307    1
   861   309   308    1
   862  1183  1182   ar
   863  1183  1178   ar
   864   751   752    1
   865  1109  1120    1
   866   553   555   ar
   867  1073  1071   ar
   868  1195  1196    1
   869  1195  1193    1
   870  1185  1182   ar
   871  1185  1186   ar
   872   315   316   ar
   873   315   314   ar
   874  1126  1128    1
   875  1126  1127    1
   876  1068  1069    2
   877  1068  1070   ar
   878   316   317   ar
   879   547   546    1
   880  1091  1092   ar
   881  1091  1090   ar
   882  1129  1128    1
   883   546   544    1
   884   546   548    1
   885  1118  1115   ar
   886  1199  1194    1
   887  1188  1168    1
   888  1120  1114   ar
   889   545   544    1
   890   209   208   ar
   891  1163  1164   ar
   892  1163  1160   ar
   893  1182  1181   ar
   894   307   324    1
   895  1162  1161    2
   896  1178  1179   ar
   897  1128  1130    1
   898  1168  1170    1
   899  1168  1151    1
   900  1141  1140   ar
   901  1141  1142   ar
   902  1092  1093   ar
   903  1140  1137   ar
   904   314   312   ar
   905  1146  1148    1
   906  1127  1132    1
   907  1049  1048    2
   908   549   548    1
   909   549   556   ar
   910   544   542    1
   911  1047  1048   ar
   912  1047  1054   ar
   913   772   774    1
   914   772   770    1
   915   804   803    1
   916  1090  1088   ar
   917   774   775    1
   918  1164  1165   ar
   919  1192  1190    1
   920  1192  1191    1
   921  1023  1022    1
   922   317   318    2
   923   317   311   ar
   924  1186  1187   ar
   925  1190  1208    1
   926  1190  1174    1
   927   555   556   ar
   928  1070  1071   ar
   929  1071  1072    2
   930  1025  1024    1
   931   548   543    1
   932  1170  1169    1
   933  1048  1050   ar
   934  1161  1160   ar
   935  1161  1155   ar
   936  1160  1159   ar
   937   752   769    1
   938  1194  1193    1
   939   312   311   ar
   940   312   313    1
   941  1193  1191    1
   942  1115  1114   ar
   943  1115  1116   ar
   944  1054  1053   ar
   945   771   770    1
   946   771   769    1
   947   788   769    2
   948  1114  1113   ar
   949  1142  1132    1
   950  1142  1136   ar
   951  1181  1187   ar
   952  1181  1180   ar
   953  1151  1150    1
   954  1179  1180   ar
   955   805   803   ar
   956   805   806   ar
   957  1150  1148    1
   958  1150  1152    1
   959   343   324    2
   960   803   802   ar
   961  1137  1138   ar
   962  1137  1136   ar
   963   990   989    2
   964   324   342    1
   965   324   326    1
   966  1093  1094    2
   967  1093  1087   ar
   968  1139  1138    1
   969  1132  1130    1
   970  1148  1149    1
   971   775   789    1
   972  1187  1177    1
   973  1130  1131    1
   974   769   787    1
   975  1088  1087   ar
   976  1088  1089    1
   977  1165  1159   ar
   978  1165  1154    1
   979  1024  1022    1
   980  1024  1026    1
   981  1022  1020    1
   982  1149  1154    1
   983  1173  1174    1
   984  1173  1175    1
   985  1173  1171    1
   986   921   920    1
   987   542   543    1
   988   542   540    1
   989  1159  1158   ar
   990  1138  1133   ar
   991  1050  1051   ar
   992   534   533    1
   993  1155  1156   ar
   994  1136  1135   ar
   995   902   903   ar
   996   902   901   ar
   997  1113  1111   ar
   998  1053  1051   ar
   999  1116  1117    2
  1000  1116  1110   ar
  1001  1169  1171    1
  1002   806   799   ar
  1003   802   800   ar
  1004   340   341   ar
  1005   340   338   ar
  1006   903   904   ar
  1007   339   338    1
  1008   807   789    2
  1009  1154  1152    1
  1010   880   879   ar
  1011   880   881   ar
  1012   326   325    1
  1013  1175  1177    1
  1014  1175  1176    1
  1015   824   823    2
  1016  1036  1017    2
  1017   989   988   ar
  1018   989   991   ar
  1019  1152  1153    1
  1020   341   334   ar
  1021  1051  1052    2
  1022   338   337   ar
  1023  1035  1017    1
  1024  1177  1172    1
  1025   899   898    1
  1026  1171  1172    1
  1027   879   884   ar
  1028   789   808    1
  1029   789   791    1
  1030   325   327    1
  1031   541   540    1
  1032   541   539    1
  1033   901   906   ar
  1034   558   539    2
  1035  1020  1018    1
  1036  1020  1021    1
  1037   533   532   ar
  1038   533   535   ar
  1039  1019  1017    1
  1040  1019  1018    1
  1041   917   922    1
  1042   917   916    1
  1043  1156  1158   ar
  1044  1156  1157    1
  1045   532   530   ar
  1046   328   327    1
  1047   328   333    1
  1048   922   920    1
  1049   922   932    1
  1050  1111  1110   ar
  1051  1111  1112    1
  1052   988   986   ar
  1053  1133  1134   ar
  1054  1017  1001    1
  1055  1026  1021    1
  1056  1026  1027    1
  1057   799   800   ar
  1058   799   798    1
  1059  1135  1134   ar
  1060   920   918    1
  1061   800   801    2
  1062   881   882   ar
  1063   916   918    1
  1064   916   914    1
  1065  1029  1028    2
  1066   900   898    1
  1067   900   910    1
  1068   900   895    1
  1069   904   910   ar
  1070   904   905   ar
  1071   334   333    1
  1072   334   335   ar
  1073   337   335   ar
  1074   991   992   ar
  1075   539   557    1
  1076   539   525    1
  1077   823   822   ar
  1078   823   825   ar
  1079   535   536   ar
  1080   925   924   ar
  1081   925   926   ar
  1082   898   896    1
  1083   943   942    1
  1084   327   329    1
  1085   919   918    1
  1086   919   935    1
  1087   530   531    2
  1088   530   529   ar
  1089   333   331    1
  1090   335   336    2
  1091   791   790    1
  1092   910   909   ar
  1093   884   885    1
  1094   884   883   ar
  1095   895   894    1
  1096   906   905   ar
  1097   906   907    1
  1098   844   843    2
  1099  1027  1028   ar
  1100  1027  1034   ar
  1101   793   798    1
  1102   793   792    1
  1103  1028  1030   ar
  1104   822   820   ar
  1105   513   512    2
  1106   914   915    1
  1107   798   796    1
  1108   924   923   ar
  1109   938   936    1
  1110   938   939    1
  1111   938   940    1
  1112   932   926   ar
  1113   932   931   ar
  1114   936   937    1
  1115   905   908   ar
  1116   882   883   ar
  1117   882   888   ar
  1118   986   987    2
  1119   986   985   ar
  1120   953   935    2
  1121   825   826   ar
  1122   861   860    2
  1123   926   927   ar
  1124   939   944    1
  1125   536   529   ar
  1126   862   860   ar
  1127   862   863   ar
  1128   529   528    1
  1129   842   843   ar
  1130   842   840   ar
  1131  1001  1000    1
  1132   944   942    1
  1133   944   945    1
  1134   894   896    1
  1135   894   892    1
  1136   864   863    1
  1137   360   359    1
  1138   992   985   ar
  1139   883   886   ar
  1140   877   876    1
  1141   843   845   ar
  1142  1034  1033   ar
  1143   942   940    1
  1144   518   496    2
  1145   993   975    2
  1146   329   331    1
  1147   329   330    1
  1148   790   792    1
  1149   935   937    1
  1150   935   954    1
  1151  1030  1031   ar
  1152   941   940    1
  1153   941   955    1
  1154   525   524    1
  1155   512   506   ar
  1156   512   511   ar
  1157   526   524    1
  1158   526   528    1
  1159   526   527    1
  1160   538   519    2
  1161   896   897    1
  1162   860   859   ar
  1163   524   522    1
  1164   909   908   ar
  1165   841   840    2
  1166   506   507   ar
  1167   820   821    2
  1168   820   819   ar
  1169   985   984    1
  1170   792   794    1
  1171   331   332    1
  1172   915   913    1
  1173   931   930   ar
  1174   863   865   ar
  1175  1015   995    2
  1176   947   946    2
  1177   923   928   ar
  1178   897   913    1
  1179   888   878    1
  1180   888   887   ar
  1181   878   876    1
  1182   878   873    1
  1183  1003  1002    1
  1184  1000  1002    1
  1185  1000   998    1
  1186   840   839   ar
  1187   876   874    1
  1188   826   819   ar
  1189   956   958    1
  1190   956   957    1
  1191   796   794    1
  1192   796   797    1
  1193   528   523    1
  1194   927   928   ar
  1195   927   930   ar
  1196   361   358   ar
  1197   361   362   ar
  1198  1033  1031   ar
  1199   359   358   ar
  1200   359   354   ar
  1201   973   955    2
  1202  1031  1032    2
  1203   511   514   ar
  1204   511   510   ar
  1205   892   893    1
  1206   365   344    2
  1207   794   795    1
  1208   945   946   ar
  1209   945   952   ar
  1210   330   344    1
  1211   819   818    1
  1212   521   519    1
  1213   521   520    1
  1214   514   515   ar
  1215  1002  1004    1
  1216   886   887   ar
  1217   845   846   ar
  1218   519   537    1
  1219   519   502    1
  1220   928   929    1
  1221   358   357   ar
  1222   946   948   ar
  1223   507   508    1
  1224   507   509   ar
  1225   955   957    1
  1226   955   974    1
  1227   958   959    1
  1228   958   960    1
  1229   913   933    2
  1230   913   934    1
  1231   975   977    1
  1232   975   994    1
  1233   975   961    1
  1234   496   498    1
  1235   496   517    1
  1236   496   479    1
  1237   354   355   ar
  1238   859   858    1
  1239   859   866   ar
  1240   362   363   ar
  1241   522   523    1
  1242   522   520    1
  1243   873   872    1
  1244   998   996    1
  1245   998   999    1
  1246   381   380    2
  1247   865   866   ar
  1248   839   846   ar
  1249   839   838    1
  1250   977   976    1
  1251   984   982    1
  1252   984   979    1
  1253   485   484    1
  1254   996   997    1
  1255   995   997    1
  1256   995  1016    1
  1257   995   981    1
  1258   959   964    1
  1259   510   509   ar
  1260   510   516   ar
  1261   344   364    1
  1262   344   346    1
  1263   952   951   ar
  1264   893   891    1
  1265   481   480    1
  1266   498   497    1
  1267   828   809    2
  1268   515   516   ar
  1269   982   980    1
  1270   982   983    1
  1271   874   872    1
  1272   874   875    1
  1273   858   856    1
  1274   858   853    1
  1275   479   478    1
  1276   980   981    1
  1277   980   978    1
  1278   357   363   ar
  1279   357   356   ar
  1280   961   960    1
  1281   818   813    1
  1282   818   816    1
  1283   948   949   ar
  1284   795   809    1
  1285   872   870    1
  1286   355   356   ar
  1287   960   962    1
  1288   363   353    1
  1289   875   891    1
  1290   979   978    1
  1291  1004   999    1
  1292  1004  1014    1
  1293   502   501    1
  1294   516   505    1
  1295   857   856    1
  1296   501   503    1
  1297   501   499    1
  1298   813   812    1
  1299   856   854    1
  1300   838   836    1
  1301   838   833    1
  1302   480   478    1
  1303   480   482    1
  1304   484   486   ar
  1305   484   483   ar
  1306   346   345    1
  1307   380   379   ar
  1308   380   382   ar
  1309   951   949   ar
  1310   809   811    1
  1311   809   827    1
  1312   486   487   ar
  1313   978   976    1
  1314   964   962    1
  1315   964   965    1
  1316   478   476    1
  1317   891   911    2
  1318   891   912    1
  1319   348   353    1
  1320   348   347    1
  1321   853   852    1
  1322   949   950    1
  1323   503   505    1
  1324   503   504    1
  1325   497   499    1
  1326   353   351    1
  1327   811   810    1
  1328   816   814    1
  1329   816   817    1
  1330   836   837    1
  1331   836   834    1
  1332   483   489   ar
  1333  1014  1013   ar
  1334  1014  1008   ar
  1335   379   377   ar
  1336   833   832    1
  1337   962   963    1
  1338   505   500    1
  1339   382   383   ar
  1340   499   500    1
  1341   870   871    1
  1342   345   347    1
  1343   965   972   ar
  1344   965   966   ar
  1345   812   810    1
  1346   812   814    1
  1347  1013  1012   ar
  1348   814   815    1
  1349   487   493   ar
  1350   487   488   ar
  1351   854   852    1
  1352   854   855    1
  1353   482   493    1
  1354   482   477    1
  1355   967   966    2
  1356  1007  1008   ar
  1357  1007  1006   ar
  1358   871   869    1
  1359  1008  1009   ar
  1360   972   971   ar
  1361   347   349    1
  1362   476   477    1
  1363   476   474    1
  1364   852   850    1
  1365   966   968   ar
  1366   489   488   ar
  1367   489   490    2
  1368   493   492   ar
  1369   834   832    1
  1370   834   835    1
  1371   351   349    1
  1372   351   352    1
  1373   488   491   ar
  1374  1012  1009   ar
  1375   832   830    1
  1376   855   869    1
  1377  1006  1005   ar
  1378   377   378    2
  1379   377   376   ar
  1380   383   376   ar
  1381   349   350    1
  1382   971   969   ar
  1383  1009  1010   ar
  1384   848   829    2
  1385   831   829    1
  1386   831   830    1
  1387   968   969   ar
  1388   474   475    1
  1389   402   401    1
  1390   851   850    1
  1391   851   849    1
  1392   815   829    1
  1393   869   890    2
  1394   869   889    1
  1395   969   970    1
  1396   396   401   ar
  1397   396   397   ar
  1398   492   491   ar
  1399   376   375    1
  1400   475   473    1
  1401   829   847    1
  1402   835   849    1
  1403   462   461    1
  1404  1005  1010   ar
  1405   401   400   ar
  1406   868   849    2
  1407  1010  1011    1
  1408   424   423    1
  1409   849   867    1
  1410   397   398   ar
  1411   385   366    2
  1412   350   366    1
  1413   494   473    2
  1414   461   460   ar
  1415   461   463   ar
  1416   400   403   ar
  1417   400   399   ar
  1418   460   466   ar
  1419   473   495    1
  1420   473   456    1
  1421   375   370    1
  1422   375   373    1
  1423   366   368    1
  1424   366   384    1
  1425   423   418   ar
  1426   423   422   ar
  1427   398   399   ar
  1428   368   367    1
  1429   418   419   ar
  1430   403   404   ar
  1431   399   405   ar
  1432   370   369    1
  1433   463   464   ar
  1434   373   374    1
  1435   373   371    1
  1436   466   467    2
  1437   466   465   ar
  1438   456   455    1
  1439   422   425   ar
  1440   422   421   ar
  1441   425   426   ar
  1442   367   369    1
  1443   404   405   ar
  1444   419   420   ar
  1445   457   458    1
  1446   457   455    1
  1447   457   459    1
  1448   405   395    1
  1449   464   465   ar
  1450   464   470   ar
  1451   369   371    1
  1452   455   453    1
  1453   465   468   ar
  1454   371   372    1
  1455   421   420   ar
  1456   421   427   ar
  1457   395   390    1
  1458   395   393    1
  1459   426   427   ar
  1460   470   459    1
  1461   470   469   ar
  1462   459   454    1
  1463   468   469   ar
  1464   427   417    1
  1465   390   389    1
  1466   372   386    1
  1467   453   454    1
  1468   453   451    1
  1469   393   394    1
  1470   393   391    1
  1471   451   452    1
  1472   417   412    1
  1473   417   415    1
  1474   412   411    1
  1475   472   450    2
  1476   389   391    1
  1477   389   387    1
  1478   391   392    1
  1479   386   388    1
  1480   386   406    2
  1481   386   407    1
  1482   388   387    1
  1483   471   450    1
  1484   452   450    1
  1485   450   436    1
  1486   415   416    1
  1487   415   413    1
  1488   411   409    1
  1489   411   413    1
  1490   392   408    1
  1491   409   410    1
  1492   410   408    1
  1493   413   414    1
  1494   436   435    1
  1495   429   408    2
  1496   408   428    1
  1497   414   430    1
  1498   435   433    1
  1499   435   437    1
  1500   432   431    1
  1501   432   430    1
  1502   438   437    1
  1503   431   433    1
  1504   433   434    1
  1505   430   449    2
  1506   430   448    1
  1507   437   439    1
  1508   439   434    1
  1509   439   440    1
  1510   440   447   ar
  1511   440   441   ar
  1512   442   441    2
  1513   447   446   ar
  1514   441   443   ar
  1515   446   444   ar
  1516   443   444   ar
  1517   444   445    2
