ligand
  PyMOL2.2          3D                             0

 10  9  0  0  0  0  0  0  0  0999 V2000
   32.7040   15.9030   19.6480 N   0  0  0  0  0  0  0  0  0  0  0  0
   31.9660   16.6510   20.7040 C   0  0  0  0  0  0  0  0  0  0  0  0
   32.8990   17.1850   21.7910 C   0  0  0  0  0  0  0  0  0  0  0  0
   34.1280   17.1100   21.6920 O   0  0  0  0  0  0  0  0  0  0  0  0
   30.8540   15.7880   21.3060 C   0  0  0  0  0  0  0  0  0  0  0  0
   29.5730   15.7550   20.4830 C   0  0  0  0  0  0  0  0  0  0  0  0
   28.4250   15.1310   21.2760 C   0  0  0  0  0  0  0  0  0  0  0  0
   27.1050   15.2080   20.5170 C   0  0  0  0  0  0  0  0  0  0  0  0
   27.0700   14.3080   19.3270 N   0  0  0  0  0  0  0  0  0  0  0  0
   32.4420   17.7310   22.7930 O   0  0  0  0  0  0  0  0  0  0  0  0
  1  2  1  0  0  0  0
  2  3  1  0  0  0  0
  2  5  1  0  0  0  0
  3  4  4  0  0  0  0
  3 10  4  0  0  0  0
  5  6  1  0  0  0  0
  6  7  1  0  0  0  0
  7  8  1  0  0  0  0
  8  9  1  0  0  0  0
M  END
$$$$
