ligand
 OpenBabel11021811473D
libRbt.so/2013.1/901 2013/11/27
 10  9  0  0  0  0  0  0  0  0999 V2000
   31.9786   16.1502   20.4478 N   0  0  0  0  0  0  0  0  0  0  0  0
   31.2008   17.1055   21.2855 C   0  0  2  0  0  0  0  0  0  0  0  0
   32.0842   17.8376   22.2959 C   0  0  0  0  0  0  0  0  0  0  0  0
   31.7113   18.8698   22.8627 O   0  0  0  0  0  0  0  0  0  0  0  0
   30.0368   16.3959   21.9820 C   0  0  0  0  0  0  0  0  0  0  0  0
   28.8911   16.0150   21.0537 C   0  0  0  0  0  0  0  0  0  0  0  0
   27.8288   15.2033   21.7946 C   0  0  0  0  0  0  0  0  0  0  0  0
   26.6101   14.9330   20.9193 C   0  0  0  0  0  0  0  0  0  0  0  0
   26.9611   14.2662   19.6311 N   0  0  0  0  0  0  0  0  0  0  0  0
   33.1932   17.3967   22.5903 O   0  0  0  0  0  0  0  0  0  0  0  0
  2  1  1  1  0  0  0
  2  3  1  0  0  0  0
  2  5  1  0  0  0  0
  3  4  1  0  0  0  0
  3 10  1  0  0  0  0
  5  6  1  0  0  0  0
  6  7  1  0  0  0  0
  7  8  1  0  0  0  0
  8  9  1  0  0  0  0
M  END
>  <CHROM.1>
163.10229460,-72.49531502,174.90139658,174.28028847,55.23547363,30.07965226
16.44041369,21.51123931,-0.54844940,-0.20796982,-2.30231961

>  <Name>
ligand

>  <RI>
0

>  <Rbt.Current_Directory>
/home/itssahil/PROJECTS/Mol_Feturizer/New_Systems/rnas/3DJ2

>  <Rbt.Executable>
rbdock ($Id: //depot/dev/client3/rdock/2013.1/src/exe/rbdock.cxx#4 $)

>  <Rbt.Library>
libRbt.so (2013.1, Build901 2013/11/27)

>  <Rbt.Parameter_File>
/export/apps/rDock/src/rDock_2013.1_src/data/scripts/dock_solv.prm

>  <Rbt.Receptor>
prm/pocket_docking_4.prm

>  <SCORE>
-8.92734

>  <SCORE.INTER>
-8.1949

>  <SCORE.INTER.CONST>
1

>  <SCORE.INTER.POLAR>
0

>  <SCORE.INTER.ROT>
5

>  <SCORE.INTER.SOLV>
15.7709

>  <SCORE.INTER.VDW>
-17.6536

>  <SCORE.INTER.norm>
-0.81949

>  <SCORE.INTRA>
-0.732432

>  <SCORE.INTRA.DIHEDRAL>
-1.84666

>  <SCORE.INTRA.DIHEDRAL.0>
4.28128

>  <SCORE.INTRA.POLAR>
0

>  <SCORE.INTRA.POLAR.0>
0

>  <SCORE.INTRA.REPUL>
0

>  <SCORE.INTRA.REPUL.0>
0

>  <SCORE.INTRA.SOLV>
0.414986

>  <SCORE.INTRA.SOLV.lig_0>
-32.3374

>  <SCORE.INTRA.VDW>
-0.0165932

>  <SCORE.INTRA.VDW.0>
-0.659551

>  <SCORE.INTRA.norm>
-0.0732432

>  <SCORE.RESTR>
0

>  <SCORE.RESTR.CAVITY>
0

>  <SCORE.RESTR.norm>
0

>  <SCORE.SYSTEM>
0

>  <SCORE.SYSTEM.CONST>
0

>  <SCORE.SYSTEM.DIHEDRAL>
0

>  <SCORE.SYSTEM.SOLV>
0

>  <SCORE.SYSTEM.norm>
0

>  <SCORE.heavy>
10

>  <SCORE.norm>
-0.892734

>  <RMSD>
1.043

$$$$
ligand
 OpenBabel11021811473D
libRbt.so/2013.1/901 2013/11/27
 10  9  0  0  0  0  0  0  0  0999 V2000
   32.3307   15.7309   20.1976 N   0  0  0  0  0  0  0  0  0  0  0  0
   31.6415   16.9271   20.7574 C   0  0  2  0  0  0  0  0  0  0  0  0
   32.3083   17.4300   22.0379 C   0  0  0  0  0  0  0  0  0  0  0  0
   32.1491   18.5844   22.4475 O   0  0  0  0  0  0  0  0  0  0  0  0
   30.1546   16.6418   20.9846 C   0  0  0  0  0  0  0  0  0  0  0  0
   29.8779   15.4855   21.9363 C   0  0  0  0  0  0  0  0  0  0  0  0
   28.3765   15.2981   22.1530 C   0  0  0  0  0  0  0  0  0  0  0  0
   27.6774   14.8164   20.8867 C   0  0  0  0  0  0  0  0  0  0  0  0
   26.1952   14.7349   21.0410 N   0  0  0  0  0  0  0  0  0  0  0  0
   33.0098   16.6793   22.7127 O   0  0  0  0  0  0  0  0  0  0  0  0
  2  1  1  1  0  0  0
  2  3  1  0  0  0  0
  2  5  1  0  0  0  0
  3  4  1  0  0  0  0
  3 10  1  0  0  0  0
  5  6  1  0  0  0  0
  6  7  1  0  0  0  0
  7  8  1  0  0  0  0
  8  9  1  0  0  0  0
M  END
>  <CHROM.1>
159.28713655,59.16794012,177.82057254,67.63126607,-175.22435827,30.39739694
16.25017791,21.54345482,-0.37236539,-0.25843893,-2.27503294

>  <Name>
ligand

>  <RI>
0

>  <Rbt.Current_Directory>
/home/itssahil/PROJECTS/Mol_Feturizer/New_Systems/rnas/3DJ2

>  <Rbt.Executable>
rbdock ($Id: //depot/dev/client3/rdock/2013.1/src/exe/rbdock.cxx#4 $)

>  <Rbt.Library>
libRbt.so (2013.1, Build901 2013/11/27)

>  <Rbt.Parameter_File>
/export/apps/rDock/src/rDock_2013.1_src/data/scripts/dock_solv.prm

>  <Rbt.Receptor>
prm/blind_docking_60.prm

>  <SCORE>
-7.62327

>  <SCORE.INTER>
-6.8067

>  <SCORE.INTER.CONST>
1

>  <SCORE.INTER.POLAR>
0

>  <SCORE.INTER.ROT>
5

>  <SCORE.INTER.SOLV>
19.9994

>  <SCORE.INTER.VDW>
-18.1376

>  <SCORE.INTER.norm>
-0.68067

>  <SCORE.INTRA>
-0.816566

>  <SCORE.INTRA.DIHEDRAL>
-2.45018

>  <SCORE.INTRA.DIHEDRAL.0>
4.28128

>  <SCORE.INTRA.POLAR>
0

>  <SCORE.INTRA.POLAR.0>
0

>  <SCORE.INTRA.REPUL>
0

>  <SCORE.INTRA.REPUL.0>
0

>  <SCORE.INTRA.SOLV>
-0.184351

>  <SCORE.INTRA.SOLV.lig_0>
-32.3374

>  <SCORE.INTRA.VDW>
0.500701

>  <SCORE.INTRA.VDW.0>
-0.659551

>  <SCORE.INTRA.norm>
-0.0816566

>  <SCORE.RESTR>
0

>  <SCORE.RESTR.CAVITY>
0

>  <SCORE.RESTR.norm>
0

>  <SCORE.SYSTEM>
0

>  <SCORE.SYSTEM.CONST>
0

>  <SCORE.SYSTEM.DIHEDRAL>
0

>  <SCORE.SYSTEM.SOLV>
0

>  <SCORE.SYSTEM.norm>
0

>  <SCORE.heavy>
10

>  <SCORE.norm>
-0.762327

>  <RMSD>
1.159

$$$$
ligand
 OpenBabel11021811473D
libRbt.so/2013.1/901 2013/11/27
 10  9  0  0  0  0  0  0  0  0999 V2000
   31.6154   15.9429   20.2899 N   0  0  0  0  0  0  0  0  0  0  0  0
   30.9486   16.5852   21.4570 C   0  0  2  0  0  0  0  0  0  0  0  0
   31.8909   17.5186   22.2174 C   0  0  0  0  0  0  0  0  0  0  0  0
   33.0386   17.1804   22.5242 O   0  0  0  0  0  0  0  0  0  0  0  0
   30.3466   15.5300   22.3886 C   0  0  0  0  0  0  0  0  0  0  0  0
   29.2009   14.7354   21.7759 C   0  0  0  0  0  0  0  0  0  0  0  0
   27.9584   15.6079   21.5992 C   0  0  0  0  0  0  0  0  0  0  0  0
   26.8293   14.8519   20.9080 C   0  0  0  0  0  0  0  0  0  0  0  0
   27.1666   14.4654   19.5065 N   0  0  0  0  0  0  0  0  0  0  0  0
   31.5315   18.6532   22.5251 O   0  0  0  0  0  0  0  0  0  0  0  0
  2  1  1  6  0  0  0
  2  3  1  0  0  0  0
  2  5  1  0  0  0  0
  3  4  1  0  0  0  0
  3 10  1  0  0  0  0
  5  6  1  0  0  0  0
  6  7  1  0  0  0  0
  7  8  1  0  0  0  0
  8  9  1  0  0  0  0
M  END
>  <CHROM.1>
-46.72391830,-65.79404044,-69.91617037,176.47728262,-64.64706573,30.08260518
16.13435953,21.53821003,-0.56816257,-0.16730386,-2.35656606

>  <Name>
ligand

>  <RI>
0

>  <Rbt.Current_Directory>
/home/itssahil/PROJECTS/Mol_Feturizer/New_Systems/rnas/3DJ2

>  <Rbt.Executable>
rbdock ($Id: //depot/dev/client3/rdock/2013.1/src/exe/rbdock.cxx#4 $)

>  <Rbt.Library>
libRbt.so (2013.1, Build901 2013/11/27)

>  <Rbt.Parameter_File>
/export/apps/rDock/src/rDock_2013.1_src/data/scripts/dock_solv.prm

>  <Rbt.Receptor>
prm/pocket_docking_8.prm

>  <SCORE>
-9.10071

>  <SCORE.INTER>
-8.42355

>  <SCORE.INTER.CONST>
1

>  <SCORE.INTER.POLAR>
0

>  <SCORE.INTER.ROT>
5

>  <SCORE.INTER.SOLV>
15.2775

>  <SCORE.INTER.VDW>
-17.6415

>  <SCORE.INTER.norm>
-0.842355

>  <SCORE.INTRA>
-0.677161

>  <SCORE.INTRA.DIHEDRAL>
-2.04706

>  <SCORE.INTRA.DIHEDRAL.0>
4.28128

>  <SCORE.INTRA.POLAR>
0

>  <SCORE.INTRA.POLAR.0>
0

>  <SCORE.INTRA.REPUL>
0

>  <SCORE.INTRA.REPUL.0>
0

>  <SCORE.INTRA.SOLV>
0.820163

>  <SCORE.INTRA.SOLV.lig_0>
-32.3374

>  <SCORE.INTRA.VDW>
-0.0637127

>  <SCORE.INTRA.VDW.0>
-0.659551

>  <SCORE.INTRA.norm>
-0.0677161

>  <SCORE.RESTR>
0

>  <SCORE.RESTR.CAVITY>
0

>  <SCORE.RESTR.norm>
0

>  <SCORE.SYSTEM>
0

>  <SCORE.SYSTEM.CONST>
0

>  <SCORE.SYSTEM.DIHEDRAL>
0

>  <SCORE.SYSTEM.SOLV>
0

>  <SCORE.SYSTEM.norm>
0

>  <SCORE.heavy>
10

>  <SCORE.norm>
-0.910071

>  <RMSD>
1.160

$$$$
ligand
 OpenBabel11021811473D
libRbt.so/2013.1/901 2013/11/27
 10  9  0  0  0  0  0  0  0  0999 V2000
   31.6737   16.6898   20.1798 N   0  0  0  0  0  0  0  0  0  0  0  0
   31.1292   17.0484   21.5193 C   0  0  2  0  0  0  0  0  0  0  0  0
   32.0540   17.9968   22.2825 C   0  0  0  0  0  0  0  0  0  0  0  0
   33.2813   17.8570   22.2779 O   0  0  0  0  0  0  0  0  0  0  0  0
   30.8294   15.7909   22.3394 C   0  0  0  0  0  0  0  0  0  0  0  0
   29.7014   14.9338   21.7803 C   0  0  0  0  0  0  0  0  0  0  0  0
   28.3575   15.6537   21.8883 C   0  0  0  0  0  0  0  0  0  0  0  0
   27.2325   14.8526   21.2426 C   0  0  0  0  0  0  0  0  0  0  0  0
   27.4049   14.7003   19.7680 N   0  0  0  0  0  0  0  0  0  0  0  0
   31.5930   18.9488   22.9086 O   0  0  0  0  0  0  0  0  0  0  0  0
  2  1  1  6  0  0  0
  2  3  1  0  0  0  0
  2  5  1  0  0  0  0
  3  4  1  0  0  0  0
  3 10  1  0  0  0  0
  5  6  1  0  0  0  0
  6  7  1  0  0  0  0
  7  8  1  0  0  0  0
  8  9  1  0  0  0  0
M  END
>  <CHROM.1>
-40.99648321,-66.42790655,-67.55014493,175.89801709,-64.90952407,30.35451785
16.47566920,21.63761211,-0.53578582,-0.38058566,-2.17055149

>  <Name>
ligand

>  <RI>
0

>  <Rbt.Current_Directory>
/home/itssahil/PROJECTS/Mol_Feturizer/New_Systems/rnas/3DJ2

>  <Rbt.Executable>
rbdock ($Id: //depot/dev/client3/rdock/2013.1/src/exe/rbdock.cxx#4 $)

>  <Rbt.Library>
libRbt.so (2013.1, Build901 2013/11/27)

>  <Rbt.Parameter_File>
/export/apps/rDock/src/rDock_2013.1_src/data/scripts/dock_solv.prm

>  <Rbt.Receptor>
prm/blind_docking_60.prm

>  <SCORE>
-9.37126

>  <SCORE.INTER>
-8.68357

>  <SCORE.INTER.CONST>
1

>  <SCORE.INTER.POLAR>
0

>  <SCORE.INTER.ROT>
5

>  <SCORE.INTER.SOLV>
13.4872

>  <SCORE.INTER.VDW>
-17.2181

>  <SCORE.INTER.norm>
-0.868357

>  <SCORE.INTRA>
-0.687684

>  <SCORE.INTRA.DIHEDRAL>
-2.14468

>  <SCORE.INTRA.DIHEDRAL.0>
4.28128

>  <SCORE.INTRA.POLAR>
0

>  <SCORE.INTRA.POLAR.0>
0

>  <SCORE.INTRA.REPUL>
0

>  <SCORE.INTRA.REPUL.0>
0

>  <SCORE.INTRA.SOLV>
0.83812

>  <SCORE.INTRA.SOLV.lig_0>
-32.3374

>  <SCORE.INTRA.VDW>
-0.0344029

>  <SCORE.INTRA.VDW.0>
-0.659551

>  <SCORE.INTRA.norm>
-0.0687684

>  <SCORE.RESTR>
0

>  <SCORE.RESTR.CAVITY>
0

>  <SCORE.RESTR.norm>
0

>  <SCORE.SYSTEM>
0

>  <SCORE.SYSTEM.CONST>
0

>  <SCORE.SYSTEM.DIHEDRAL>
0

>  <SCORE.SYSTEM.SOLV>
0

>  <SCORE.SYSTEM.norm>
0

>  <SCORE.heavy>
10

>  <SCORE.norm>
-0.937126

>  <RMSD>
1.190

$$$$
ligand
 OpenBabel11021811473D
libRbt.so/2013.1/901 2013/11/27
 10  9  0  0  0  0  0  0  0  0999 V2000
   31.6403   16.8021   20.1797 N   0  0  0  0  0  0  0  0  0  0  0  0
   31.1709   17.1215   21.5570 C   0  0  2  0  0  0  0  0  0  0  0  0
   32.1367   18.0492   22.2946 C   0  0  0  0  0  0  0  0  0  0  0  0
   31.7373   18.9862   22.9935 O   0  0  0  0  0  0  0  0  0  0  0  0
   30.9169   15.8407   22.3562 C   0  0  0  0  0  0  0  0  0  0  0  0
   29.8012   14.9666   21.7988 C   0  0  0  0  0  0  0  0  0  0  0  0
   28.4436   15.6564   21.9301 C   0  0  0  0  0  0  0  0  0  0  0  0
   27.3347   14.8569   21.2550 C   0  0  0  0  0  0  0  0  0  0  0  0
   27.4906   14.7919   19.7722 N   0  0  0  0  0  0  0  0  0  0  0  0
   33.3505   17.8674   22.2277 O   0  0  0  0  0  0  0  0  0  0  0  0
  2  1  1  6  0  0  0
  2  3  1  0  0  0  0
  2  5  1  0  0  0  0
  3  4  1  0  0  0  0
  3 10  1  0  0  0  0
  5  6  1  0  0  0  0
  6  7  1  0  0  0  0
  7  8  1  0  0  0  0
  8  9  1  0  0  0  0
M  END
>  <CHROM.1>
138.44123716,-63.77527188,-66.92888031,174.40956036,-66.50313344,30.43211662
16.52143920,21.65534761,-0.50425820,-0.43012072,-2.08094402

>  <Name>
ligand

>  <RI>
0

>  <Rbt.Current_Directory>
/home/itssahil/PROJECTS/Mol_Feturizer/New_Systems/rnas/3DJ2

>  <Rbt.Executable>
rbdock ($Id: //depot/dev/client3/rdock/2013.1/src/exe/rbdock.cxx#4 $)

>  <Rbt.Library>
libRbt.so (2013.1, Build901 2013/11/27)

>  <Rbt.Parameter_File>
/export/apps/rDock/src/rDock_2013.1_src/data/scripts/dock_solv.prm

>  <Rbt.Receptor>
prm/pocket_docking_8.prm

>  <SCORE>
-9.40577

>  <SCORE.INTER>
-8.7092

>  <SCORE.INTER.CONST>
1

>  <SCORE.INTER.POLAR>
0

>  <SCORE.INTER.ROT>
5

>  <SCORE.INTER.SOLV>
12.9624

>  <SCORE.INTER.VDW>
-17.0603

>  <SCORE.INTER.norm>
-0.87092

>  <SCORE.INTRA>
-0.696569

>  <SCORE.INTRA.DIHEDRAL>
-2.24174

>  <SCORE.INTRA.DIHEDRAL.0>
4.28128

>  <SCORE.INTRA.POLAR>
0

>  <SCORE.INTRA.POLAR.0>
0

>  <SCORE.INTRA.REPUL>
0

>  <SCORE.INTRA.REPUL.0>
0

>  <SCORE.INTRA.SOLV>
0.88228

>  <SCORE.INTRA.SOLV.lig_0>
-32.3374

>  <SCORE.INTRA.VDW>
-0.016837

>  <SCORE.INTRA.VDW.0>
-0.659551

>  <SCORE.INTRA.norm>
-0.0696569

>  <SCORE.RESTR>
0

>  <SCORE.RESTR.CAVITY>
0

>  <SCORE.RESTR.norm>
0

>  <SCORE.SYSTEM>
0

>  <SCORE.SYSTEM.CONST>
0

>  <SCORE.SYSTEM.DIHEDRAL>
0

>  <SCORE.SYSTEM.SOLV>
0

>  <SCORE.SYSTEM.norm>
0

>  <SCORE.heavy>
10

>  <SCORE.norm>
-0.940577

>  <RMSD>
1.205

$$$$
ligand
 OpenBabel11021811473D
libRbt.so/2013.1/901 2013/11/27
 10  9  0  0  0  0  0  0  0  0999 V2000
   32.2728   16.0432   20.7822 N   0  0  0  0  0  0  0  0  0  0  0  0
   31.3737   17.0740   21.3723 C   0  0  2  0  0  0  0  0  0  0  0  0
   32.1204   18.0198   22.3131 C   0  0  0  0  0  0  0  0  0  0  0  0
   31.6074   19.0611   22.7353 O   0  0  0  0  0  0  0  0  0  0  0  0
   30.1839   16.4186   22.0783 C   0  0  0  0  0  0  0  0  0  0  0  0
   29.1779   15.7697   21.1369 C   0  0  0  0  0  0  0  0  0  0  0  0
   27.9541   15.2658   21.9013 C   0  0  0  0  0  0  0  0  0  0  0  0
   26.8802   14.7301   20.9609 C   0  0  0  0  0  0  0  0  0  0  0  0
   26.4282   15.7442   19.9635 N   0  0  0  0  0  0  0  0  0  0  0  0
   33.2569   17.7504   22.6963 O   0  0  0  0  0  0  0  0  0  0  0  0
  2  1  1  1  0  0  0
  2  3  1  0  0  0  0
  2  5  1  0  0  0  0
  3  4  1  0  0  0  0
  3 10  1  0  0  0  0
  5  6  1  0  0  0  0
  6  7  1  0  0  0  0
  7  8  1  0  0  0  0
  8  9  1  0  0  0  0
M  END
>  <CHROM.1>
168.40099407,-70.31575270,-174.18271339,174.71233005,-57.54865212,30.15283664
16.61477368,21.61702723,-0.52103383,-0.01094417,-2.60667688

>  <Name>
ligand

>  <RI>
0

>  <Rbt.Current_Directory>
/home/itssahil/PROJECTS/Mol_Feturizer/New_Systems/rnas/3DJ2

>  <Rbt.Executable>
rbdock ($Id: //depot/dev/client3/rdock/2013.1/src/exe/rbdock.cxx#4 $)

>  <Rbt.Library>
libRbt.so (2013.1, Build901 2013/11/27)

>  <Rbt.Parameter_File>
/export/apps/rDock/src/rDock_2013.1_src/data/scripts/dock_solv.prm

>  <Rbt.Receptor>
prm/pocket_docking_5.prm

>  <SCORE>
-8.33763

>  <SCORE.INTER>
-7.50783

>  <SCORE.INTER.CONST>
1

>  <SCORE.INTER.POLAR>
0

>  <SCORE.INTER.ROT>
5

>  <SCORE.INTER.SOLV>
17.3062

>  <SCORE.INTER.VDW>
-17.7073

>  <SCORE.INTER.norm>
-0.750783

>  <SCORE.INTRA>
-0.8298

>  <SCORE.INTRA.DIHEDRAL>
-2.07539

>  <SCORE.INTRA.DIHEDRAL.0>
4.28128

>  <SCORE.INTRA.POLAR>
0

>  <SCORE.INTRA.POLAR.0>
0

>  <SCORE.INTRA.REPUL>
0

>  <SCORE.INTRA.REPUL.0>
0

>  <SCORE.INTRA.SOLV>
0.411848

>  <SCORE.INTRA.SOLV.lig_0>
-32.3374

>  <SCORE.INTRA.VDW>
0.00196879

>  <SCORE.INTRA.VDW.0>
-0.659551

>  <SCORE.INTRA.norm>
-0.08298

>  <SCORE.RESTR>
0

>  <SCORE.RESTR.CAVITY>
0

>  <SCORE.RESTR.norm>
0

>  <SCORE.SYSTEM>
0

>  <SCORE.SYSTEM.CONST>
0

>  <SCORE.SYSTEM.DIHEDRAL>
0

>  <SCORE.SYSTEM.SOLV>
0

>  <SCORE.SYSTEM.norm>
0

>  <SCORE.heavy>
10

>  <SCORE.norm>
-0.833763

>  <RMSD>
1.213

$$$$
ligand
 OpenBabel11021811473D
libRbt.so/2013.1/901 2013/11/27
 10  9  0  0  0  0  0  0  0  0999 V2000
   30.8254   16.8161   20.2037 N   0  0  0  0  0  0  0  0  0  0  0  0
   31.1252   16.7968   21.6628 C   0  0  2  0  0  0  0  0  0  0  0  0
   32.6227   16.9194   21.9453 C   0  0  0  0  0  0  0  0  0  0  0  0
   33.3976   17.4505   21.1433 O   0  0  0  0  0  0  0  0  0  0  0  0
   30.5397   15.5454   22.3223 C   0  0  0  0  0  0  0  0  0  0  0  0
   29.0237   15.4377   22.2237 C   0  0  0  0  0  0  0  0  0  0  0  0
   28.5867   15.1108   20.7960 C   0  0  0  0  0  0  0  0  0  0  0  0
   27.0697   15.1407   20.6473 C   0  0  0  0  0  0  0  0  0  0  0  0
   26.6215   14.8815   19.2476 N   0  0  0  0  0  0  0  0  0  0  0  0
   33.0941   16.5076   23.0032 O   0  0  0  0  0  0  0  0  0  0  0  0
  2  1  1  6  0  0  0
  2  3  1  0  0  0  0
  2  5  1  0  0  0  0
  3  4  1  0  0  0  0
  3 10  1  0  0  0  0
  5  6  1  0  0  0  0
  6  7  1  0  0  0  0
  7  8  1  0  0  0  0
  8  9  1  0  0  0  0
M  END
>  <CHROM.1>
24.58510911,-61.33242937,71.76686914,-174.12384521,177.55643398,30.33443585
16.06886156,21.32963863,-0.15790201,-0.40290448,-1.22196241

>  <Name>
ligand

>  <RI>
0

>  <Rbt.Current_Directory>
/home/itssahil/PROJECTS/Mol_Feturizer/New_Systems/rnas/3DJ2

>  <Rbt.Executable>
rbdock ($Id: //depot/dev/client3/rdock/2013.1/src/exe/rbdock.cxx#4 $)

>  <Rbt.Library>
libRbt.so (2013.1, Build901 2013/11/27)

>  <Rbt.Parameter_File>
/export/apps/rDock/src/rDock_2013.1_src/data/scripts/dock_solv.prm

>  <Rbt.Receptor>
prm/pocket_docking_8.prm

>  <SCORE>
-6.49125

>  <SCORE.INTER>
-6.84344

>  <SCORE.INTER.CONST>
1

>  <SCORE.INTER.POLAR>
0

>  <SCORE.INTER.ROT>
5

>  <SCORE.INTER.SOLV>
15.4486

>  <SCORE.INTER.VDW>
-16.6452

>  <SCORE.INTER.norm>
-0.684344

>  <SCORE.INTRA>
0.349044

>  <SCORE.INTRA.DIHEDRAL>
-2.06345

>  <SCORE.INTRA.DIHEDRAL.0>
4.28128

>  <SCORE.INTRA.POLAR>
0

>  <SCORE.INTRA.POLAR.0>
0

>  <SCORE.INTRA.REPUL>
0

>  <SCORE.INTRA.REPUL.0>
0

>  <SCORE.INTRA.SOLV>
1.10332

>  <SCORE.INTRA.SOLV.lig_0>
-32.3374

>  <SCORE.INTRA.VDW>
0.829109

>  <SCORE.INTRA.VDW.0>
-0.659551

>  <SCORE.INTRA.norm>
0.0349044

>  <SCORE.RESTR>
0.0031506

>  <SCORE.RESTR.CAVITY>
0.0031506

>  <SCORE.RESTR.norm>
0.00031506

>  <SCORE.SYSTEM>
0

>  <SCORE.SYSTEM.CONST>
0

>  <SCORE.SYSTEM.DIHEDRAL>
0

>  <SCORE.SYSTEM.SOLV>
0

>  <SCORE.SYSTEM.norm>
0

>  <SCORE.heavy>
10

>  <SCORE.norm>
-0.649125

>  <RMSD>
1.218

$$$$
ligand
 OpenBabel11021811473D
libRbt.so/2013.1/901 2013/11/27
 10  9  0  0  0  0  0  0  0  0999 V2000
   31.6254   16.7757   20.1752 N   0  0  0  0  0  0  0  0  0  0  0  0
   31.1327   17.1126   21.5402 C   0  0  2  0  0  0  0  0  0  0  0  0
   32.0778   18.0626   22.2760 C   0  0  0  0  0  0  0  0  0  0  0  0
   33.3057   17.9557   22.1945 O   0  0  0  0  0  0  0  0  0  0  0  0
   30.8807   15.8424   22.3568 C   0  0  0  0  0  0  0  0  0  0  0  0
   29.7724   14.9546   21.8064 C   0  0  0  0  0  0  0  0  0  0  0  0
   28.4051   15.6196   21.9636 C   0  0  0  0  0  0  0  0  0  0  0  0
   27.3038   14.8185   21.2782 C   0  0  0  0  0  0  0  0  0  0  0  0
   27.4867   14.7337   19.7994 N   0  0  0  0  0  0  0  0  0  0  0  0
   31.6316   18.9834   22.9572 O   0  0  0  0  0  0  0  0  0  0  0  0
  2  1  1  6  0  0  0
  2  3  1  0  0  0  0
  2  5  1  0  0  0  0
  3  4  1  0  0  0  0
  3 10  1  0  0  0  0
  5  6  1  0  0  0  0
  6  7  1  0  0  0  0
  7  8  1  0  0  0  0
  8  9  1  0  0  0  0
M  END
>  <CHROM.1>
-39.29213852,-64.40095909,-68.85654214,173.54533281,-63.65704762,30.39128782
16.51454667,21.65303978,-0.50979678,-0.43806827,-2.10420758

>  <Name>
ligand

>  <RI>
0

>  <Rbt.Current_Directory>
/home/itssahil/PROJECTS/Mol_Feturizer/New_Systems/rnas/3DJ2

>  <Rbt.Executable>
rbdock ($Id: //depot/dev/client3/rdock/2013.1/src/exe/rbdock.cxx#4 $)

>  <Rbt.Library>
libRbt.so (2013.1, Build901 2013/11/27)

>  <Rbt.Parameter_File>
/export/apps/rDock/src/rDock_2013.1_src/data/scripts/dock_solv.prm

>  <Rbt.Receptor>
prm/blind_docking_100.prm

>  <SCORE>
-9.32409

>  <SCORE.INTER>
-8.67947

>  <SCORE.INTER.CONST>
1

>  <SCORE.INTER.POLAR>
0

>  <SCORE.INTER.ROT>
5

>  <SCORE.INTER.SOLV>
13.1486

>  <SCORE.INTER.VDW>
-17.1025

>  <SCORE.INTER.norm>
-0.867947

>  <SCORE.INTRA>
-0.644626

>  <SCORE.INTRA.DIHEDRAL>
-2.08239

>  <SCORE.INTRA.DIHEDRAL.0>
4.28128

>  <SCORE.INTRA.POLAR>
0

>  <SCORE.INTRA.POLAR.0>
0

>  <SCORE.INTRA.REPUL>
0

>  <SCORE.INTRA.REPUL.0>
0

>  <SCORE.INTRA.SOLV>
0.894621

>  <SCORE.INTRA.SOLV.lig_0>
-32.3374

>  <SCORE.INTRA.VDW>
-0.0507414

>  <SCORE.INTRA.VDW.0>
-0.659551

>  <SCORE.INTRA.norm>
-0.0644626

>  <SCORE.RESTR>
0

>  <SCORE.RESTR.CAVITY>
0

>  <SCORE.RESTR.norm>
0

>  <SCORE.SYSTEM>
0

>  <SCORE.SYSTEM.CONST>
0

>  <SCORE.SYSTEM.DIHEDRAL>
0

>  <SCORE.SYSTEM.SOLV>
0

>  <SCORE.SYSTEM.norm>
0

>  <SCORE.heavy>
10

>  <SCORE.norm>
-0.932409

>  <RMSD>
1.224

$$$$
ligand
 OpenBabel11021811473D
libRbt.so/2013.1/901 2013/11/27
 10  9  0  0  0  0  0  0  0  0999 V2000
   31.0823   16.9123   20.2262 N   0  0  0  0  0  0  0  0  0  0  0  0
   30.9405   17.2412   21.6722 C   0  0  2  0  0  0  0  0  0  0  0  0
   32.2222   17.8353   22.2566 C   0  0  0  0  0  0  0  0  0  0  0  0
   32.2090   18.8440   22.9694 O   0  0  0  0  0  0  0  0  0  0  0  0
   30.4882   16.0139   22.4678 C   0  0  0  0  0  0  0  0  0  0  0  0
   29.0192   15.6563   22.2845 C   0  0  0  0  0  0  0  0  0  0  0  0
   28.7394   15.1935   20.8550 C   0  0  0  0  0  0  0  0  0  0  0  0
   27.2556   14.9281   20.6259 C   0  0  0  0  0  0  0  0  0  0  0  0
   26.9478   14.5503   19.2153 N   0  0  0  0  0  0  0  0  0  0  0  0
   33.3096   17.3016   22.0475 O   0  0  0  0  0  0  0  0  0  0  0  0
  2  1  1  6  0  0  0
  2  3  1  0  0  0  0
  2  5  1  0  0  0  0
  3  4  1  0  0  0  0
  3 10  1  0  0  0  0
  5  6  1  0  0  0  0
  6  7  1  0  0  0  0
  7  8  1  0  0  0  0
  8  9  1  0  0  0  0
M  END
>  <CHROM.1>
133.59441374,-74.84185086,66.65097852,-175.86261243,176.71078633,30.25896541
16.46779189,21.47893524,-0.41732533,-0.50800335,-1.71113435

>  <Name>
ligand

>  <RI>
0

>  <Rbt.Current_Directory>
/home/itssahil/PROJECTS/Mol_Feturizer/New_Systems/rnas/3DJ2

>  <Rbt.Executable>
rbdock ($Id: //depot/dev/client3/rdock/2013.1/src/exe/rbdock.cxx#4 $)

>  <Rbt.Library>
libRbt.so (2013.1, Build901 2013/11/27)

>  <Rbt.Parameter_File>
/export/apps/rDock/src/rDock_2013.1_src/data/scripts/dock_solv.prm

>  <Rbt.Receptor>
prm/blind_docking_100.prm

>  <SCORE>
-7.57677

>  <SCORE.INTER>
-7.27191

>  <SCORE.INTER.CONST>
1

>  <SCORE.INTER.POLAR>
0

>  <SCORE.INTER.ROT>
5

>  <SCORE.INTER.SOLV>
14.788

>  <SCORE.INTER.VDW>
-16.7106

>  <SCORE.INTER.norm>
-0.727191

>  <SCORE.INTRA>
-0.304855

>  <SCORE.INTRA.DIHEDRAL>
-1.63494

>  <SCORE.INTRA.DIHEDRAL.0>
4.28128

>  <SCORE.INTRA.POLAR>
0

>  <SCORE.INTRA.POLAR.0>
0

>  <SCORE.INTRA.REPUL>
0

>  <SCORE.INTRA.REPUL.0>
0

>  <SCORE.INTRA.SOLV>
0.794677

>  <SCORE.INTRA.SOLV.lig_0>
-32.3374

>  <SCORE.INTRA.VDW>
0.115274

>  <SCORE.INTRA.VDW.0>
-0.659551

>  <SCORE.INTRA.norm>
-0.0304855

>  <SCORE.RESTR>
0

>  <SCORE.RESTR.CAVITY>
0

>  <SCORE.RESTR.norm>
0

>  <SCORE.SYSTEM>
0

>  <SCORE.SYSTEM.CONST>
0

>  <SCORE.SYSTEM.DIHEDRAL>
0

>  <SCORE.SYSTEM.SOLV>
0

>  <SCORE.SYSTEM.norm>
0

>  <SCORE.heavy>
10

>  <SCORE.norm>
-0.757677

>  <RMSD>
1.231

$$$$
ligand
 OpenBabel11021811473D
libRbt.so/2013.1/901 2013/11/27
 10  9  0  0  0  0  0  0  0  0999 V2000
   31.3845   16.8822   20.2182 N   0  0  0  0  0  0  0  0  0  0  0  0
   31.0541   17.1210   21.6511 C   0  0  2  0  0  0  0  0  0  0  0  0
   32.1208   17.9583   22.3569 C   0  0  0  0  0  0  0  0  0  0  0  0
   31.8434   19.0076   22.9467 O   0  0  0  0  0  0  0  0  0  0  0  0
   30.8176   15.7974   22.3830 C   0  0  0  0  0  0  0  0  0  0  0  0
   29.7095   14.9410   21.7846 C   0  0  0  0  0  0  0  0  0  0  0  0
   28.3445   15.6063   21.9591 C   0  0  0  0  0  0  0  0  0  0  0  0
   27.2346   14.8062   21.2865 C   0  0  0  0  0  0  0  0  0  0  0  0
   27.4118   14.7028   19.8083 N   0  0  0  0  0  0  0  0  0  0  0  0
   33.2933   17.5895   22.3746 O   0  0  0  0  0  0  0  0  0  0  0  0
  2  1  1  6  0  0  0
  2  3  1  0  0  0  0
  2  5  1  0  0  0  0
  3  4  1  0  0  0  0
  3 10  1  0  0  0  0
  5  6  1  0  0  0  0
  6  7  1  0  0  0  0
  7  8  1  0  0  0  0
  8  9  1  0  0  0  0
M  END
>  <CHROM.1>
124.55539162,-57.91539309,-67.04435699,176.31497353,-62.68524401,30.35355825
16.46681779,21.69534003,-0.46559639,-0.46495510,-1.98153873

>  <Name>
ligand

>  <RI>
0

>  <Rbt.Current_Directory>
/home/itssahil/PROJECTS/Mol_Feturizer/New_Systems/rnas/3DJ2

>  <Rbt.Executable>
rbdock ($Id: //depot/dev/client3/rdock/2013.1/src/exe/rbdock.cxx#4 $)

>  <Rbt.Library>
libRbt.so (2013.1, Build901 2013/11/27)

>  <Rbt.Parameter_File>
/export/apps/rDock/src/rDock_2013.1_src/data/scripts/dock_solv.prm

>  <Rbt.Receptor>
prm/pocket_docking_7.prm

>  <SCORE>
-9.35998

>  <SCORE.INTER>
-8.74719

>  <SCORE.INTER.CONST>
1

>  <SCORE.INTER.POLAR>
0

>  <SCORE.INTER.ROT>
5

>  <SCORE.INTER.SOLV>
13.0934

>  <SCORE.INTER.VDW>
-17.1293

>  <SCORE.INTER.norm>
-0.874719

>  <SCORE.INTRA>
-0.612784

>  <SCORE.INTRA.DIHEDRAL>
-2.46382

>  <SCORE.INTRA.DIHEDRAL.0>
4.28128

>  <SCORE.INTRA.POLAR>
0

>  <SCORE.INTRA.POLAR.0>
0

>  <SCORE.INTRA.REPUL>
0

>  <SCORE.INTRA.REPUL.0>
0

>  <SCORE.INTRA.SOLV>
1.0283

>  <SCORE.INTRA.SOLV.lig_0>
-32.3374

>  <SCORE.INTRA.VDW>
0.104978

>  <SCORE.INTRA.VDW.0>
-0.659551

>  <SCORE.INTRA.norm>
-0.0612784

>  <SCORE.RESTR>
0

>  <SCORE.RESTR.CAVITY>
0

>  <SCORE.RESTR.norm>
0

>  <SCORE.SYSTEM>
0

>  <SCORE.SYSTEM.CONST>
0

>  <SCORE.SYSTEM.DIHEDRAL>
0

>  <SCORE.SYSTEM.SOLV>
0

>  <SCORE.SYSTEM.norm>
0

>  <SCORE.heavy>
10

>  <SCORE.norm>
-0.935998

>  <RMSD>
1.241

$$$$
ligand
 OpenBabel11021811473D
libRbt.so/2013.1/901 2013/11/27
 10  9  0  0  0  0  0  0  0  0999 V2000
   31.5585   16.3287   20.2576 N   0  0  0  0  0  0  0  0  0  0  0  0
   30.8837   16.8689   21.4709 C   0  0  2  0  0  0  0  0  0  0  0  0
   31.7676   17.8591   22.2294 C   0  0  0  0  0  0  0  0  0  0  0  0
   31.3225   18.9191   22.6814 O   0  0  0  0  0  0  0  0  0  0  0  0
   30.4166   15.7332   22.3851 C   0  0  0  0  0  0  0  0  0  0  0  0
   29.3213   14.8597   21.7878 C   0  0  0  0  0  0  0  0  0  0  0  0
   28.0101   15.6340   21.6563 C   0  0  0  0  0  0  0  0  0  0  0  0
   26.9244   14.7992   20.9862 C   0  0  0  0  0  0  0  0  0  0  0  0
   27.2451   14.4669   19.5671 N   0  0  0  0  0  0  0  0  0  0  0  0
   32.9541   17.6093   22.4310 O   0  0  0  0  0  0  0  0  0  0  0  0
  2  1  1  6  0  0  0
  2  3  1  0  0  0  0
  2  5  1  0  0  0  0
  3  4  1  0  0  0  0
  3 10  1  0  0  0  0
  5  6  1  0  0  0  0
  6  7  1  0  0  0  0
  7  8  1  0  0  0  0
  8  9  1  0  0  0  0
M  END
>  <CHROM.1>
136.79622341,-65.92800321,-68.37914913,176.72987924,-65.21165763,30.06852195
16.33659548,21.56477240,-0.60532417,-0.26280145,-2.31523435

>  <Name>
ligand

>  <RI>
0

>  <Rbt.Current_Directory>
/home/itssahil/PROJECTS/Mol_Feturizer/New_Systems/rnas/3DJ2

>  <Rbt.Executable>
rbdock ($Id: //depot/dev/client3/rdock/2013.1/src/exe/rbdock.cxx#4 $)

>  <Rbt.Library>
libRbt.so (2013.1, Build901 2013/11/27)

>  <Rbt.Parameter_File>
/export/apps/rDock/src/rDock_2013.1_src/data/scripts/dock_solv.prm

>  <Rbt.Receptor>
prm/pocket_docking_6.prm

>  <SCORE>
-9.28394

>  <SCORE.INTER>
-8.56699

>  <SCORE.INTER.CONST>
1

>  <SCORE.INTER.POLAR>
0

>  <SCORE.INTER.ROT>
5

>  <SCORE.INTER.SOLV>
14.4482

>  <SCORE.INTER.VDW>
-17.4607

>  <SCORE.INTER.norm>
-0.856699

>  <SCORE.INTRA>
-0.716957

>  <SCORE.INTRA.DIHEDRAL>
-2.20374

>  <SCORE.INTRA.DIHEDRAL.0>
4.28128

>  <SCORE.INTRA.POLAR>
0

>  <SCORE.INTRA.POLAR.0>
0

>  <SCORE.INTRA.REPUL>
0

>  <SCORE.INTRA.REPUL.0>
0

>  <SCORE.INTRA.SOLV>
0.825097

>  <SCORE.INTRA.SOLV.lig_0>
-32.3374

>  <SCORE.INTRA.VDW>
-0.027637

>  <SCORE.INTRA.VDW.0>
-0.659551

>  <SCORE.INTRA.norm>
-0.0716957

>  <SCORE.RESTR>
0

>  <SCORE.RESTR.CAVITY>
0

>  <SCORE.RESTR.norm>
0

>  <SCORE.SYSTEM>
0

>  <SCORE.SYSTEM.CONST>
0

>  <SCORE.SYSTEM.DIHEDRAL>
0

>  <SCORE.SYSTEM.SOLV>
0

>  <SCORE.SYSTEM.norm>
0

>  <SCORE.heavy>
10

>  <SCORE.norm>
-0.928394

>  <RMSD>
1.244

$$$$
ligand
 OpenBabel11021811473D
libRbt.so/2013.1/901 2013/11/27
 10  9  0  0  0  0  0  0  0  0999 V2000
   31.5014   16.2887   20.2498 N   0  0  0  0  0  0  0  0  0  0  0  0
   30.8217   16.8196   21.4645 C   0  0  2  0  0  0  0  0  0  0  0  0
   31.7140   17.7800   22.2510 C   0  0  0  0  0  0  0  0  0  0  0  0
   31.2938   18.8597   22.6793 O   0  0  0  0  0  0  0  0  0  0  0  0
   30.3233   15.6766   22.3526 C   0  0  0  0  0  0  0  0  0  0  0  0
   29.2389   14.8172   21.7162 C   0  0  0  0  0  0  0  0  0  0  0  0
   27.9429   15.6078   21.5392 C   0  0  0  0  0  0  0  0  0  0  0  0
   26.9015   14.8193   20.7530 C   0  0  0  0  0  0  0  0  0  0  0  0
   27.3131   14.5676   19.3407 N   0  0  0  0  0  0  0  0  0  0  0  0
   32.8812   17.4855   22.4998 O   0  0  0  0  0  0  0  0  0  0  0  0
  2  1  1  6  0  0  0
  2  3  1  0  0  0  0
  2  5  1  0  0  0  0
  3  4  1  0  0  0  0
  3 10  1  0  0  0  0
  5  6  1  0  0  0  0
  6  7  1  0  0  0  0
  7  8  1  0  0  0  0
  8  9  1  0  0  0  0
M  END
>  <CHROM.1>
134.40666245,-64.79111080,-67.52029140,173.11829371,-65.48965059,30.02138279
16.30012420,21.50518771,-0.61774967,-0.25125717,-2.26584239

>  <Name>
ligand

>  <RI>
0

>  <Rbt.Current_Directory>
/home/itssahil/PROJECTS/Mol_Feturizer/New_Systems/rnas/3DJ2

>  <Rbt.Executable>
rbdock ($Id: //depot/dev/client3/rdock/2013.1/src/exe/rbdock.cxx#4 $)

>  <Rbt.Library>
libRbt.so (2013.1, Build901 2013/11/27)

>  <Rbt.Parameter_File>
/export/apps/rDock/src/rDock_2013.1_src/data/scripts/dock_solv.prm

>  <Rbt.Receptor>
prm/pocket_docking_3.prm

>  <SCORE>
-9.30662

>  <SCORE.INTER>
-8.64635

>  <SCORE.INTER.CONST>
1

>  <SCORE.INTER.POLAR>
0

>  <SCORE.INTER.ROT>
5

>  <SCORE.INTER.SOLV>
14.0248

>  <SCORE.INTER.VDW>
-17.3725

>  <SCORE.INTER.norm>
-0.864635

>  <SCORE.INTRA>
-0.660266

>  <SCORE.INTRA.DIHEDRAL>
-2.14198

>  <SCORE.INTRA.DIHEDRAL.0>
4.28128

>  <SCORE.INTRA.POLAR>
0

>  <SCORE.INTRA.POLAR.0>
0

>  <SCORE.INTRA.REPUL>
0

>  <SCORE.INTRA.REPUL.0>
0

>  <SCORE.INTRA.SOLV>
0.875494

>  <SCORE.INTRA.SOLV.lig_0>
-32.3374

>  <SCORE.INTRA.VDW>
-0.0270248

>  <SCORE.INTRA.VDW.0>
-0.659551

>  <SCORE.INTRA.norm>
-0.0660266

>  <SCORE.RESTR>
0

>  <SCORE.RESTR.CAVITY>
0

>  <SCORE.RESTR.norm>
0

>  <SCORE.SYSTEM>
0

>  <SCORE.SYSTEM.CONST>
0

>  <SCORE.SYSTEM.DIHEDRAL>
0

>  <SCORE.SYSTEM.SOLV>
0

>  <SCORE.SYSTEM.norm>
0

>  <SCORE.heavy>
10

>  <SCORE.norm>
-0.930662

>  <RMSD>
1.249

$$$$
ligand
 OpenBabel11021811473D
libRbt.so/2013.1/901 2013/11/27
 10  9  0  0  0  0  0  0  0  0999 V2000
   31.1431   16.8860   20.2223 N   0  0  0  0  0  0  0  0  0  0  0  0
   30.9074   17.2451   21.6488 C   0  0  2  0  0  0  0  0  0  0  0  0
   32.1338   17.8948   22.2898 C   0  0  0  0  0  0  0  0  0  0  0  0
   33.2625   17.4034   22.1870 O   0  0  0  0  0  0  0  0  0  0  0  0
   30.4482   16.0234   22.4489 C   0  0  0  0  0  0  0  0  0  0  0  0
   28.9865   15.6513   22.2386 C   0  0  0  0  0  0  0  0  0  0  0  0
   28.7377   15.1857   20.8042 C   0  0  0  0  0  0  0  0  0  0  0  0
   27.2623   14.8978   20.5502 C   0  0  0  0  0  0  0  0  0  0  0  0
   26.9815   14.5324   19.1307 N   0  0  0  0  0  0  0  0  0  0  0  0
   32.0280   18.9497   22.9119 O   0  0  0  0  0  0  0  0  0  0  0  0
  2  1  1  6  0  0  0
  2  3  1  0  0  0  0
  2  5  1  0  0  0  0
  3  4  1  0  0  0  0
  3 10  1  0  0  0  0
  5  6  1  0  0  0  0
  6  7  1  0  0  0  0
  7  8  1  0  0  0  0
  8  9  1  0  0  0  0
M  END
>  <CHROM.1>
-48.61547220,-77.44090122,65.95593777,-176.19964402,176.03066887,30.22517369
16.48901531,21.46108840,-0.44670622,-0.52033771,-1.73197057

>  <Name>
ligand

>  <RI>
0

>  <Rbt.Current_Directory>
/home/itssahil/PROJECTS/Mol_Feturizer/New_Systems/rnas/3DJ2

>  <Rbt.Executable>
rbdock ($Id: //depot/dev/client3/rdock/2013.1/src/exe/rbdock.cxx#4 $)

>  <Rbt.Library>
libRbt.so (2013.1, Build901 2013/11/27)

>  <Rbt.Parameter_File>
/export/apps/rDock/src/rDock_2013.1_src/data/scripts/dock_solv.prm

>  <Rbt.Receptor>
prm/blind_docking_100.prm

>  <SCORE>
-7.53266

>  <SCORE.INTER>
-7.30268

>  <SCORE.INTER.CONST>
1

>  <SCORE.INTER.POLAR>
0

>  <SCORE.INTER.ROT>
5

>  <SCORE.INTER.SOLV>
14.7817

>  <SCORE.INTER.VDW>
-16.729

>  <SCORE.INTER.norm>
-0.730268

>  <SCORE.INTRA>
-0.229979

>  <SCORE.INTRA.DIHEDRAL>
-1.31544

>  <SCORE.INTRA.DIHEDRAL.0>
4.28128

>  <SCORE.INTRA.POLAR>
0

>  <SCORE.INTRA.POLAR.0>
0

>  <SCORE.INTRA.REPUL>
0

>  <SCORE.INTRA.REPUL.0>
0

>  <SCORE.INTRA.SOLV>
0.725446

>  <SCORE.INTRA.SOLV.lig_0>
-32.3374

>  <SCORE.INTRA.VDW>
0.0650197

>  <SCORE.INTRA.VDW.0>
-0.659551

>  <SCORE.INTRA.norm>
-0.0229979

>  <SCORE.RESTR>
0

>  <SCORE.RESTR.CAVITY>
0

>  <SCORE.RESTR.norm>
0

>  <SCORE.SYSTEM>
0

>  <SCORE.SYSTEM.CONST>
0

>  <SCORE.SYSTEM.DIHEDRAL>
0

>  <SCORE.SYSTEM.SOLV>
0

>  <SCORE.SYSTEM.norm>
0

>  <SCORE.heavy>
10

>  <SCORE.norm>
-0.753266

>  <RMSD>
1.253

$$$$
ligand
 OpenBabel11021811473D
libRbt.so/2013.1/901 2013/11/27
 10  9  0  0  0  0  0  0  0  0999 V2000
   31.3210   16.9581   20.1798 N   0  0  0  0  0  0  0  0  0  0  0  0
   31.0629   17.2006   21.6268 C   0  0  2  0  0  0  0  0  0  0  0  0
   32.1342   18.0865   22.2629 C   0  0  0  0  0  0  0  0  0  0  0  0
   31.8498   18.9828   23.0640 O   0  0  0  0  0  0  0  0  0  0  0  0
   30.9201   15.8774   22.3834 C   0  0  0  0  0  0  0  0  0  0  0  0
   29.8162   14.9708   21.8551 C   0  0  0  0  0  0  0  0  0  0  0  0
   28.4422   15.6170   22.0301 C   0  0  0  0  0  0  0  0  0  0  0  0
   27.3403   14.7898   21.3775 C   0  0  0  0  0  0  0  0  0  0  0  0
   27.4710   14.7234   19.8923 N   0  0  0  0  0  0  0  0  0  0  0  0
   33.3233   17.9098   22.0067 O   0  0  0  0  0  0  0  0  0  0  0  0
  2  1  1  6  0  0  0
  2  3  1  0  0  0  0
  2  5  1  0  0  0  0
  3  4  1  0  0  0  0
  3 10  1  0  0  0  0
  5  6  1  0  0  0  0
  6  7  1  0  0  0  0
  7  8  1  0  0  0  0
  8  9  1  0  0  0  0
M  END
>  <CHROM.1>
138.47359227,-57.79330133,-63.99591761,174.08257187,-65.49374142,30.40020782
16.53846659,21.68437302,-0.41025734,-0.53136414,-1.91554524

>  <Name>
ligand

>  <RI>
0

>  <Rbt.Current_Directory>
/home/itssahil/PROJECTS/Mol_Feturizer/New_Systems/rnas/3DJ2

>  <Rbt.Executable>
rbdock ($Id: //depot/dev/client3/rdock/2013.1/src/exe/rbdock.cxx#4 $)

>  <Rbt.Library>
libRbt.so (2013.1, Build901 2013/11/27)

>  <Rbt.Parameter_File>
/export/apps/rDock/src/rDock_2013.1_src/data/scripts/dock_solv.prm

>  <Rbt.Receptor>
prm/blind_docking_60.prm

>  <SCORE>
-9.33948

>  <SCORE.INTER>
-8.74233

>  <SCORE.INTER.CONST>
1

>  <SCORE.INTER.POLAR>
0

>  <SCORE.INTER.ROT>
5

>  <SCORE.INTER.SOLV>
13.0593

>  <SCORE.INTER.VDW>
-17.1147

>  <SCORE.INTER.norm>
-0.874233

>  <SCORE.INTRA>
-0.597155

>  <SCORE.INTRA.DIHEDRAL>
-2.45604

>  <SCORE.INTRA.DIHEDRAL.0>
4.28128

>  <SCORE.INTRA.POLAR>
0

>  <SCORE.INTRA.POLAR.0>
0

>  <SCORE.INTRA.REPUL>
0

>  <SCORE.INTRA.REPUL.0>
0

>  <SCORE.INTRA.SOLV>
1.06103

>  <SCORE.INTRA.SOLV.lig_0>
-32.3374

>  <SCORE.INTRA.VDW>
0.100351

>  <SCORE.INTRA.VDW.0>
-0.659551

>  <SCORE.INTRA.norm>
-0.0597155

>  <SCORE.RESTR>
0

>  <SCORE.RESTR.CAVITY>
0

>  <SCORE.RESTR.norm>
0

>  <SCORE.SYSTEM>
0

>  <SCORE.SYSTEM.CONST>
0

>  <SCORE.SYSTEM.DIHEDRAL>
0

>  <SCORE.SYSTEM.SOLV>
0

>  <SCORE.SYSTEM.norm>
0

>  <SCORE.heavy>
10

>  <SCORE.norm>
-0.933948

>  <RMSD>
1.282

$$$$
ligand
 OpenBabel11021811473D
libRbt.so/2013.1/901 2013/11/27
 10  9  0  0  0  0  0  0  0  0999 V2000
   31.4002   16.4249   20.2269 N   0  0  0  0  0  0  0  0  0  0  0  0
   30.7545   16.8776   21.4908 C   0  0  2  0  0  0  0  0  0  0  0  0
   31.6532   17.8198   22.2919 C   0  0  0  0  0  0  0  0  0  0  0  0
   31.2072   18.8207   22.8620 O   0  0  0  0  0  0  0  0  0  0  0  0
   30.3164   15.6798   22.3375 C   0  0  0  0  0  0  0  0  0  0  0  0
   29.2333   14.8228   21.6956 C   0  0  0  0  0  0  0  0  0  0  0  0
   27.9159   15.5902   21.5874 C   0  0  0  0  0  0  0  0  0  0  0  0
   26.8793   14.8236   20.7737 C   0  0  0  0  0  0  0  0  0  0  0  0
   27.2435   14.7148   19.3305 N   0  0  0  0  0  0  0  0  0  0  0  0
   32.8545   17.5871   22.4093 O   0  0  0  0  0  0  0  0  0  0  0  0
  2  1  1  6  0  0  0
  2  3  1  0  0  0  0
  2  5  1  0  0  0  0
  3  4  1  0  0  0  0
  3 10  1  0  0  0  0
  5  6  1  0  0  0  0
  6  7  1  0  0  0  0
  7  8  1  0  0  0  0
  8  9  1  0  0  0  0
M  END
>  <CHROM.1>
139.18156838,-64.54098849,-66.93428549,171.96497077,-67.89677768,29.97409915
16.34362313,21.52155170,-0.59557290,-0.31191147,-2.17104685

>  <Name>
ligand

>  <RI>
0

>  <Rbt.Current_Directory>
/home/itssahil/PROJECTS/Mol_Feturizer/New_Systems/rnas/3DJ2

>  <Rbt.Executable>
rbdock ($Id: //depot/dev/client3/rdock/2013.1/src/exe/rbdock.cxx#4 $)

>  <Rbt.Library>
libRbt.so (2013.1, Build901 2013/11/27)

>  <Rbt.Parameter_File>
/export/apps/rDock/src/rDock_2013.1_src/data/scripts/dock_solv.prm

>  <Rbt.Receptor>
prm/blind_docking_60.prm

>  <SCORE>
-9.29048

>  <SCORE.INTER>
-8.68158

>  <SCORE.INTER.CONST>
1

>  <SCORE.INTER.POLAR>
0

>  <SCORE.INTER.ROT>
5

>  <SCORE.INTER.SOLV>
13.8682

>  <SCORE.INTER.VDW>
-17.3438

>  <SCORE.INTER.norm>
-0.868158

>  <SCORE.INTRA>
-0.608903

>  <SCORE.INTRA.DIHEDRAL>
-2.00509

>  <SCORE.INTRA.DIHEDRAL.0>
4.28128

>  <SCORE.INTRA.POLAR>
0

>  <SCORE.INTRA.POLAR.0>
0

>  <SCORE.INTRA.REPUL>
0

>  <SCORE.INTRA.REPUL.0>
0

>  <SCORE.INTRA.SOLV>
0.864846

>  <SCORE.INTRA.SOLV.lig_0>
-32.3374

>  <SCORE.INTRA.VDW>
-0.0387818

>  <SCORE.INTRA.VDW.0>
-0.659551

>  <SCORE.INTRA.norm>
-0.0608903

>  <SCORE.RESTR>
0

>  <SCORE.RESTR.CAVITY>
0

>  <SCORE.RESTR.norm>
0

>  <SCORE.SYSTEM>
0

>  <SCORE.SYSTEM.CONST>
0

>  <SCORE.SYSTEM.DIHEDRAL>
0

>  <SCORE.SYSTEM.SOLV>
0

>  <SCORE.SYSTEM.norm>
0

>  <SCORE.heavy>
10

>  <SCORE.norm>
-0.929048

>  <RMSD>
1.288

$$$$
ligand
 OpenBabel11021811473D
libRbt.so/2013.1/901 2013/11/27
 10  9  0  0  0  0  0  0  0  0999 V2000
   32.9647   16.3624   20.9415 N   0  0  0  0  0  0  0  0  0  0  0  0
   31.8331   17.2092   21.4124 C   0  0  2  0  0  0  0  0  0  0  0  0
   32.3078   18.3755   22.2793 C   0  0  0  0  0  0  0  0  0  0  0  0
   31.5161   19.0965   22.8951 O   0  0  0  0  0  0  0  0  0  0  0  0
   30.7899   16.3637   22.1477 C   0  0  0  0  0  0  0  0  0  0  0  0
   30.3075   15.1480   21.3675 C   0  0  0  0  0  0  0  0  0  0  0  0
   29.0984   14.5033   22.0448 C   0  0  0  0  0  0  0  0  0  0  0  0
   27.8077   15.2515   21.7306 C   0  0  0  0  0  0  0  0  0  0  0  0
   27.4738   15.2410   20.2761 N   0  0  0  0  0  0  0  0  0  0  0  0
   33.5075   18.6122   22.4049 O   0  0  0  0  0  0  0  0  0  0  0  0
  2  1  1  1  0  0  0
  2  3  1  0  0  0  0
  2  5  1  0  0  0  0
  3  4  1  0  0  0  0
  3 10  1  0  0  0  0
  5  6  1  0  0  0  0
  6  7  1  0  0  0  0
  7  8  1  0  0  0  0
  8  9  1  0  0  0  0
M  END
>  <CHROM.1>
-171.20690259,-52.30439452,-169.69828667,79.90688609,62.48000126,30.78001616
16.64976921,21.77032847,-0.65255967,-0.12211773,-2.69526915

>  <Name>
ligand

>  <RI>
0

>  <Rbt.Current_Directory>
/home/itssahil/PROJECTS/Mol_Feturizer/New_Systems/rnas/3DJ2

>  <Rbt.Executable>
rbdock ($Id: //depot/dev/client3/rdock/2013.1/src/exe/rbdock.cxx#4 $)

>  <Rbt.Library>
libRbt.so (2013.1, Build901 2013/11/27)

>  <Rbt.Parameter_File>
/export/apps/rDock/src/rDock_2013.1_src/data/scripts/dock_solv.prm

>  <Rbt.Receptor>
prm/pocket_docking_6.prm

>  <SCORE>
-7.34251

>  <SCORE.INTER>
-8.08734

>  <SCORE.INTER.CONST>
1

>  <SCORE.INTER.POLAR>
0

>  <SCORE.INTER.ROT>
5

>  <SCORE.INTER.SOLV>
13.7479

>  <SCORE.INTER.VDW>
-16.9075

>  <SCORE.INTER.norm>
-0.808734

>  <SCORE.INTRA>
0.744822

>  <SCORE.INTRA.DIHEDRAL>
-0.555245

>  <SCORE.INTRA.DIHEDRAL.0>
4.28128

>  <SCORE.INTRA.POLAR>
0

>  <SCORE.INTRA.POLAR.0>
0

>  <SCORE.INTRA.REPUL>
0

>  <SCORE.INTRA.REPUL.0>
0

>  <SCORE.INTRA.SOLV>
0.907315

>  <SCORE.INTRA.SOLV.lig_0>
-32.3374

>  <SCORE.INTRA.VDW>
0.568787

>  <SCORE.INTRA.VDW.0>
-0.659551

>  <SCORE.INTRA.norm>
0.0744822

>  <SCORE.RESTR>
0

>  <SCORE.RESTR.CAVITY>
0

>  <SCORE.RESTR.norm>
0

>  <SCORE.SYSTEM>
0

>  <SCORE.SYSTEM.CONST>
0

>  <SCORE.SYSTEM.DIHEDRAL>
0

>  <SCORE.SYSTEM.SOLV>
0

>  <SCORE.SYSTEM.norm>
0

>  <SCORE.heavy>
10

>  <SCORE.norm>
-0.734251

>  <RMSD>
1.369

$$$$
ligand
 OpenBabel11021811473D
libRbt.so/2013.1/901 2013/11/27
 10  9  0  0  0  0  0  0  0  0999 V2000
   31.1794   16.9765   20.1770 N   0  0  0  0  0  0  0  0  0  0  0  0
   31.1916   17.4704   21.5824 C   0  0  2  0  0  0  0  0  0  0  0  0
   32.5928   17.4374   22.1929 C   0  0  0  0  0  0  0  0  0  0  0  0
   33.0102   16.4574   22.8183 O   0  0  0  0  0  0  0  0  0  0  0  0
   30.1959   16.6881   22.4429 C   0  0  0  0  0  0  0  0  0  0  0  0
   30.1914   15.1870   22.1857 C   0  0  0  0  0  0  0  0  0  0  0  0
   29.3711   14.8438   20.9426 C   0  0  0  0  0  0  0  0  0  0  0  0
   27.8757   15.0129   21.1866 C   0  0  0  0  0  0  0  0  0  0  0  0
   27.0513   14.6390   20.0000 N   0  0  0  0  0  0  0  0  0  0  0  0
   33.3570   18.3901   22.0536 O   0  0  0  0  0  0  0  0  0  0  0  0
  2  1  1  6  0  0  0
  2  3  1  0  0  0  0
  2  5  1  0  0  0  0
  3  4  1  0  0  0  0
  3 10  1  0  0  0  0
  5  6  1  0  0  0  0
  6  7  1  0  0  0  0
  7  8  1  0  0  0  0
  8  9  1  0  0  0  0
M  END
>  <CHROM.1>
-91.30146524,42.12161266,-80.43793235,-72.03102075,-178.06680878,30.64159575
16.31716023,21.57392298,0.09564205,-0.55830507,-0.89464368

>  <Name>
ligand

>  <RI>
0

>  <Rbt.Current_Directory>
/home/itssahil/PROJECTS/Mol_Feturizer/New_Systems/rnas/3DJ2

>  <Rbt.Executable>
rbdock ($Id: //depot/dev/client3/rdock/2013.1/src/exe/rbdock.cxx#4 $)

>  <Rbt.Library>
libRbt.so (2013.1, Build901 2013/11/27)

>  <Rbt.Parameter_File>
/export/apps/rDock/src/rDock_2013.1_src/data/scripts/dock_solv.prm

>  <Rbt.Receptor>
prm/pocket_docking_4.prm

>  <SCORE>
-3.32084

>  <SCORE.INTER>
-5.53251

>  <SCORE.INTER.CONST>
1

>  <SCORE.INTER.POLAR>
0

>  <SCORE.INTER.ROT>
5

>  <SCORE.INTER.SOLV>
14.2897

>  <SCORE.INTER.VDW>
-15.3849

>  <SCORE.INTER.norm>
-0.553251

>  <SCORE.INTRA>
2.21167

>  <SCORE.INTRA.DIHEDRAL>
0.5904

>  <SCORE.INTRA.DIHEDRAL.0>
4.28128

>  <SCORE.INTRA.POLAR>
0

>  <SCORE.INTRA.POLAR.0>
0

>  <SCORE.INTRA.REPUL>
0

>  <SCORE.INTRA.REPUL.0>
0

>  <SCORE.INTRA.SOLV>
1.49674

>  <SCORE.INTRA.SOLV.lig_0>
-32.3374

>  <SCORE.INTRA.VDW>
1.1681

>  <SCORE.INTRA.VDW.0>
-0.659551

>  <SCORE.INTRA.norm>
0.221167

>  <SCORE.RESTR>
0

>  <SCORE.RESTR.CAVITY>
0

>  <SCORE.RESTR.norm>
0

>  <SCORE.SYSTEM>
0

>  <SCORE.SYSTEM.CONST>
0

>  <SCORE.SYSTEM.DIHEDRAL>
0

>  <SCORE.SYSTEM.SOLV>
0

>  <SCORE.SYSTEM.norm>
0

>  <SCORE.heavy>
10

>  <SCORE.norm>
-0.332084

>  <RMSD>
1.389

$$$$
ligand
 OpenBabel11021811473D
libRbt.so/2013.1/901 2013/11/27
 10  9  0  0  0  0  0  0  0  0999 V2000
   31.5627   16.0898   22.6595 N   0  0  0  0  0  0  0  0  0  0  0  0
   31.6562   15.9179   21.1826 C   0  0  2  0  0  0  0  0  0  0  0  0
   32.9648   16.4725   20.6195 C   0  0  0  0  0  0  0  0  0  0  0  0
   33.5087   17.4741   21.0957 O   0  0  0  0  0  0  0  0  0  0  0  0
   30.4458   16.5430   20.4842 C   0  0  0  0  0  0  0  0  0  0  0  0
   29.1306   15.8214   20.7468 C   0  0  0  0  0  0  0  0  0  0  0  0
   28.0043   16.4008   19.8912 C   0  0  0  0  0  0  0  0  0  0  0  0
   26.7306   15.5691   19.9932 C   0  0  0  0  0  0  0  0  0  0  0  0
   26.9115   14.1730   19.4977 N   0  0  0  0  0  0  0  0  0  0  0  0
   33.5274   15.9126   19.6808 O   0  0  0  0  0  0  0  0  0  0  0  0
  2  1  1  1  0  0  0
  2  3  1  0  0  0  0
  2  5  1  0  0  0  0
  3  4  1  0  0  0  0
  3 10  1  0  0  0  0
  5  6  1  0  0  0  0
  6  7  1  0  0  0  0
  7  8  1  0  0  0  0
  8  9  1  0  0  0  0
M  END
>  <CHROM.1>
-34.52132060,-68.19977142,-173.33855278,171.98563551,-62.02201578,30.48585382
16.05067232,20.57470589,0.21796084,0.16031027,1.25952031

>  <Name>
ligand

>  <RI>
0

>  <Rbt.Current_Directory>
/home/itssahil/PROJECTS/Mol_Feturizer/New_Systems/rnas/3DJ2

>  <Rbt.Executable>
rbdock ($Id: //depot/dev/client3/rdock/2013.1/src/exe/rbdock.cxx#4 $)

>  <Rbt.Library>
libRbt.so (2013.1, Build901 2013/11/27)

>  <Rbt.Parameter_File>
/export/apps/rDock/src/rDock_2013.1_src/data/scripts/dock_solv.prm

>  <Rbt.Receptor>
prm/blind_docking_100.prm

>  <SCORE>
-7.93476

>  <SCORE.INTER>
-6.97877

>  <SCORE.INTER.CONST>
1

>  <SCORE.INTER.POLAR>
0

>  <SCORE.INTER.ROT>
5

>  <SCORE.INTER.SOLV>
17.1918

>  <SCORE.INTER.VDW>
-17.3164

>  <SCORE.INTER.norm>
-0.697877

>  <SCORE.INTRA>
-0.955991

>  <SCORE.INTRA.DIHEDRAL>
-1.96558

>  <SCORE.INTRA.DIHEDRAL.0>
4.28128

>  <SCORE.INTRA.POLAR>
0

>  <SCORE.INTRA.POLAR.0>
0

>  <SCORE.INTRA.REPUL>
0

>  <SCORE.INTRA.REPUL.0>
0

>  <SCORE.INTRA.SOLV>
0.383855

>  <SCORE.INTRA.SOLV.lig_0>
-32.3374

>  <SCORE.INTRA.VDW>
-0.165128

>  <SCORE.INTRA.VDW.0>
-0.659551

>  <SCORE.INTRA.norm>
-0.0955991

>  <SCORE.RESTR>
0

>  <SCORE.RESTR.CAVITY>
0

>  <SCORE.RESTR.norm>
0

>  <SCORE.SYSTEM>
0

>  <SCORE.SYSTEM.CONST>
0

>  <SCORE.SYSTEM.DIHEDRAL>
0

>  <SCORE.SYSTEM.SOLV>
0

>  <SCORE.SYSTEM.norm>
0

>  <SCORE.heavy>
10

>  <SCORE.norm>
-0.793476

>  <RMSD>
1.705

$$$$
ligand
 OpenBabel11021811473D
libRbt.so/2013.1/901 2013/11/27
 10  9  0  0  0  0  0  0  0  0999 V2000
   31.4780   17.8305   22.5725 N   0  0  0  0  0  0  0  0  0  0  0  0
   31.8197   16.4585   22.1035 C   0  0  2  0  0  0  0  0  0  0  0  0
   32.3216   16.4512   20.6595 C   0  0  0  0  0  0  0  0  0  0  0  0
   33.3233   15.8134   20.3190 O   0  0  0  0  0  0  0  0  0  0  0  0
   30.6300   15.5111   22.2792 C   0  0  0  0  0  0  0  0  0  0  0  0
   29.4060   15.8845   21.4536 C   0  0  0  0  0  0  0  0  0  0  0  0
   28.2872   14.8586   21.6327 C   0  0  0  0  0  0  0  0  0  0  0  0
   27.1031   15.1464   20.7165 C   0  0  0  0  0  0  0  0  0  0  0  0
   27.4635   15.0814   19.2697 N   0  0  0  0  0  0  0  0  0  0  0  0
   31.7178   17.0697   19.7856 O   0  0  0  0  0  0  0  0  0  0  0  0
  2  1  1  6  0  0  0
  2  3  1  0  0  0  0
  2  5  1  0  0  0  0
  3  4  1  0  0  0  0
  3 10  1  0  0  0  0
  5  6  1  0  0  0  0
  6  7  1  0  0  0  0
  7  8  1  0  0  0  0
  8  9  1  0  0  0  0
M  END
>  <CHROM.1>
134.28607417,63.10745922,177.36387473,-174.76472736,61.78451408,30.37725769
16.01296623,21.04917794,0.15601399,0.28606036,1.37762292

>  <Name>
ligand

>  <RI>
0

>  <Rbt.Current_Directory>
/home/itssahil/PROJECTS/Mol_Feturizer/New_Systems/rnas/3DJ2

>  <Rbt.Executable>
rbdock ($Id: //depot/dev/client3/rdock/2013.1/src/exe/rbdock.cxx#4 $)

>  <Rbt.Library>
libRbt.so (2013.1, Build901 2013/11/27)

>  <Rbt.Parameter_File>
/export/apps/rDock/src/rDock_2013.1_src/data/scripts/dock_solv.prm

>  <Rbt.Receptor>
prm/blind_docking_60.prm

>  <SCORE>
-9.46696

>  <SCORE.INTER>
-8.39301

>  <SCORE.INTER.CONST>
1

>  <SCORE.INTER.POLAR>
0

>  <SCORE.INTER.ROT>
5

>  <SCORE.INTER.SOLV>
13.1291

>  <SCORE.INTER.VDW>
-16.905

>  <SCORE.INTER.norm>
-0.839301

>  <SCORE.INTRA>
-1.07395

>  <SCORE.INTRA.DIHEDRAL>
-2.60261

>  <SCORE.INTRA.DIHEDRAL.0>
4.28128

>  <SCORE.INTRA.POLAR>
0

>  <SCORE.INTRA.POLAR.0>
0

>  <SCORE.INTRA.REPUL>
0

>  <SCORE.INTRA.REPUL.0>
0

>  <SCORE.INTRA.SOLV>
0.439345

>  <SCORE.INTRA.SOLV.lig_0>
-32.3374

>  <SCORE.INTRA.VDW>
0.00768298

>  <SCORE.INTRA.VDW.0>
-0.659551

>  <SCORE.INTRA.norm>
-0.107395

>  <SCORE.RESTR>
0

>  <SCORE.RESTR.CAVITY>
0

>  <SCORE.RESTR.norm>
0

>  <SCORE.SYSTEM>
0

>  <SCORE.SYSTEM.CONST>
0

>  <SCORE.SYSTEM.DIHEDRAL>
0

>  <SCORE.SYSTEM.SOLV>
0

>  <SCORE.SYSTEM.norm>
0

>  <SCORE.heavy>
10

>  <SCORE.norm>
-0.946696

>  <RMSD>
1.877

$$$$
ligand
 OpenBabel11021811473D
libRbt.so/2013.1/901 2013/11/27
 10  9  0  0  0  0  0  0  0  0999 V2000
   31.3335   18.1434   22.4268 N   0  0  0  0  0  0  0  0  0  0  0  0
   31.9516   16.8092   22.1879 C   0  0  2  0  0  0  0  0  0  0  0  0
   32.6098   16.7170   20.8112 C   0  0  0  0  0  0  0  0  0  0  0  0
   33.7941   16.3942   20.6734 O   0  0  0  0  0  0  0  0  0  0  0  0
   30.9251   15.6906   22.3851 C   0  0  0  0  0  0  0  0  0  0  0  0
   29.7718   15.7178   21.3909 C   0  0  0  0  0  0  0  0  0  0  0  0
   28.7217   14.6624   21.7368 C   0  0  0  0  0  0  0  0  0  0  0  0
   27.6350   14.5743   20.6710 C   0  0  0  0  0  0  0  0  0  0  0  0
   26.9097   15.8643   20.4780 N   0  0  0  0  0  0  0  0  0  0  0  0
   31.9601   16.9421   19.7923 O   0  0  0  0  0  0  0  0  0  0  0  0
  2  1  1  6  0  0  0
  2  3  1  0  0  0  0
  2  5  1  0  0  0  0
  3  4  1  0  0  0  0
  3 10  1  0  0  0  0
  5  6  1  0  0  0  0
  6  7  1  0  0  0  0
  7  8  1  0  0  0  0
  8  9  1  0  0  0  0
M  END
>  <CHROM.1>
124.95066642,64.15701713,-174.29999950,-173.93331801,-59.40137542,30.58719943
16.15295500,21.22636357,0.13440474,0.30984656,1.23131466

>  <Name>
ligand

>  <RI>
0

>  <Rbt.Current_Directory>
/home/itssahil/PROJECTS/Mol_Feturizer/New_Systems/rnas/3DJ2

>  <Rbt.Executable>
rbdock ($Id: //depot/dev/client3/rdock/2013.1/src/exe/rbdock.cxx#4 $)

>  <Rbt.Library>
libRbt.so (2013.1, Build901 2013/11/27)

>  <Rbt.Parameter_File>
/export/apps/rDock/src/rDock_2013.1_src/data/scripts/dock_solv.prm

>  <Rbt.Receptor>
prm/pocket_docking_3.prm

>  <SCORE>
-7.05883

>  <SCORE.INTER>
-6.27459

>  <SCORE.INTER.CONST>
1

>  <SCORE.INTER.POLAR>
0

>  <SCORE.INTER.ROT>
5

>  <SCORE.INTER.SOLV>
17.426

>  <SCORE.INTER.VDW>
-16.9251

>  <SCORE.INTER.norm>
-0.627459

>  <SCORE.INTRA>
-0.78424

>  <SCORE.INTRA.DIHEDRAL>
-2.41992

>  <SCORE.INTRA.DIHEDRAL.0>
4.28128

>  <SCORE.INTRA.POLAR>
0

>  <SCORE.INTRA.POLAR.0>
0

>  <SCORE.INTRA.REPUL>
0

>  <SCORE.INTRA.REPUL.0>
0

>  <SCORE.INTRA.SOLV>
0.440142

>  <SCORE.INTRA.SOLV.lig_0>
-32.3374

>  <SCORE.INTRA.VDW>
0.205649

>  <SCORE.INTRA.VDW.0>
-0.659551

>  <SCORE.INTRA.norm>
-0.078424

>  <SCORE.RESTR>
0

>  <SCORE.RESTR.CAVITY>
0

>  <SCORE.RESTR.norm>
0

>  <SCORE.SYSTEM>
0

>  <SCORE.SYSTEM.CONST>
0

>  <SCORE.SYSTEM.DIHEDRAL>
0

>  <SCORE.SYSTEM.SOLV>
0

>  <SCORE.SYSTEM.norm>
0

>  <SCORE.heavy>
10

>  <SCORE.norm>
-0.705883

>  <RMSD>
1.915

$$$$
ligand
 OpenBabel11021811473D
libRbt.so/2013.1/901 2013/11/27
 10  9  0  0  0  0  0  0  0  0999 V2000
   31.0057   15.6277   22.4525 N   0  0  0  0  0  0  0  0  0  0  0  0
   31.1477   15.8051   20.9802 C   0  0  2  0  0  0  0  0  0  0  0  0
   32.5633   16.2249   20.5840 C   0  0  0  0  0  0  0  0  0  0  0  0
   33.0608   15.9039   19.4999 O   0  0  0  0  0  0  0  0  0  0  0  0
   30.1088   16.7960   20.4487 C   0  0  0  0  0  0  0  0  0  0  0  0
   28.6943   16.2371   20.3698 C   0  0  0  0  0  0  0  0  0  0  0  0
   28.5958   15.1348   19.3156 C   0  0  0  0  0  0  0  0  0  0  0  0
   27.1778   14.5867   19.2002 C   0  0  0  0  0  0  0  0  0  0  0  0
   27.0608   13.4969   18.1873 N   0  0  0  0  0  0  0  0  0  0  0  0
   33.2411   16.9222   21.3360 O   0  0  0  0  0  0  0  0  0  0  0  0
  2  1  1  1  0  0  0
  2  3  1  0  0  0  0
  2  5  1  0  0  0  0
  3  4  1  0  0  0  0
  3 10  1  0  0  0  0
  5  6  1  0  0  0  0
  6  7  1  0  0  0  0
  7  8  1  0  0  0  0
  8  9  1  0  0  0  0
M  END
>  <CHROM.1>
149.22997639,-74.55041020,-67.05728062,-178.64019400,-179.31372419,30.30749507
15.68569059,20.23220042,0.45845876,0.17745682,1.14067640

>  <Name>
ligand

>  <RI>
0

>  <Rbt.Current_Directory>
/home/itssahil/PROJECTS/Mol_Feturizer/New_Systems/rnas/3DJ2

>  <Rbt.Executable>
rbdock ($Id: //depot/dev/client3/rdock/2013.1/src/exe/rbdock.cxx#4 $)

>  <Rbt.Library>
libRbt.so (2013.1, Build901 2013/11/27)

>  <Rbt.Parameter_File>
/export/apps/rDock/src/rDock_2013.1_src/data/scripts/dock_solv.prm

>  <Rbt.Receptor>
prm/blind_docking_100.prm

>  <SCORE>
-7.78116

>  <SCORE.INTER>
-6.71472

>  <SCORE.INTER.CONST>
1

>  <SCORE.INTER.POLAR>
0

>  <SCORE.INTER.ROT>
5

>  <SCORE.INTER.SOLV>
17.9769

>  <SCORE.INTER.VDW>
-17.4021

>  <SCORE.INTER.norm>
-0.671472

>  <SCORE.INTRA>
-1.06645

>  <SCORE.INTRA.DIHEDRAL>
-1.76519

>  <SCORE.INTRA.DIHEDRAL.0>
4.28128

>  <SCORE.INTRA.POLAR>
0

>  <SCORE.INTRA.POLAR.0>
0

>  <SCORE.INTRA.REPUL>
0

>  <SCORE.INTRA.REPUL.0>
0

>  <SCORE.INTRA.SOLV>
-0.21097

>  <SCORE.INTRA.SOLV.lig_0>
-32.3374

>  <SCORE.INTRA.VDW>
-0.0783651

>  <SCORE.INTRA.VDW.0>
-0.659551

>  <SCORE.INTRA.norm>
-0.106645

>  <SCORE.RESTR>
0

>  <SCORE.RESTR.CAVITY>
0

>  <SCORE.RESTR.norm>
0

>  <SCORE.SYSTEM>
0

>  <SCORE.SYSTEM.CONST>
0

>  <SCORE.SYSTEM.DIHEDRAL>
0

>  <SCORE.SYSTEM.SOLV>
0

>  <SCORE.SYSTEM.norm>
0

>  <SCORE.heavy>
10

>  <SCORE.norm>
-0.778116

>  <RMSD>
1.920

$$$$
ligand
 OpenBabel11021811473D
libRbt.so/2013.1/901 2013/11/27
 10  9  0  0  0  0  0  0  0  0999 V2000
   31.4168   17.3315   22.4403 N   0  0  0  0  0  0  0  0  0  0  0  0
   31.7159   16.0924   21.6693 C   0  0  2  0  0  0  0  0  0  0  0  0
   32.7340   16.3381   20.5557 C   0  0  0  0  0  0  0  0  0  0  0  0
   33.5624   17.2523   20.6176 O   0  0  0  0  0  0  0  0  0  0  0  0
   30.4304   15.4725   21.1152 C   0  0  0  0  0  0  0  0  0  0  0  0
   29.4143   15.0827   22.1805 C   0  0  0  0  0  0  0  0  0  0  0  0
   28.1345   14.5374   21.5474 C   0  0  0  0  0  0  0  0  0  0  0  0
   27.3904   15.6105   20.7604 C   0  0  0  0  0  0  0  0  0  0  0  0
   26.0583   15.1484   20.2714 N   0  0  0  0  0  0  0  0  0  0  0  0
   32.7684   15.6062   19.5687 O   0  0  0  0  0  0  0  0  0  0  0  0
  2  1  1  6  0  0  0
  2  3  1  0  0  0  0
  2  5  1  0  0  0  0
  3  4  1  0  0  0  0
  3 10  1  0  0  0  0
  5  6  1  0  0  0  0
  6  7  1  0  0  0  0
  7  8  1  0  0  0  0
  8  9  1  0  0  0  0
M  END
>  <CHROM.1>
26.00623191,-59.77099501,177.17324513,-66.20469654,-173.08070246,30.39781924
15.85458869,21.04831345,0.05067193,0.25638013,1.22717227

>  <Name>
ligand

>  <RI>
0

>  <Rbt.Current_Directory>
/home/itssahil/PROJECTS/Mol_Feturizer/New_Systems/rnas/3DJ2

>  <Rbt.Executable>
rbdock ($Id: //depot/dev/client3/rdock/2013.1/src/exe/rbdock.cxx#4 $)

>  <Rbt.Library>
libRbt.so (2013.1, Build901 2013/11/27)

>  <Rbt.Parameter_File>
/export/apps/rDock/src/rDock_2013.1_src/data/scripts/dock_solv.prm

>  <Rbt.Receptor>
prm/pocket_docking_7.prm

>  <SCORE>
-8.85228

>  <SCORE.INTER>
-8.56635

>  <SCORE.INTER.CONST>
1

>  <SCORE.INTER.POLAR>
0

>  <SCORE.INTER.ROT>
5

>  <SCORE.INTER.SOLV>
17.3529

>  <SCORE.INTER.VDW>
-18.4285

>  <SCORE.INTER.norm>
-0.856635

>  <SCORE.INTRA>
-0.285931

>  <SCORE.INTRA.DIHEDRAL>
-2.43166

>  <SCORE.INTRA.DIHEDRAL.0>
4.28128

>  <SCORE.INTRA.POLAR>
0

>  <SCORE.INTRA.POLAR.0>
0

>  <SCORE.INTRA.REPUL>
0

>  <SCORE.INTRA.REPUL.0>
0

>  <SCORE.INTRA.SOLV>
-0.213939

>  <SCORE.INTRA.SOLV.lig_0>
-32.3374

>  <SCORE.INTRA.VDW>
1.03687

>  <SCORE.INTRA.VDW.0>
-0.659551

>  <SCORE.INTRA.norm>
-0.0285931

>  <SCORE.RESTR>
0

>  <SCORE.RESTR.CAVITY>
0

>  <SCORE.RESTR.norm>
0

>  <SCORE.SYSTEM>
0

>  <SCORE.SYSTEM.CONST>
0

>  <SCORE.SYSTEM.DIHEDRAL>
0

>  <SCORE.SYSTEM.SOLV>
0

>  <SCORE.SYSTEM.norm>
0

>  <SCORE.heavy>
10

>  <SCORE.norm>
-0.885228

>  <RMSD>
1.924

$$$$
ligand
 OpenBabel11021811473D
libRbt.so/2013.1/901 2013/11/27
 10  9  0  0  0  0  0  0  0  0999 V2000
   32.2960   17.7321   22.5686 N   0  0  0  0  0  0  0  0  0  0  0  0
   31.6991   16.5551   21.8774 C   0  0  2  0  0  0  0  0  0  0  0  0
   32.4565   16.1913   20.6002 C   0  0  0  0  0  0  0  0  0  0  0  0
   32.0309   15.3460   19.8064 O   0  0  0  0  0  0  0  0  0  0  0  0
   30.2133   16.7880   21.5909 C   0  0  0  0  0  0  0  0  0  0  0  0
   29.4577   15.5402   21.1532 C   0  0  0  0  0  0  0  0  0  0  0  0
   27.9956   15.8617   20.8450 C   0  0  0  0  0  0  0  0  0  0  0  0
   27.2655   14.6628   20.2501 C   0  0  0  0  0  0  0  0  0  0  0  0
   27.8247   14.2423   18.9319 N   0  0  0  0  0  0  0  0  0  0  0  0
   33.5104   16.7569   20.3169 O   0  0  0  0  0  0  0  0  0  0  0  0
  2  1  1  6  0  0  0
  2  3  1  0  0  0  0
  2  5  1  0  0  0  0
  3  4  1  0  0  0  0
  3 10  1  0  0  0  0
  5  6  1  0  0  0  0
  6  7  1  0  0  0  0
  7  8  1  0  0  0  0
  8  9  1  0  0  0  0
M  END
>  <CHROM.1>
-171.52933571,-167.94691452,-178.23970330,173.30493896,-63.40626876,30.50221296
15.96258186,20.76864968,0.39035857,0.18235133,0.94543085

>  <Name>
ligand

>  <RI>
0

>  <Rbt.Current_Directory>
/home/itssahil/PROJECTS/Mol_Feturizer/New_Systems/rnas/3DJ2

>  <Rbt.Executable>
rbdock ($Id: //depot/dev/client3/rdock/2013.1/src/exe/rbdock.cxx#4 $)

>  <Rbt.Library>
libRbt.so (2013.1, Build901 2013/11/27)

>  <Rbt.Parameter_File>
/export/apps/rDock/src/rDock_2013.1_src/data/scripts/dock_solv.prm

>  <Rbt.Receptor>
prm/blind_docking_60.prm

>  <SCORE>
-8.17986

>  <SCORE.INTER>
-7.37258

>  <SCORE.INTER.CONST>
1

>  <SCORE.INTER.POLAR>
0

>  <SCORE.INTER.ROT>
5

>  <SCORE.INTER.SOLV>
13.6483

>  <SCORE.INTER.VDW>
-16.3978

>  <SCORE.INTER.norm>
-0.737258

>  <SCORE.INTRA>
-0.807276

>  <SCORE.INTRA.DIHEDRAL>
-1.97652

>  <SCORE.INTRA.DIHEDRAL.0>
4.28128

>  <SCORE.INTRA.POLAR>
0

>  <SCORE.INTRA.POLAR.0>
0

>  <SCORE.INTRA.REPUL>
0

>  <SCORE.INTRA.REPUL.0>
0

>  <SCORE.INTRA.SOLV>
-0.375929

>  <SCORE.INTRA.SOLV.lig_0>
-32.3374

>  <SCORE.INTRA.VDW>
0.368951

>  <SCORE.INTRA.VDW.0>
-0.659551

>  <SCORE.INTRA.norm>
-0.0807276

>  <SCORE.RESTR>
0

>  <SCORE.RESTR.CAVITY>
0

>  <SCORE.RESTR.norm>
0

>  <SCORE.SYSTEM>
0

>  <SCORE.SYSTEM.CONST>
0

>  <SCORE.SYSTEM.DIHEDRAL>
0

>  <SCORE.SYSTEM.SOLV>
0

>  <SCORE.SYSTEM.norm>
0

>  <SCORE.heavy>
10

>  <SCORE.norm>
-0.817986

>  <RMSD>
1.931

$$$$
ligand
 OpenBabel11021811473D
libRbt.so/2013.1/901 2013/11/27
 10  9  0  0  0  0  0  0  0  0999 V2000
   31.0733   17.4753   22.3441 N   0  0  0  0  0  0  0  0  0  0  0  0
   31.6513   16.1834   21.8790 C   0  0  2  0  0  0  0  0  0  0  0  0
   32.6665   16.3784   20.7527 C   0  0  0  0  0  0  0  0  0  0  0  0
   32.7151   15.6207   19.7783 O   0  0  0  0  0  0  0  0  0  0  0  0
   30.5449   15.2107   21.4626 C   0  0  0  0  0  0  0  0  0  0  0  0
   29.6965   15.6920   20.2930 C   0  0  0  0  0  0  0  0  0  0  0  0
   28.7174   14.6091   19.8406 C   0  0  0  0  0  0  0  0  0  0  0  0
   27.9987   14.9974   18.5533 C   0  0  0  0  0  0  0  0  0  0  0  0
   27.1426   13.8992   18.0162 N   0  0  0  0  0  0  0  0  0  0  0  0
   33.4544   17.3215   20.7788 O   0  0  0  0  0  0  0  0  0  0  0  0
  2  1  1  6  0  0  0
  2  3  1  0  0  0  0
  2  5  1  0  0  0  0
  3  4  1  0  0  0  0
  3 10  1  0  0  0  0
  5  6  1  0  0  0  0
  6  7  1  0  0  0  0
  7  8  1  0  0  0  0
  8  9  1  0  0  0  0
M  END
>  <CHROM.1>
-139.08814758,62.28125347,173.88295739,-172.01689892,174.11330406,30.59914749
15.74696369,20.35109940,0.57847771,0.23087550,1.15240279

>  <Name>
ligand

>  <RI>
0

>  <Rbt.Current_Directory>
/home/itssahil/PROJECTS/Mol_Feturizer/New_Systems/rnas/3DJ2

>  <Rbt.Executable>
rbdock ($Id: //depot/dev/client3/rdock/2013.1/src/exe/rbdock.cxx#4 $)

>  <Rbt.Library>
libRbt.so (2013.1, Build901 2013/11/27)

>  <Rbt.Parameter_File>
/export/apps/rDock/src/rDock_2013.1_src/data/scripts/dock_solv.prm

>  <Rbt.Receptor>
prm/pocket_docking_8.prm

>  <SCORE>
-7.54676

>  <SCORE.INTER>
-6.7846

>  <SCORE.INTER.CONST>
1

>  <SCORE.INTER.POLAR>
0

>  <SCORE.INTER.ROT>
5

>  <SCORE.INTER.SOLV>
16.546

>  <SCORE.INTER.VDW>
-16.9717

>  <SCORE.INTER.norm>
-0.67846

>  <SCORE.INTRA>
-0.762166

>  <SCORE.INTRA.DIHEDRAL>
-2.15098

>  <SCORE.INTRA.DIHEDRAL.0>
4.28128

>  <SCORE.INTRA.POLAR>
0

>  <SCORE.INTRA.POLAR.0>
0

>  <SCORE.INTRA.REPUL>
0

>  <SCORE.INTRA.REPUL.0>
0

>  <SCORE.INTRA.SOLV>
-0.50248

>  <SCORE.INTRA.SOLV.lig_0>
-32.3374

>  <SCORE.INTRA.VDW>
0.564564

>  <SCORE.INTRA.VDW.0>
-0.659551

>  <SCORE.INTRA.norm>
-0.0762166

>  <SCORE.RESTR>
0

>  <SCORE.RESTR.CAVITY>
0

>  <SCORE.RESTR.norm>
0

>  <SCORE.SYSTEM>
0

>  <SCORE.SYSTEM.CONST>
0

>  <SCORE.SYSTEM.DIHEDRAL>
0

>  <SCORE.SYSTEM.SOLV>
0

>  <SCORE.SYSTEM.norm>
0

>  <SCORE.heavy>
10

>  <SCORE.norm>
-0.754676

>  <RMSD>
1.963

$$$$
ligand
 OpenBabel11021811473D
libRbt.so/2013.1/901 2013/11/27
 10  9  0  0  0  0  0  0  0  0999 V2000
   31.9539   17.8275   22.4801 N   0  0  0  0  0  0  0  0  0  0  0  0
   31.4411   16.6922   21.6631 C   0  0  2  0  0  0  0  0  0  0  0  0
   32.4135   16.2962   20.5519 C   0  0  0  0  0  0  0  0  0  0  0  0
   33.4873   16.8831   20.3834 O   0  0  0  0  0  0  0  0  0  0  0  0
   30.0554   17.0120   21.0961 C   0  0  0  0  0  0  0  0  0  0  0  0
   29.3080   15.8019   20.5516 C   0  0  0  0  0  0  0  0  0  0  0  0
   27.9097   16.1890   20.0709 C   0  0  0  0  0  0  0  0  0  0  0  0
   27.1309   14.9807   19.5631 C   0  0  0  0  0  0  0  0  0  0  0  0
   27.7826   14.3245   18.3917 N   0  0  0  0  0  0  0  0  0  0  0  0
   32.1568   15.3552   19.8038 O   0  0  0  0  0  0  0  0  0  0  0  0
  2  1  1  6  0  0  0
  2  3  1  0  0  0  0
  2  5  1  0  0  0  0
  3  4  1  0  0  0  0
  3 10  1  0  0  0  0
  5  6  1  0  0  0  0
  6  7  1  0  0  0  0
  7  8  1  0  0  0  0
  8  9  1  0  0  0  0
M  END
>  <CHROM.1>
-0.35675539,-165.35031380,177.08682917,-178.19508264,-61.57131850,30.39580810
16.12951004,20.43546871,0.46679001,0.04868012,0.86810214

>  <Name>
ligand

>  <RI>
0

>  <Rbt.Current_Directory>
/home/itssahil/PROJECTS/Mol_Feturizer/New_Systems/rnas/3DJ2

>  <Rbt.Executable>
rbdock ($Id: //depot/dev/client3/rdock/2013.1/src/exe/rbdock.cxx#4 $)

>  <Rbt.Library>
libRbt.so (2013.1, Build901 2013/11/27)

>  <Rbt.Parameter_File>
/export/apps/rDock/src/rDock_2013.1_src/data/scripts/dock_solv.prm

>  <Rbt.Receptor>
prm/pocket_docking_6.prm

>  <SCORE>
-8.55127

>  <SCORE.INTER>
-7.57481

>  <SCORE.INTER.CONST>
1

>  <SCORE.INTER.POLAR>
0

>  <SCORE.INTER.ROT>
5

>  <SCORE.INTER.SOLV>
14.0131

>  <SCORE.INTER.VDW>
-16.6542

>  <SCORE.INTER.norm>
-0.757481

>  <SCORE.INTRA>
-0.97646

>  <SCORE.INTRA.DIHEDRAL>
-1.92934

>  <SCORE.INTRA.DIHEDRAL.0>
4.28128

>  <SCORE.INTRA.POLAR>
0

>  <SCORE.INTRA.POLAR.0>
0

>  <SCORE.INTRA.REPUL>
0

>  <SCORE.INTRA.REPUL.0>
0

>  <SCORE.INTRA.SOLV>
-0.401863

>  <SCORE.INTRA.SOLV.lig_0>
-32.3374

>  <SCORE.INTRA.VDW>
0.189142

>  <SCORE.INTRA.VDW.0>
-0.659551

>  <SCORE.INTRA.norm>
-0.097646

>  <SCORE.RESTR>
0

>  <SCORE.RESTR.CAVITY>
0

>  <SCORE.RESTR.norm>
0

>  <SCORE.SYSTEM>
0

>  <SCORE.SYSTEM.CONST>
0

>  <SCORE.SYSTEM.DIHEDRAL>
0

>  <SCORE.SYSTEM.SOLV>
0

>  <SCORE.SYSTEM.norm>
0

>  <SCORE.heavy>
10

>  <SCORE.norm>
-0.855127

>  <RMSD>
2.008

$$$$
ligand
 OpenBabel11021811473D
libRbt.so/2013.1/901 2013/11/27
 10  9  0  0  0  0  0  0  0  0999 V2000
   31.0089   16.8675   22.4889 N   0  0  0  0  0  0  0  0  0  0  0  0
   31.1713   15.9610   21.3179 C   0  0  2  0  0  0  0  0  0  0  0  0
   32.4471   16.2596   20.5304 C   0  0  0  0  0  0  0  0  0  0  0  0
   32.7562   15.6196   19.5200 O   0  0  0  0  0  0  0  0  0  0  0  0
   29.9381   16.0155   20.4124 C   0  0  0  0  0  0  0  0  0  0  0  0
   28.6402   15.6094   21.0980 C   0  0  0  0  0  0  0  0  0  0  0  0
   27.4526   15.7283   20.1433 C   0  0  0  0  0  0  0  0  0  0  0  0
   27.4045   14.5705   19.1525 C   0  0  0  0  0  0  0  0  0  0  0  0
   28.5742   14.5548   18.2258 N   0  0  0  0  0  0  0  0  0  0  0  0
   33.1945   17.1725   20.8753 O   0  0  0  0  0  0  0  0  0  0  0  0
  2  1  1  1  0  0  0
  2  3  1  0  0  0  0
  2  5  1  0  0  0  0
  3  4  1  0  0  0  0
  3 10  1  0  0  0  0
  5  6  1  0  0  0  0
  6  7  1  0  0  0  0
  7  8  1  0  0  0  0
  8  9  1  0  0  0  0
M  END
>  <CHROM.1>
-179.62654199,-59.66055643,178.35241105,76.85485459,-64.71583069,30.29706731
15.84461418,20.36252870,0.38050348,0.16105219,1.11843230

>  <Name>
ligand

>  <RI>
0

>  <Rbt.Current_Directory>
/home/itssahil/PROJECTS/Mol_Feturizer/New_Systems/rnas/3DJ2

>  <Rbt.Executable>
rbdock ($Id: //depot/dev/client3/rdock/2013.1/src/exe/rbdock.cxx#4 $)

>  <Rbt.Library>
libRbt.so (2013.1, Build901 2013/11/27)

>  <Rbt.Parameter_File>
/export/apps/rDock/src/rDock_2013.1_src/data/scripts/dock_solv.prm

>  <Rbt.Receptor>
prm/blind_docking_100.prm

>  <SCORE>
-8.06788

>  <SCORE.INTER>
-8.80336

>  <SCORE.INTER.CONST>
1

>  <SCORE.INTER.POLAR>
0

>  <SCORE.INTER.ROT>
5

>  <SCORE.INTER.SOLV>
12.3985

>  <SCORE.INTER.VDW>
-16.9351

>  <SCORE.INTER.norm>
-0.880336

>  <SCORE.INTRA>
0.735479

>  <SCORE.INTRA.DIHEDRAL>
-1.54909

>  <SCORE.INTRA.DIHEDRAL.0>
4.28128

>  <SCORE.INTRA.POLAR>
0

>  <SCORE.INTRA.POLAR.0>
0

>  <SCORE.INTRA.REPUL>
0

>  <SCORE.INTRA.REPUL.0>
0

>  <SCORE.INTRA.SOLV>
1.86888

>  <SCORE.INTRA.SOLV.lig_0>
-32.3374

>  <SCORE.INTRA.VDW>
0.575583

>  <SCORE.INTRA.VDW.0>
-0.659551

>  <SCORE.INTRA.norm>
0.0735479

>  <SCORE.RESTR>
0

>  <SCORE.RESTR.CAVITY>
0

>  <SCORE.RESTR.norm>
0

>  <SCORE.SYSTEM>
0

>  <SCORE.SYSTEM.CONST>
0

>  <SCORE.SYSTEM.DIHEDRAL>
0

>  <SCORE.SYSTEM.SOLV>
0

>  <SCORE.SYSTEM.norm>
0

>  <SCORE.heavy>
10

>  <SCORE.norm>
-0.806788

>  <RMSD>
2.020

$$$$
ligand
 OpenBabel11021811473D
libRbt.so/2013.1/901 2013/11/27
 10  9  0  0  0  0  0  0  0  0999 V2000
   31.1359   17.5508   22.2266 N   0  0  0  0  0  0  0  0  0  0  0  0
   31.4045   16.1004   22.0179 C   0  0  2  0  0  0  0  0  0  0  0  0
   32.0624   15.8247   20.6657 C   0  0  0  0  0  0  0  0  0  0  0  0
   31.4768   15.2123   19.7669 O   0  0  0  0  0  0  0  0  0  0  0  0
   30.1230   15.2798   22.1859 C   0  0  0  0  0  0  0  0  0  0  0  0
   28.9923   15.6874   21.2507 C   0  0  0  0  0  0  0  0  0  0  0  0
   27.7436   14.8403   21.4947 C   0  0  0  0  0  0  0  0  0  0  0  0
   26.6664   15.1053   20.4489 C   0  0  0  0  0  0  0  0  0  0  0  0
   27.1197   14.7939   19.0615 N   0  0  0  0  0  0  0  0  0  0  0  0
   33.1975   16.2327   20.4290 O   0  0  0  0  0  0  0  0  0  0  0  0
  2  1  1  6  0  0  0
  2  3  1  0  0  0  0
  2  5  1  0  0  0  0
  3  4  1  0  0  0  0
  3 10  1  0  0  0  0
  5  6  1  0  0  0  0
  6  7  1  0  0  0  0
  7  8  1  0  0  0  0
  8  9  1  0  0  0  0
M  END
>  <CHROM.1>
-112.41498490,57.77825245,-179.04436176,-172.42922767,60.27806191,30.01834758
15.65884877,20.92745132,0.21218895,0.18206667,1.18079453

>  <Name>
ligand

>  <RI>
0

>  <Rbt.Current_Directory>
/home/itssahil/PROJECTS/Mol_Feturizer/New_Systems/rnas/3DJ2

>  <Rbt.Executable>
rbdock ($Id: //depot/dev/client3/rdock/2013.1/src/exe/rbdock.cxx#4 $)

>  <Rbt.Library>
libRbt.so (2013.1, Build901 2013/11/27)

>  <Rbt.Parameter_File>
/export/apps/rDock/src/rDock_2013.1_src/data/scripts/dock_solv.prm

>  <Rbt.Receptor>
prm/blind_docking_60.prm

>  <SCORE>
-9.85063

>  <SCORE.INTER>
-9.67262

>  <SCORE.INTER.CONST>
1

>  <SCORE.INTER.POLAR>
0

>  <SCORE.INTER.ROT>
5

>  <SCORE.INTER.SOLV>
14.6904

>  <SCORE.INTER.VDW>
-18.2785

>  <SCORE.INTER.norm>
-0.967262

>  <SCORE.INTRA>
-0.178012

>  <SCORE.INTRA.DIHEDRAL>
-2.50607

>  <SCORE.INTRA.DIHEDRAL.0>
4.28128

>  <SCORE.INTRA.POLAR>
0

>  <SCORE.INTRA.POLAR.0>
0

>  <SCORE.INTRA.REPUL>
0

>  <SCORE.INTRA.REPUL.0>
0

>  <SCORE.INTRA.SOLV>
0.557484

>  <SCORE.INTRA.SOLV.lig_0>
-32.3374

>  <SCORE.INTRA.VDW>
0.796278

>  <SCORE.INTRA.VDW.0>
-0.659551

>  <SCORE.INTRA.norm>
-0.0178012

>  <SCORE.RESTR>
0

>  <SCORE.RESTR.CAVITY>
0

>  <SCORE.RESTR.norm>
0

>  <SCORE.SYSTEM>
0

>  <SCORE.SYSTEM.CONST>
0

>  <SCORE.SYSTEM.DIHEDRAL>
0

>  <SCORE.SYSTEM.SOLV>
0

>  <SCORE.SYSTEM.norm>
0

>  <SCORE.heavy>
10

>  <SCORE.norm>
-0.985063

>  <RMSD>
2.031

$$$$
ligand
 OpenBabel11021811473D
libRbt.so/2013.1/901 2013/11/27
 10  9  0  0  0  0  0  0  0  0999 V2000
   31.0054   17.4802   22.6440 N   0  0  0  0  0  0  0  0  0  0  0  0
   31.3127   16.1424   22.0649 C   0  0  2  0  0  0  0  0  0  0  0  0
   31.8435   16.2415   20.6347 C   0  0  0  0  0  0  0  0  0  0  0  0
   31.4983   17.1489   19.8709 O   0  0  0  0  0  0  0  0  0  0  0  0
   30.0901   15.2239   22.1376 C   0  0  0  0  0  0  0  0  0  0  0  0
   28.8927   15.7116   21.3327 C   0  0  0  0  0  0  0  0  0  0  0  0
   27.6945   14.7792   21.5085 C   0  0  0  0  0  0  0  0  0  0  0  0
   26.5862   15.0865   20.5076 C   0  0  0  0  0  0  0  0  0  0  0  0
   27.0207   14.9048   19.0915 N   0  0  0  0  0  0  0  0  0  0  0  0
   32.6566   15.4220   20.2124 O   0  0  0  0  0  0  0  0  0  0  0  0
  2  1  1  6  0  0  0
  2  3  1  0  0  0  0
  2  5  1  0  0  0  0
  3  4  1  0  0  0  0
  3 10  1  0  0  0  0
  5  6  1  0  0  0  0
  6  7  1  0  0  0  0
  7  8  1  0  0  0  0
  8  9  1  0  0  0  0
M  END
>  <CHROM.1>
-30.61083618,62.74320749,-177.29660997,-168.65980713,61.63280155,29.88359687
15.81871532,20.97133597,0.17595142,0.26692873,1.38849052

>  <Name>
ligand

>  <RI>
0

>  <Rbt.Current_Directory>
/home/itssahil/PROJECTS/Mol_Feturizer/New_Systems/rnas/3DJ2

>  <Rbt.Executable>
rbdock ($Id: //depot/dev/client3/rdock/2013.1/src/exe/rbdock.cxx#4 $)

>  <Rbt.Library>
libRbt.so (2013.1, Build901 2013/11/27)

>  <Rbt.Parameter_File>
/export/apps/rDock/src/rDock_2013.1_src/data/scripts/dock_solv.prm

>  <Rbt.Receptor>
prm/pocket_docking_8.prm

>  <SCORE>
-9.22423

>  <SCORE.INTER>
-8.37309

>  <SCORE.INTER.CONST>
1

>  <SCORE.INTER.POLAR>
0

>  <SCORE.INTER.ROT>
5

>  <SCORE.INTER.SOLV>
15.1827

>  <SCORE.INTER.VDW>
-17.5763

>  <SCORE.INTER.norm>
-0.837309

>  <SCORE.INTRA>
-0.851141

>  <SCORE.INTRA.DIHEDRAL>
-2.12225

>  <SCORE.INTRA.DIHEDRAL.0>
4.28128

>  <SCORE.INTRA.POLAR>
0

>  <SCORE.INTRA.POLAR.0>
0

>  <SCORE.INTRA.REPUL>
0

>  <SCORE.INTRA.REPUL.0>
0

>  <SCORE.INTRA.SOLV>
0.521179

>  <SCORE.INTRA.SOLV.lig_0>
-32.3374

>  <SCORE.INTRA.VDW>
-0.0506041

>  <SCORE.INTRA.VDW.0>
-0.659551

>  <SCORE.INTRA.norm>
-0.0851141

>  <SCORE.RESTR>
0

>  <SCORE.RESTR.CAVITY>
0

>  <SCORE.RESTR.norm>
0

>  <SCORE.SYSTEM>
0

>  <SCORE.SYSTEM.CONST>
0

>  <SCORE.SYSTEM.DIHEDRAL>
0

>  <SCORE.SYSTEM.SOLV>
0

>  <SCORE.SYSTEM.norm>
0

>  <SCORE.heavy>
10

>  <SCORE.norm>
-0.922423

>  <RMSD>
2.034

$$$$
ligand
 OpenBabel11021811473D
libRbt.so/2013.1/901 2013/11/27
 10  9  0  0  0  0  0  0  0  0999 V2000
   31.0710   17.6800   22.1422 N   0  0  0  0  0  0  0  0  0  0  0  0
   31.3228   16.2160   22.0307 C   0  0  2  0  0  0  0  0  0  0  0  0
   32.0093   15.8477   20.7153 C   0  0  0  0  0  0  0  0  0  0  0  0
   31.4406   15.1791   19.8462 O   0  0  0  0  0  0  0  0  0  0  0  0
   30.0255   15.4248   22.2167 C   0  0  0  0  0  0  0  0  0  0  0  0
   28.9223   15.7923   21.2331 C   0  0  0  0  0  0  0  0  0  0  0  0
   27.6568   14.9762   21.4950 C   0  0  0  0  0  0  0  0  0  0  0  0
   26.6071   15.1959   20.4114 C   0  0  0  0  0  0  0  0  0  0  0  0
   27.0974   14.8303   19.0501 N   0  0  0  0  0  0  0  0  0  0  0  0
   33.1519   16.2341   20.4779 O   0  0  0  0  0  0  0  0  0  0  0  0
  2  1  1  6  0  0  0
  2  3  1  0  0  0  0
  2  5  1  0  0  0  0
  3  4  1  0  0  0  0
  3 10  1  0  0  0  0
  5  6  1  0  0  0  0
  6  7  1  0  0  0  0
  7  8  1  0  0  0  0
  8  9  1  0  0  0  0
M  END
>  <CHROM.1>
-113.01776045,57.55136244,-179.19052681,-172.50300300,58.98507304,29.95721660
15.73163229,20.93549928,0.22591227,0.15744868,1.12088123

>  <Name>
ligand

>  <RI>
0

>  <Rbt.Current_Directory>
/home/itssahil/PROJECTS/Mol_Feturizer/New_Systems/rnas/3DJ2

>  <Rbt.Executable>
rbdock ($Id: //depot/dev/client3/rdock/2013.1/src/exe/rbdock.cxx#4 $)

>  <Rbt.Library>
libRbt.so (2013.1, Build901 2013/11/27)

>  <Rbt.Parameter_File>
/export/apps/rDock/src/rDock_2013.1_src/data/scripts/dock_solv.prm

>  <Rbt.Receptor>
prm/pocket_docking_3.prm

>  <SCORE>
-9.87688

>  <SCORE.INTER>
-9.71823

>  <SCORE.INTER.CONST>
1

>  <SCORE.INTER.POLAR>
0

>  <SCORE.INTER.ROT>
5

>  <SCORE.INTER.SOLV>
14.991

>  <SCORE.INTER.VDW>
-18.4091

>  <SCORE.INTER.norm>
-0.971823

>  <SCORE.INTRA>
-0.158649

>  <SCORE.INTRA.DIHEDRAL>
-2.50189

>  <SCORE.INTRA.DIHEDRAL.0>
4.28128

>  <SCORE.INTRA.POLAR>
0

>  <SCORE.INTRA.POLAR.0>
0

>  <SCORE.INTRA.REPUL>
0

>  <SCORE.INTRA.REPUL.0>
0

>  <SCORE.INTRA.SOLV>
0.576383

>  <SCORE.INTRA.SOLV.lig_0>
-32.3374

>  <SCORE.INTRA.VDW>
0.804105

>  <SCORE.INTRA.VDW.0>
-0.659551

>  <SCORE.INTRA.norm>
-0.0158649

>  <SCORE.RESTR>
0

>  <SCORE.RESTR.CAVITY>
0

>  <SCORE.RESTR.norm>
0

>  <SCORE.SYSTEM>
0

>  <SCORE.SYSTEM.CONST>
0

>  <SCORE.SYSTEM.DIHEDRAL>
0

>  <SCORE.SYSTEM.SOLV>
0

>  <SCORE.SYSTEM.norm>
0

>  <SCORE.heavy>
10

>  <SCORE.norm>
-0.987688

>  <RMSD>
2.036

$$$$
ligand
 OpenBabel11021811473D
libRbt.so/2013.1/901 2013/11/27
 10  9  0  0  0  0  0  0  0  0999 V2000
   31.7452   17.9703   22.5062 N   0  0  0  0  0  0  0  0  0  0  0  0
   31.3639   16.7932   21.6765 C   0  0  2  0  0  0  0  0  0  0  0  0
   32.4444   16.4322   20.6570 C   0  0  0  0  0  0  0  0  0  0  0  0
   32.3654   15.4214   19.9514 O   0  0  0  0  0  0  0  0  0  0  0  0
   30.0141   17.0241   20.9921 C   0  0  0  0  0  0  0  0  0  0  0  0
   29.4053   15.7735   20.3718 C   0  0  0  0  0  0  0  0  0  0  0  0
   28.0568   16.0817   19.7218 C   0  0  0  0  0  0  0  0  0  0  0  0
   27.3884   14.8231   19.1800 C   0  0  0  0  0  0  0  0  0  0  0  0
   28.1761   14.1744   18.0909 N   0  0  0  0  0  0  0  0  0  0  0  0
   33.4199   17.1627   20.4962 O   0  0  0  0  0  0  0  0  0  0  0  0
  2  1  1  6  0  0  0
  2  3  1  0  0  0  0
  2  5  1  0  0  0  0
  3  4  1  0  0  0  0
  3 10  1  0  0  0  0
  5  6  1  0  0  0  0
  6  7  1  0  0  0  0
  7  8  1  0  0  0  0
  8  9  1  0  0  0  0
M  END
>  <CHROM.1>
173.93701696,-167.49156538,179.44762137,-176.07240916,-63.15717841,30.47142248
16.16093292,20.34692145,0.58403473,0.02851466,0.84531682

>  <Name>
ligand

>  <RI>
0

>  <Rbt.Current_Directory>
/home/itssahil/PROJECTS/Mol_Feturizer/New_Systems/rnas/3DJ2

>  <Rbt.Executable>
rbdock ($Id: //depot/dev/client3/rdock/2013.1/src/exe/rbdock.cxx#4 $)

>  <Rbt.Library>
libRbt.so (2013.1, Build901 2013/11/27)

>  <Rbt.Parameter_File>
/export/apps/rDock/src/rDock_2013.1_src/data/scripts/dock_solv.prm

>  <Rbt.Receptor>
prm/pocket_docking_7.prm

>  <SCORE>
-8.5059

>  <SCORE.INTER>
-7.34716

>  <SCORE.INTER.CONST>
1

>  <SCORE.INTER.POLAR>
0

>  <SCORE.INTER.ROT>
5

>  <SCORE.INTER.SOLV>
14.6502

>  <SCORE.INTER.VDW>
-16.7148

>  <SCORE.INTER.norm>
-0.734716

>  <SCORE.INTRA>
-1.15875

>  <SCORE.INTRA.DIHEDRAL>
-2.11228

>  <SCORE.INTRA.DIHEDRAL.0>
4.28128

>  <SCORE.INTRA.POLAR>
0

>  <SCORE.INTRA.POLAR.0>
0

>  <SCORE.INTRA.REPUL>
0

>  <SCORE.INTRA.REPUL.0>
0

>  <SCORE.INTRA.SOLV>
-0.430437

>  <SCORE.INTRA.SOLV.lig_0>
-32.3374

>  <SCORE.INTRA.VDW>
0.11261

>  <SCORE.INTRA.VDW.0>
-0.659551

>  <SCORE.INTRA.norm>
-0.115875

>  <SCORE.RESTR>
0

>  <SCORE.RESTR.CAVITY>
0

>  <SCORE.RESTR.norm>
0

>  <SCORE.SYSTEM>
0

>  <SCORE.SYSTEM.CONST>
0

>  <SCORE.SYSTEM.DIHEDRAL>
0

>  <SCORE.SYSTEM.SOLV>
0

>  <SCORE.SYSTEM.norm>
0

>  <SCORE.heavy>
10

>  <SCORE.norm>
-0.85059

>  <RMSD>
2.067

$$$$
ligand
 OpenBabel11021811473D
libRbt.so/2013.1/901 2013/11/27
 10  9  0  0  0  0  0  0  0  0999 V2000
   31.7961   17.8478   22.4728 N   0  0  0  0  0  0  0  0  0  0  0  0
   31.3950   16.7011   21.6105 C   0  0  2  0  0  0  0  0  0  0  0  0
   32.4520   16.3763   20.5548 C   0  0  0  0  0  0  0  0  0  0  0  0
   32.2873   15.4819   19.7188 O   0  0  0  0  0  0  0  0  0  0  0  0
   30.0305   16.9565   20.9652 C   0  0  0  0  0  0  0  0  0  0  0  0
   29.3845   15.7186   20.3573 C   0  0  0  0  0  0  0  0  0  0  0  0
   28.0279   16.0533   19.7378 C   0  0  0  0  0  0  0  0  0  0  0  0
   27.3421   14.8143   19.1730 C   0  0  0  0  0  0  0  0  0  0  0  0
   28.1394   14.1521   18.0992 N   0  0  0  0  0  0  0  0  0  0  0  0
   33.4959   17.0228   20.4970 O   0  0  0  0  0  0  0  0  0  0  0  0
  2  1  1  6  0  0  0
  2  3  1  0  0  0  0
  2  5  1  0  0  0  0
  3  4  1  0  0  0  0
  3 10  1  0  0  0  0
  5  6  1  0  0  0  0
  6  7  1  0  0  0  0
  7  8  1  0  0  0  0
  8  9  1  0  0  0  0
M  END
>  <CHROM.1>
-177.88872763,-165.46337445,179.85763513,-177.74564181,-60.36533530,30.46821759
16.10842803,20.30016888,0.55906951,0.04974328,0.88072243

>  <Name>
ligand

>  <RI>
0

>  <Rbt.Current_Directory>
/home/itssahil/PROJECTS/Mol_Feturizer/New_Systems/rnas/3DJ2

>  <Rbt.Executable>
rbdock ($Id: //depot/dev/client3/rdock/2013.1/src/exe/rbdock.cxx#4 $)

>  <Rbt.Library>
libRbt.so (2013.1, Build901 2013/11/27)

>  <Rbt.Parameter_File>
/export/apps/rDock/src/rDock_2013.1_src/data/scripts/dock_solv.prm

>  <Rbt.Receptor>
prm/blind_docking_60.prm

>  <SCORE>
-8.54811

>  <SCORE.INTER>
-7.59201

>  <SCORE.INTER.CONST>
1

>  <SCORE.INTER.POLAR>
0

>  <SCORE.INTER.ROT>
5

>  <SCORE.INTER.SOLV>
14.2147

>  <SCORE.INTER.VDW>
-16.7329

>  <SCORE.INTER.norm>
-0.759201

>  <SCORE.INTRA>
-0.956103

>  <SCORE.INTRA.DIHEDRAL>
-1.98036

>  <SCORE.INTRA.DIHEDRAL.0>
4.28128

>  <SCORE.INTRA.POLAR>
0

>  <SCORE.INTRA.POLAR.0>
0

>  <SCORE.INTRA.REPUL>
0

>  <SCORE.INTRA.REPUL.0>
0

>  <SCORE.INTRA.SOLV>
-0.379319

>  <SCORE.INTRA.SOLV.lig_0>
-32.3374

>  <SCORE.INTRA.VDW>
0.223735

>  <SCORE.INTRA.VDW.0>
-0.659551

>  <SCORE.INTRA.norm>
-0.0956103

>  <SCORE.RESTR>
0

>  <SCORE.RESTR.CAVITY>
0

>  <SCORE.RESTR.norm>
0

>  <SCORE.SYSTEM>
0

>  <SCORE.SYSTEM.CONST>
0

>  <SCORE.SYSTEM.DIHEDRAL>
0

>  <SCORE.SYSTEM.SOLV>
0

>  <SCORE.SYSTEM.norm>
0

>  <SCORE.heavy>
10

>  <SCORE.norm>
-0.854811

>  <RMSD>
2.068

$$$$
ligand
 OpenBabel11021811473D
libRbt.so/2013.1/901 2013/11/27
 10  9  0  0  0  0  0  0  0  0999 V2000
   31.9761   17.5650   22.4088 N   0  0  0  0  0  0  0  0  0  0  0  0
   31.4214   16.2523   21.9746 C   0  0  2  0  0  0  0  0  0  0  0  0
   31.9629   15.8201   20.6118 C   0  0  0  0  0  0  0  0  0  0  0  0
   33.1159   16.0818   20.2539 O   0  0  0  0  0  0  0  0  0  0  0  0
   29.8907   16.2809   21.9765 C   0  0  0  0  0  0  0  0  0  0  0  0
   29.2394   14.9086   21.8663 C   0  0  0  0  0  0  0  0  0  0  0  0
   27.7179   15.0265   21.7810 C   0  0  0  0  0  0  0  0  0  0  0  0
   27.2727   15.6769   20.4759 C   0  0  0  0  0  0  0  0  0  0  0  0
   27.6676   14.8866   19.2730 N   0  0  0  0  0  0  0  0  0  0  0  0
   31.2612   15.1718   19.8383 O   0  0  0  0  0  0  0  0  0  0  0  0
  2  1  1  6  0  0  0
  2  3  1  0  0  0  0
  2  5  1  0  0  0  0
  3  4  1  0  0  0  0
  3 10  1  0  0  0  0
  5  6  1  0  0  0  0
  6  7  1  0  0  0  0
  7  8  1  0  0  0  0
  8  9  1  0  0  0  0
M  END
>  <CHROM.1>
34.30689401,-166.38351188,-176.21157683,67.50820125,61.93127540,30.17468515
15.75876605,21.01769930,0.18860379,0.19533082,1.14399243

>  <Name>
ligand

>  <RI>
0

>  <Rbt.Current_Directory>
/home/itssahil/PROJECTS/Mol_Feturizer/New_Systems/rnas/3DJ2

>  <Rbt.Executable>
rbdock ($Id: //depot/dev/client3/rdock/2013.1/src/exe/rbdock.cxx#4 $)

>  <Rbt.Library>
libRbt.so (2013.1, Build901 2013/11/27)

>  <Rbt.Parameter_File>
/export/apps/rDock/src/rDock_2013.1_src/data/scripts/dock_solv.prm

>  <Rbt.Receptor>
prm/pocket_docking_6.prm

>  <SCORE>
-9.10965

>  <SCORE.INTER>
-9.6246

>  <SCORE.INTER.CONST>
1

>  <SCORE.INTER.POLAR>
0

>  <SCORE.INTER.ROT>
5

>  <SCORE.INTER.SOLV>
11.9891

>  <SCORE.INTER.VDW>
-17.3461

>  <SCORE.INTER.norm>
-0.96246

>  <SCORE.INTRA>
0.514949

>  <SCORE.INTRA.DIHEDRAL>
-1.83517

>  <SCORE.INTRA.DIHEDRAL.0>
4.28128

>  <SCORE.INTRA.POLAR>
0

>  <SCORE.INTRA.POLAR.0>
0

>  <SCORE.INTRA.REPUL>
0

>  <SCORE.INTRA.REPUL.0>
0

>  <SCORE.INTRA.SOLV>
0.328147

>  <SCORE.INTRA.SOLV.lig_0>
-32.3374

>  <SCORE.INTRA.VDW>
1.26846

>  <SCORE.INTRA.VDW.0>
-0.659551

>  <SCORE.INTRA.norm>
0.0514949

>  <SCORE.RESTR>
0

>  <SCORE.RESTR.CAVITY>
0

>  <SCORE.RESTR.norm>
0

>  <SCORE.SYSTEM>
0

>  <SCORE.SYSTEM.CONST>
0

>  <SCORE.SYSTEM.DIHEDRAL>
0

>  <SCORE.SYSTEM.SOLV>
0

>  <SCORE.SYSTEM.norm>
0

>  <SCORE.heavy>
10

>  <SCORE.norm>
-0.910965

>  <RMSD>
2.098

$$$$
ligand
 OpenBabel11021811473D
libRbt.so/2013.1/901 2013/11/27
 10  9  0  0  0  0  0  0  0  0999 V2000
   30.6040   15.1223   22.0933 N   0  0  0  0  0  0  0  0  0  0  0  0
   30.8443   15.7057   20.7438 C   0  0  2  0  0  0  0  0  0  0  0  0
   32.3142   16.0640   20.5241 C   0  0  0  0  0  0  0  0  0  0  0  0
   32.9049   15.7859   19.4755 O   0  0  0  0  0  0  0  0  0  0  0  0
   29.9392   16.9173   20.5055 C   0  0  0  0  0  0  0  0  0  0  0  0
   28.4499   16.6003   20.5326 C   0  0  0  0  0  0  0  0  0  0  0  0
   28.0070   15.9245   19.2352 C   0  0  0  0  0  0  0  0  0  0  0  0
   28.3447   14.4378   19.2272 C   0  0  0  0  0  0  0  0  0  0  0  0
   27.8769   13.7462   17.9902 N   0  0  0  0  0  0  0  0  0  0  0  0
   32.9457   16.6673   21.3891 O   0  0  0  0  0  0  0  0  0  0  0  0
  2  1  1  1  0  0  0
  2  3  1  0  0  0  0
  2  5  1  0  0  0  0
  3  4  1  0  0  0  0
  3 10  1  0  0  0  0
  5  6  1  0  0  0  0
  6  7  1  0  0  0  0
  7  8  1  0  0  0  0
  8  9  1  0  0  0  0
M  END
>  <CHROM.1>
135.28203802,-61.89825579,-76.78703283,80.19179266,177.90780554,30.26460395
15.70699780,20.16985536,0.47427980,-0.01534151,0.91758345

>  <Name>
ligand

>  <RI>
0

>  <Rbt.Current_Directory>
/home/itssahil/PROJECTS/Mol_Feturizer/New_Systems/rnas/3DJ2

>  <Rbt.Executable>
rbdock ($Id: //depot/dev/client3/rdock/2013.1/src/exe/rbdock.cxx#4 $)

>  <Rbt.Library>
libRbt.so (2013.1, Build901 2013/11/27)

>  <Rbt.Parameter_File>
/export/apps/rDock/src/rDock_2013.1_src/data/scripts/dock_solv.prm

>  <Rbt.Receptor>
prm/blind_docking_100.prm

>  <SCORE>
-5.99159

>  <SCORE.INTER>
-6.5365

>  <SCORE.INTER.CONST>
1

>  <SCORE.INTER.POLAR>
0

>  <SCORE.INTER.ROT>
5

>  <SCORE.INTER.SOLV>
16.6817

>  <SCORE.INTER.VDW>
-16.8516

>  <SCORE.INTER.norm>
-0.65365

>  <SCORE.INTRA>
0.544917

>  <SCORE.INTRA.DIHEDRAL>
-0.0892892

>  <SCORE.INTRA.DIHEDRAL.0>
4.28128

>  <SCORE.INTRA.POLAR>
0

>  <SCORE.INTRA.POLAR.0>
0

>  <SCORE.INTRA.REPUL>
0

>  <SCORE.INTRA.REPUL.0>
0

>  <SCORE.INTRA.SOLV>
0.869903

>  <SCORE.INTRA.SOLV.lig_0>
-32.3374

>  <SCORE.INTRA.VDW>
0.15461

>  <SCORE.INTRA.VDW.0>
-0.659551

>  <SCORE.INTRA.norm>
0.0544917

>  <SCORE.RESTR>
0

>  <SCORE.RESTR.CAVITY>
0

>  <SCORE.RESTR.norm>
0

>  <SCORE.SYSTEM>
0

>  <SCORE.SYSTEM.CONST>
0

>  <SCORE.SYSTEM.DIHEDRAL>
0

>  <SCORE.SYSTEM.SOLV>
0

>  <SCORE.SYSTEM.norm>
0

>  <SCORE.heavy>
10

>  <SCORE.norm>
-0.599159

>  <RMSD>
2.101

$$$$
ligand
 OpenBabel11021811473D
libRbt.so/2013.1/901 2013/11/27
 10  9  0  0  0  0  0  0  0  0999 V2000
   30.8787   15.6575   22.7851 N   0  0  0  0  0  0  0  0  0  0  0  0
   30.5824   15.7665   21.3292 C   0  0  2  0  0  0  0  0  0  0  0  0
   31.8234   16.1303   20.5140 C   0  0  0  0  0  0  0  0  0  0  0  0
   32.2263   15.4220   19.5857 O   0  0  0  0  0  0  0  0  0  0  0  0
   29.4458   16.7609   21.0780 C   0  0  0  0  0  0  0  0  0  0  0  0
   28.9229   16.7648   19.6476 C   0  0  0  0  0  0  0  0  0  0  0  0
   28.2073   15.4546   19.3194 C   0  0  0  0  0  0  0  0  0  0  0  0
   26.8407   15.3724   19.9902 C   0  0  0  0  0  0  0  0  0  0  0  0
   26.9333   15.1912   21.4687 N   0  0  0  0  0  0  0  0  0  0  0  0
   32.4452   17.1639   20.7512 O   0  0  0  0  0  0  0  0  0  0  0  0
  2  1  1  1  0  0  0
  2  3  1  0  0  0  0
  2  5  1  0  0  0  0
  3  4  1  0  0  0  0
  3 10  1  0  0  0  0
  5  6  1  0  0  0  0
  6  7  1  0  0  0  0
  7  8  1  0  0  0  0
  8  9  1  0  0  0  0
M  END
>  <CHROM.1>
123.01011157,-170.42650351,67.76201363,73.95659158,-70.81892261,29.86705632
15.97675651,20.63014859,0.06632969,0.15855634,1.63162734

>  <Name>
ligand

>  <RI>
0

>  <Rbt.Current_Directory>
/home/itssahil/PROJECTS/Mol_Feturizer/New_Systems/rnas/3DJ2

>  <Rbt.Executable>
rbdock ($Id: //depot/dev/client3/rdock/2013.1/src/exe/rbdock.cxx#4 $)

>  <Rbt.Library>
libRbt.so (2013.1, Build901 2013/11/27)

>  <Rbt.Parameter_File>
/export/apps/rDock/src/rDock_2013.1_src/data/scripts/dock_solv.prm

>  <Rbt.Receptor>
prm/blind_docking_60.prm

>  <SCORE>
-5.55859

>  <SCORE.INTER>
-6.38241

>  <SCORE.INTER.CONST>
1

>  <SCORE.INTER.POLAR>
0

>  <SCORE.INTER.ROT>
5

>  <SCORE.INTER.SOLV>
17.8144

>  <SCORE.INTER.VDW>
-17.1264

>  <SCORE.INTER.norm>
-0.638241

>  <SCORE.INTRA>
0.823817

>  <SCORE.INTRA.DIHEDRAL>
-0.972392

>  <SCORE.INTRA.DIHEDRAL.0>
4.28128

>  <SCORE.INTRA.POLAR>
0

>  <SCORE.INTRA.POLAR.0>
0

>  <SCORE.INTRA.REPUL>
0

>  <SCORE.INTRA.REPUL.0>
0

>  <SCORE.INTRA.SOLV>
1.84889

>  <SCORE.INTRA.SOLV.lig_0>
-32.3374

>  <SCORE.INTRA.VDW>
0.385566

>  <SCORE.INTRA.VDW.0>
-0.659551

>  <SCORE.INTRA.norm>
0.0823817

>  <SCORE.RESTR>
0

>  <SCORE.RESTR.CAVITY>
0

>  <SCORE.RESTR.norm>
0

>  <SCORE.SYSTEM>
0

>  <SCORE.SYSTEM.CONST>
0

>  <SCORE.SYSTEM.DIHEDRAL>
0

>  <SCORE.SYSTEM.SOLV>
0

>  <SCORE.SYSTEM.norm>
0

>  <SCORE.heavy>
10

>  <SCORE.norm>
-0.555859

>  <RMSD>
2.247

$$$$
ligand
 OpenBabel11021811473D
libRbt.so/2013.1/901 2013/11/27
 10  9  0  0  0  0  0  0  0  0999 V2000
   30.4116   16.6082   22.9239 N   0  0  0  0  0  0  0  0  0  0  0  0
   30.6261   15.5539   21.8935 C   0  0  2  0  0  0  0  0  0  0  0  0
   31.3072   16.1032   20.6398 C   0  0  0  0  0  0  0  0  0  0  0  0
   30.9683   17.1755   20.1287 O   0  0  0  0  0  0  0  0  0  0  0  0
   29.3083   14.8569   21.5454 C   0  0  0  0  0  0  0  0  0  0  0  0
   28.1813   15.8061   21.1605 C   0  0  0  0  0  0  0  0  0  0  0  0
   26.9907   15.0416   20.5824 C   0  0  0  0  0  0  0  0  0  0  0  0
   27.1804   14.7341   19.1013 C   0  0  0  0  0  0  0  0  0  0  0  0
   28.3917   13.9040   18.8346 N   0  0  0  0  0  0  0  0  0  0  0  0
   32.2376   15.4935   20.1168 O   0  0  0  0  0  0  0  0  0  0  0  0
  2  1  1  1  0  0  0
  2  3  1  0  0  0  0
  2  5  1  0  0  0  0
  3  4  1  0  0  0  0
  3 10  1  0  0  0  0
  5  6  1  0  0  0  0
  6  7  1  0  0  0  0
  7  8  1  0  0  0  0
  8  9  1  0  0  0  0
M  END
>  <CHROM.1>
-43.81984082,52.49165679,169.50153956,-82.96553155,59.84946413,29.58490986
15.54191518,20.66886030,0.43043453,0.24353985,1.20769653

>  <Name>
ligand

>  <RI>
0

>  <Rbt.Current_Directory>
/home/itssahil/PROJECTS/Mol_Feturizer/New_Systems/rnas/3DJ2

>  <Rbt.Executable>
rbdock ($Id: //depot/dev/client3/rdock/2013.1/src/exe/rbdock.cxx#4 $)

>  <Rbt.Library>
libRbt.so (2013.1, Build901 2013/11/27)

>  <Rbt.Parameter_File>
/export/apps/rDock/src/rDock_2013.1_src/data/scripts/dock_solv.prm

>  <Rbt.Receptor>
prm/pocket_docking_7.prm

>  <SCORE>
-7.27829

>  <SCORE.INTER>
-8.32117

>  <SCORE.INTER.CONST>
1

>  <SCORE.INTER.POLAR>
0

>  <SCORE.INTER.ROT>
5

>  <SCORE.INTER.SOLV>
14.3675

>  <SCORE.INTER.VDW>
-17.2699

>  <SCORE.INTER.norm>
-0.832117

>  <SCORE.INTRA>
1.04288

>  <SCORE.INTRA.DIHEDRAL>
-0.0770394

>  <SCORE.INTRA.DIHEDRAL.0>
4.28128

>  <SCORE.INTRA.POLAR>
0

>  <SCORE.INTRA.POLAR.0>
0

>  <SCORE.INTRA.REPUL>
0

>  <SCORE.INTRA.REPUL.0>
0

>  <SCORE.INTRA.SOLV>
1.98713

>  <SCORE.INTRA.SOLV.lig_0>
-32.3374

>  <SCORE.INTRA.VDW>
0.0878312

>  <SCORE.INTRA.VDW.0>
-0.659551

>  <SCORE.INTRA.norm>
0.104288

>  <SCORE.RESTR>
0

>  <SCORE.RESTR.CAVITY>
0

>  <SCORE.RESTR.norm>
0

>  <SCORE.SYSTEM>
0

>  <SCORE.SYSTEM.CONST>
0

>  <SCORE.SYSTEM.DIHEDRAL>
0

>  <SCORE.SYSTEM.SOLV>
0

>  <SCORE.SYSTEM.norm>
0

>  <SCORE.heavy>
10

>  <SCORE.norm>
-0.727829

>  <RMSD>
2.384

$$$$
ligand
 OpenBabel11021811473D
libRbt.so/2013.1/901 2013/11/27
 10  9  0  0  0  0  0  0  0  0999 V2000
   30.2665   16.5450   23.0055 N   0  0  0  0  0  0  0  0  0  0  0  0
   30.4918   15.5197   21.9485 C   0  0  2  0  0  0  0  0  0  0  0  0
   31.3393   16.0573   20.7953 C   0  0  0  0  0  0  0  0  0  0  0  0
   32.1484   15.3453   20.1917 O   0  0  0  0  0  0  0  0  0  0  0  0
   29.1604   14.9598   21.4408 C   0  0  0  0  0  0  0  0  0  0  0  0
   28.2547   15.9954   20.7876 C   0  0  0  0  0  0  0  0  0  0  0  0
   27.0018   15.3420   20.2051 C   0  0  0  0  0  0  0  0  0  0  0  0
   27.3360   14.4116   19.0444 C   0  0  0  0  0  0  0  0  0  0  0  0
   28.0323   15.1118   17.9254 N   0  0  0  0  0  0  0  0  0  0  0  0
   31.2168   17.2215   20.4203 O   0  0  0  0  0  0  0  0  0  0  0  0
  2  1  1  1  0  0  0
  2  3  1  0  0  0  0
  2  5  1  0  0  0  0
  3  4  1  0  0  0  0
  3 10  1  0  0  0  0
  5  6  1  0  0  0  0
  6  7  1  0  0  0  0
  7  8  1  0  0  0  0
  8  9  1  0  0  0  0
M  END
>  <CHROM.1>
144.88803281,62.03809641,175.27831978,-65.97856174,-59.00810082,29.55242575
15.66370414,20.55602171,0.53776927,0.19887358,1.37166033

>  <Name>
ligand

>  <RI>
0

>  <Rbt.Current_Directory>
/home/itssahil/PROJECTS/Mol_Feturizer/New_Systems/rnas/3DJ2

>  <Rbt.Executable>
rbdock ($Id: //depot/dev/client3/rdock/2013.1/src/exe/rbdock.cxx#4 $)

>  <Rbt.Library>
libRbt.so (2013.1, Build901 2013/11/27)

>  <Rbt.Parameter_File>
/export/apps/rDock/src/rDock_2013.1_src/data/scripts/dock_solv.prm

>  <Rbt.Receptor>
prm/pocket_docking_7.prm

>  <SCORE>
-7.98856

>  <SCORE.INTER>
-7.76222

>  <SCORE.INTER.CONST>
1

>  <SCORE.INTER.POLAR>
0

>  <SCORE.INTER.ROT>
5

>  <SCORE.INTER.SOLV>
15.9416

>  <SCORE.INTER.VDW>
-17.422

>  <SCORE.INTER.norm>
-0.776222

>  <SCORE.INTRA>
-0.226336

>  <SCORE.INTRA.DIHEDRAL>
-2.54673

>  <SCORE.INTRA.DIHEDRAL.0>
4.28128

>  <SCORE.INTRA.POLAR>
0

>  <SCORE.INTRA.POLAR.0>
0

>  <SCORE.INTRA.REPUL>
0

>  <SCORE.INTRA.REPUL.0>
0

>  <SCORE.INTRA.SOLV>
1.02792

>  <SCORE.INTRA.SOLV.lig_0>
-32.3374

>  <SCORE.INTRA.VDW>
0.533066

>  <SCORE.INTRA.VDW.0>
-0.659551

>  <SCORE.INTRA.norm>
-0.0226336

>  <SCORE.RESTR>
0

>  <SCORE.RESTR.CAVITY>
0

>  <SCORE.RESTR.norm>
0

>  <SCORE.SYSTEM>
0

>  <SCORE.SYSTEM.CONST>
0

>  <SCORE.SYSTEM.DIHEDRAL>
0

>  <SCORE.SYSTEM.SOLV>
0

>  <SCORE.SYSTEM.norm>
0

>  <SCORE.heavy>
10

>  <SCORE.norm>
-0.798856

>  <RMSD>
2.430

$$$$
ligand
 OpenBabel11021811473D
libRbt.so/2013.1/901 2013/11/27
 10  9  0  0  0  0  0  0  0  0999 V2000
   30.3614   16.6203   22.9028 N   0  0  0  0  0  0  0  0  0  0  0  0
   30.5601   15.5269   21.9108 C   0  0  2  0  0  0  0  0  0  0  0  0
   31.3053   16.0069   20.6652 C   0  0  0  0  0  0  0  0  0  0  0  0
   31.0345   17.0789   20.1144 O   0  0  0  0  0  0  0  0  0  0  0  0
   29.2234   14.8796   21.5392 C   0  0  0  0  0  0  0  0  0  0  0  0
   28.1924   15.8506   20.9794 C   0  0  0  0  0  0  0  0  0  0  0  0
   26.9736   15.1062   20.4349 C   0  0  0  0  0  0  0  0  0  0  0  0
   27.3145   14.2976   19.1882 C   0  0  0  0  0  0  0  0  0  0  0  0
   27.9323   15.1277   18.1127 N   0  0  0  0  0  0  0  0  0  0  0  0
   32.2209   15.3390   20.1894 O   0  0  0  0  0  0  0  0  0  0  0  0
  2  1  1  1  0  0  0
  2  3  1  0  0  0  0
  2  5  1  0  0  0  0
  3  4  1  0  0  0  0
  3 10  1  0  0  0  0
  5  6  1  0  0  0  0
  6  7  1  0  0  0  0
  7  8  1  0  0  0  0
  8  9  1  0  0  0  0
M  END
>  <CHROM.1>
-43.64475434,57.36610008,171.25905288,-68.12054596,-55.26074737,29.53798891
15.59513329,20.58089094,0.44873452,0.23319313,1.39977851

>  <Name>
ligand

>  <RI>
0

>  <Rbt.Current_Directory>
/home/itssahil/PROJECTS/Mol_Feturizer/New_Systems/rnas/3DJ2

>  <Rbt.Executable>
rbdock ($Id: //depot/dev/client3/rdock/2013.1/src/exe/rbdock.cxx#4 $)

>  <Rbt.Library>
libRbt.so (2013.1, Build901 2013/11/27)

>  <Rbt.Parameter_File>
/export/apps/rDock/src/rDock_2013.1_src/data/scripts/dock_solv.prm

>  <Rbt.Receptor>
prm/pocket_docking_3.prm

>  <SCORE>
-7.85597

>  <SCORE.INTER>
-7.83499

>  <SCORE.INTER.CONST>
1

>  <SCORE.INTER.POLAR>
0

>  <SCORE.INTER.ROT>
5

>  <SCORE.INTER.SOLV>
15.3143

>  <SCORE.INTER.VDW>
-17.2614

>  <SCORE.INTER.norm>
-0.783499

>  <SCORE.INTRA>
-0.0209814

>  <SCORE.INTRA.DIHEDRAL>
-2.01705

>  <SCORE.INTRA.DIHEDRAL.0>
4.28128

>  <SCORE.INTRA.POLAR>
0

>  <SCORE.INTRA.POLAR.0>
0

>  <SCORE.INTRA.REPUL>
0

>  <SCORE.INTRA.REPUL.0>
0

>  <SCORE.INTRA.SOLV>
1.12128

>  <SCORE.INTRA.SOLV.lig_0>
-32.3374

>  <SCORE.INTRA.VDW>
0.426905

>  <SCORE.INTRA.VDW.0>
-0.659551

>  <SCORE.INTRA.norm>
-0.00209814

>  <SCORE.RESTR>
0

>  <SCORE.RESTR.CAVITY>
0

>  <SCORE.RESTR.norm>
0

>  <SCORE.SYSTEM>
0

>  <SCORE.SYSTEM.CONST>
0

>  <SCORE.SYSTEM.DIHEDRAL>
0

>  <SCORE.SYSTEM.SOLV>
0

>  <SCORE.SYSTEM.norm>
0

>  <SCORE.heavy>
10

>  <SCORE.norm>
-0.785597

>  <RMSD>
2.432

$$$$
ligand
 OpenBabel11021811473D
libRbt.so/2013.1/901 2013/11/27
 10  9  0  0  0  0  0  0  0  0999 V2000
   29.5060   15.7798   22.2638 N   0  0  0  0  0  0  0  0  0  0  0  0
   29.9251   15.6826   20.8375 C   0  0  2  0  0  0  0  0  0  0  0  0
   31.3788   16.1094   20.6334 C   0  0  0  0  0  0  0  0  0  0  0  0
   31.8406   17.1280   21.1580 O   0  0  0  0  0  0  0  0  0  0  0  0
   28.9824   16.4856   19.9373 C   0  0  0  0  0  0  0  0  0  0  0  0
   27.5160   16.0926   20.0587 C   0  0  0  0  0  0  0  0  0  0  0  0
   27.3043   14.6293   19.6715 C   0  0  0  0  0  0  0  0  0  0  0  0
   27.5755   14.3906   18.1903 C   0  0  0  0  0  0  0  0  0  0  0  0
   27.2884   12.9878   17.7696 N   0  0  0  0  0  0  0  0  0  0  0  0
   32.1402   15.4262   19.9518 O   0  0  0  0  0  0  0  0  0  0  0  0
  2  1  1  1  0  0  0
  2  3  1  0  0  0  0
  2  5  1  0  0  0  0
  3  4  1  0  0  0  0
  3 10  1  0  0  0  0
  5  6  1  0  0  0  0
  6  7  1  0  0  0  0
  7  8  1  0  0  0  0
  8  9  1  0  0  0  0
M  END
>  <CHROM.1>
-45.11376617,-56.01990682,-60.73271168,-66.73401099,-176.21544339,29.38676475
15.48339349,20.04738337,0.66328798,0.06050743,0.90079032

>  <Name>
ligand

>  <RI>
0

>  <Rbt.Current_Directory>
/home/itssahil/PROJECTS/Mol_Feturizer/New_Systems/rnas/3DJ2

>  <Rbt.Executable>
rbdock ($Id: //depot/dev/client3/rdock/2013.1/src/exe/rbdock.cxx#4 $)

>  <Rbt.Library>
libRbt.so (2013.1, Build901 2013/11/27)

>  <Rbt.Parameter_File>
/export/apps/rDock/src/rDock_2013.1_src/data/scripts/dock_solv.prm

>  <Rbt.Receptor>
prm/blind_docking_100.prm

>  <SCORE>
-7.76312

>  <SCORE.INTER>
-7.52804

>  <SCORE.INTER.CONST>
1

>  <SCORE.INTER.POLAR>
0

>  <SCORE.INTER.ROT>
5

>  <SCORE.INTER.SOLV>
16.512

>  <SCORE.INTER.VDW>
-17.456

>  <SCORE.INTER.norm>
-0.752804

>  <SCORE.INTRA>
-0.235076

>  <SCORE.INTRA.DIHEDRAL>
-2.42991

>  <SCORE.INTRA.DIHEDRAL.0>
4.28128

>  <SCORE.INTRA.POLAR>
0

>  <SCORE.INTRA.POLAR.0>
0

>  <SCORE.INTRA.REPUL>
0

>  <SCORE.INTRA.REPUL.0>
0

>  <SCORE.INTRA.SOLV>
0.453369

>  <SCORE.INTRA.SOLV.lig_0>
-32.3374

>  <SCORE.INTRA.VDW>
0.753194

>  <SCORE.INTRA.VDW.0>
-0.659551

>  <SCORE.INTRA.norm>
-0.0235076

>  <SCORE.RESTR>
0

>  <SCORE.RESTR.CAVITY>
0

>  <SCORE.RESTR.norm>
0

>  <SCORE.SYSTEM>
0

>  <SCORE.SYSTEM.CONST>
0

>  <SCORE.SYSTEM.DIHEDRAL>
0

>  <SCORE.SYSTEM.SOLV>
0

>  <SCORE.SYSTEM.norm>
0

>  <SCORE.heavy>
10

>  <SCORE.norm>
-0.776312

>  <RMSD>
2.554

$$$$
ligand
 OpenBabel11021811473D
libRbt.so/2013.1/901 2013/11/27
 10  9  0  0  0  0  0  0  0  0999 V2000
   30.5270   17.3895   21.4022 N   0  0  0  0  0  0  0  0  0  0  0  0
   29.3155   16.5236   21.3599 C   0  0  2  0  0  0  0  0  0  0  0  0
   29.6418   15.0606   21.6607 C   0  0  0  0  0  0  0  0  0  0  0  0
   28.8370   14.3150   22.2284 O   0  0  0  0  0  0  0  0  0  0  0  0
   28.5931   16.6634   20.0174 C   0  0  0  0  0  0  0  0  0  0  0  0
   27.2077   16.0319   19.9839 C   0  0  0  0  0  0  0  0  0  0  0  0
   27.2885   14.5449   19.6397 C   0  0  0  0  0  0  0  0  0  0  0  0
   27.6596   14.3215   18.1779 C   0  0  0  0  0  0  0  0  0  0  0  0
   27.6536   12.8790   17.7948 N   0  0  0  0  0  0  0  0  0  0  0  0
   30.7193   14.5782   21.3184 O   0  0  0  0  0  0  0  0  0  0  0  0
  2  1  1  6  0  0  0
  2  3  1  0  0  0  0
  2  5  1  0  0  0  0
  3  4  1  0  0  0  0
  3 10  1  0  0  0  0
  5  6  1  0  0  0  0
  6  7  1  0  0  0  0
  7  8  1  0  0  0  0
  8  9  1  0  0  0  0
M  END
>  <CHROM.1>
148.21910912,-168.61439871,-85.66939512,-71.60319875,-176.09036181,28.75621242
15.20207141,20.37234854,0.58563738,-0.84881138,0.12535887

>  <Name>
ligand

>  <RI>
0

>  <Rbt.Current_Directory>
/home/itssahil/PROJECTS/Mol_Feturizer/New_Systems/rnas/3DJ2

>  <Rbt.Executable>
rbdock ($Id: //depot/dev/client3/rdock/2013.1/src/exe/rbdock.cxx#4 $)

>  <Rbt.Library>
libRbt.so (2013.1, Build901 2013/11/27)

>  <Rbt.Parameter_File>
/export/apps/rDock/src/rDock_2013.1_src/data/scripts/dock_solv.prm

>  <Rbt.Receptor>
prm/pocket_docking_8.prm

>  <SCORE>
-8.08005

>  <SCORE.INTER>
-8.06563

>  <SCORE.INTER.CONST>
1

>  <SCORE.INTER.POLAR>
0

>  <SCORE.INTER.ROT>
5

>  <SCORE.INTER.SOLV>
17.221

>  <SCORE.INTER.VDW>
-18.0507

>  <SCORE.INTER.norm>
-0.806563

>  <SCORE.INTRA>
-0.014416

>  <SCORE.INTRA.DIHEDRAL>
0.636403

>  <SCORE.INTRA.DIHEDRAL.0>
4.28128

>  <SCORE.INTRA.POLAR>
0

>  <SCORE.INTRA.POLAR.0>
0

>  <SCORE.INTRA.REPUL>
0

>  <SCORE.INTRA.REPUL.0>
0

>  <SCORE.INTRA.SOLV>
-1.08988

>  <SCORE.INTRA.SOLV.lig_0>
-32.3374

>  <SCORE.INTRA.VDW>
0.212322

>  <SCORE.INTRA.VDW.0>
-0.659551

>  <SCORE.INTRA.norm>
-0.0014416

>  <SCORE.RESTR>
0

>  <SCORE.RESTR.CAVITY>
0

>  <SCORE.RESTR.norm>
0

>  <SCORE.SYSTEM>
0

>  <SCORE.SYSTEM.CONST>
0

>  <SCORE.SYSTEM.DIHEDRAL>
0

>  <SCORE.SYSTEM.SOLV>
0

>  <SCORE.SYSTEM.norm>
0

>  <SCORE.heavy>
10

>  <SCORE.norm>
-0.808005

>  <RMSD>
3.238

$$$$
ligand
 OpenBabel11021811473D
libRbt.so/2013.1/901 2013/11/27
 10  9  0  0  0  0  0  0  0  0999 V2000
   29.8875   16.7789   20.0060 N   0  0  0  0  0  0  0  0  0  0  0  0
   28.8249   16.0902   20.7908 C   0  0  2  0  0  0  0  0  0  0  0  0
   29.3966   15.0167   21.7171 C   0  0  0  0  0  0  0  0  0  0  0  0
   28.6687   14.2648   22.3735 O   0  0  0  0  0  0  0  0  0  0  0  0
   27.7552   15.5069   19.8638 C   0  0  0  0  0  0  0  0  0  0  0  0
   28.2551   14.3905   18.9566 C   0  0  0  0  0  0  0  0  0  0  0  0
   27.1060   13.7706   18.1619 C   0  0  0  0  0  0  0  0  0  0  0  0
   27.5030   12.4369   17.5390 C   0  0  0  0  0  0  0  0  0  0  0  0
   26.3475   11.7205   16.9235 N   0  0  0  0  0  0  0  0  0  0  0  0
   30.6117   14.8583   21.8138 O   0  0  0  0  0  0  0  0  0  0  0  0
  2  1  1  6  0  0  0
  2  3  1  0  0  0  0
  2  5  1  0  0  0  0
  3  4  1  0  0  0  0
  3 10  1  0  0  0  0
  5  6  1  0  0  0  0
  6  7  1  0  0  0  0
  7  8  1  0  0  0  0
  8  9  1  0  0  0  0
M  END
>  <CHROM.1>
-174.31517117,65.37646319,174.52646468,-164.93030735,171.83969333,28.45288936
14.46657974,19.84456569,-0.01442947,-1.07240533,-0.63808270

>  <Name>
ligand

>  <RI>
0

>  <Rbt.Current_Directory>
/home/itssahil/PROJECTS/Mol_Feturizer/New_Systems/rnas/3DJ2

>  <Rbt.Executable>
rbdock ($Id: //depot/dev/client3/rdock/2013.1/src/exe/rbdock.cxx#4 $)

>  <Rbt.Library>
libRbt.so (2013.1, Build901 2013/11/27)

>  <Rbt.Parameter_File>
/export/apps/rDock/src/rDock_2013.1_src/data/scripts/dock_solv.prm

>  <Rbt.Receptor>
prm/blind_docking_60.prm

>  <SCORE>
-7.06778

>  <SCORE.INTER>
-6.24201

>  <SCORE.INTER.CONST>
1

>  <SCORE.INTER.POLAR>
0

>  <SCORE.INTER.ROT>
5

>  <SCORE.INTER.SOLV>
18.3013

>  <SCORE.INTER.VDW>
-17.1951

>  <SCORE.INTER.norm>
-0.624201

>  <SCORE.INTRA>
-0.825774

>  <SCORE.INTRA.DIHEDRAL>
-1.37104

>  <SCORE.INTRA.DIHEDRAL.0>
4.28128

>  <SCORE.INTRA.POLAR>
0

>  <SCORE.INTRA.POLAR.0>
0

>  <SCORE.INTRA.REPUL>
0

>  <SCORE.INTRA.REPUL.0>
0

>  <SCORE.INTRA.SOLV>
-0.528713

>  <SCORE.INTRA.SOLV.lig_0>
-32.3374

>  <SCORE.INTRA.VDW>
0.124101

>  <SCORE.INTRA.VDW.0>
-0.659551

>  <SCORE.INTRA.norm>
-0.0825774

>  <SCORE.RESTR>
0

>  <SCORE.RESTR.CAVITY>
0

>  <SCORE.RESTR.norm>
0

>  <SCORE.SYSTEM>
0

>  <SCORE.SYSTEM.CONST>
0

>  <SCORE.SYSTEM.DIHEDRAL>
0

>  <SCORE.SYSTEM.SOLV>
0

>  <SCORE.SYSTEM.norm>
0

>  <SCORE.heavy>
10

>  <SCORE.norm>
-0.706778

>  <RMSD>
3.749

$$$$
ligand
 OpenBabel11021811473D
libRbt.so/2013.1/901 2013/11/27
 10  9  0  0  0  0  0  0  0  0999 V2000
   29.9570   16.5739   22.2230 N   0  0  0  0  0  0  0  0  0  0  0  0
   28.7956   16.2058   21.3657 C   0  0  2  0  0  0  0  0  0  0  0  0
   28.1691   14.8755   21.7839 C   0  0  0  0  0  0  0  0  0  0  0  0
   26.9452   14.7160   21.8318 O   0  0  0  0  0  0  0  0  0  0  0  0
   29.1942   16.1879   19.8877 C   0  0  0  0  0  0  0  0  0  0  0  0
   28.0975   15.7006   18.9500 C   0  0  0  0  0  0  0  0  0  0  0  0
   28.1591   14.1838   18.7719 C   0  0  0  0  0  0  0  0  0  0  0  0
   27.1031   13.6855   17.7916 C   0  0  0  0  0  0  0  0  0  0  0  0
   27.1543   12.2077   17.5900 N   0  0  0  0  0  0  0  0  0  0  0  0
   28.8790   13.9117   22.0636 O   0  0  0  0  0  0  0  0  0  0  0  0
  2  1  1  1  0  0  0
  2  3  1  0  0  0  0
  2  5  1  0  0  0  0
  3  4  1  0  0  0  0
  3 10  1  0  0  0  0
  5  6  1  0  0  0  0
  6  7  1  0  0  0  0
  7  8  1  0  0  0  0
  8  9  1  0  0  0  0
M  END
>  <CHROM.1>
137.83727875,174.84457851,-89.10208975,-177.69192477,179.35513229,28.23316765
14.80009408,20.24376127,-0.84799442,-1.03634402,-1.48021435

>  <Name>
ligand

>  <RI>
0

>  <Rbt.Current_Directory>
/home/itssahil/PROJECTS/Mol_Feturizer/New_Systems/rnas/3DJ2

>  <Rbt.Executable>
rbdock ($Id: //depot/dev/client3/rdock/2013.1/src/exe/rbdock.cxx#4 $)

>  <Rbt.Library>
libRbt.so (2013.1, Build901 2013/11/27)

>  <Rbt.Parameter_File>
/export/apps/rDock/src/rDock_2013.1_src/data/scripts/dock_solv.prm

>  <Rbt.Receptor>
prm/pocket_docking_6.prm

>  <SCORE>
-8.49221

>  <SCORE.INTER>
-7.96575

>  <SCORE.INTER.CONST>
1

>  <SCORE.INTER.POLAR>
0

>  <SCORE.INTER.ROT>
5

>  <SCORE.INTER.SOLV>
17.2176

>  <SCORE.INTER.VDW>
-17.983

>  <SCORE.INTER.norm>
-0.796575

>  <SCORE.INTRA>
-0.526468

>  <SCORE.INTRA.DIHEDRAL>
0.26287

>  <SCORE.INTRA.DIHEDRAL.0>
4.28128

>  <SCORE.INTRA.POLAR>
0

>  <SCORE.INTRA.POLAR.0>
0

>  <SCORE.INTRA.REPUL>
0

>  <SCORE.INTRA.REPUL.0>
0

>  <SCORE.INTRA.SOLV>
-1.2289

>  <SCORE.INTRA.SOLV.lig_0>
-32.3374

>  <SCORE.INTRA.VDW>
-0.0434524

>  <SCORE.INTRA.VDW.0>
-0.659551

>  <SCORE.INTRA.norm>
-0.0526468

>  <SCORE.RESTR>
0

>  <SCORE.RESTR.CAVITY>
0

>  <SCORE.RESTR.norm>
0

>  <SCORE.SYSTEM>
0

>  <SCORE.SYSTEM.CONST>
0

>  <SCORE.SYSTEM.DIHEDRAL>
0

>  <SCORE.SYSTEM.SOLV>
0

>  <SCORE.SYSTEM.norm>
0

>  <SCORE.heavy>
10

>  <SCORE.norm>
-0.849221

>  <RMSD>
4.063

$$$$
ligand
 OpenBabel11021811473D
libRbt.so/2013.1/901 2013/11/27
 10  9  0  0  0  0  0  0  0  0999 V2000
   30.0926   16.1238   20.6827 N   0  0  0  0  0  0  0  0  0  0  0  0
   28.6115   16.1131   20.8430 C   0  0  2  0  0  0  0  0  0  0  0  0
   28.1603   15.1835   21.9697 C   0  0  0  0  0  0  0  0  0  0  0  0
   26.9819   15.1240   22.3354 O   0  0  0  0  0  0  0  0  0  0  0  0
   27.9238   15.7548   19.5230 C   0  0  0  0  0  0  0  0  0  0  0  0
   28.2295   14.3504   19.0195 C   0  0  0  0  0  0  0  0  0  0  0  0
   27.2228   13.9160   17.9546 C   0  0  0  0  0  0  0  0  0  0  0  0
   27.3962   12.4492   17.5764 C   0  0  0  0  0  0  0  0  0  0  0  0
   26.2660   11.9280   16.7527 N   0  0  0  0  0  0  0  0  0  0  0  0
   28.9672   14.4452   22.5307 O   0  0  0  0  0  0  0  0  0  0  0  0
  2  1  1  6  0  0  0
  2  3  1  0  0  0  0
  2  5  1  0  0  0  0
  3  4  1  0  0  0  0
  3 10  1  0  0  0  0
  5  6  1  0  0  0  0
  6  7  1  0  0  0  0
  7  8  1  0  0  0  0
  8  9  1  0  0  0  0
M  END
>  <CHROM.1>
173.63203184,63.93019766,163.41572482,-172.24783944,168.45526969,27.97786438
14.52537690,19.95351028,-1.11237732,-0.81374798,-1.77835305

>  <Name>
ligand

>  <RI>
0

>  <Rbt.Current_Directory>
/home/itssahil/PROJECTS/Mol_Feturizer/New_Systems/rnas/3DJ2

>  <Rbt.Executable>
rbdock ($Id: //depot/dev/client3/rdock/2013.1/src/exe/rbdock.cxx#4 $)

>  <Rbt.Library>
libRbt.so (2013.1, Build901 2013/11/27)

>  <Rbt.Parameter_File>
/export/apps/rDock/src/rDock_2013.1_src/data/scripts/dock_solv.prm

>  <Rbt.Receptor>
prm/pocket_docking_5.prm

>  <SCORE>
-9.34571

>  <SCORE.INTER>
-8.58514

>  <SCORE.INTER.CONST>
1

>  <SCORE.INTER.POLAR>
0

>  <SCORE.INTER.ROT>
5

>  <SCORE.INTER.SOLV>
16.8586

>  <SCORE.INTER.VDW>
-18.2763

>  <SCORE.INTER.norm>
-0.858514

>  <SCORE.INTRA>
-0.760568

>  <SCORE.INTRA.DIHEDRAL>
-0.90597

>  <SCORE.INTRA.DIHEDRAL.0>
4.28128

>  <SCORE.INTRA.POLAR>
0

>  <SCORE.INTRA.POLAR.0>
0

>  <SCORE.INTRA.REPUL>
0

>  <SCORE.INTRA.REPUL.0>
0

>  <SCORE.INTRA.SOLV>
-0.542424

>  <SCORE.INTRA.SOLV.lig_0>
-32.3374

>  <SCORE.INTRA.VDW>
-0.0363715

>  <SCORE.INTRA.VDW.0>
-0.659551

>  <SCORE.INTRA.norm>
-0.0760568

>  <SCORE.RESTR>
0

>  <SCORE.RESTR.CAVITY>
0

>  <SCORE.RESTR.norm>
0

>  <SCORE.SYSTEM>
0

>  <SCORE.SYSTEM.CONST>
0

>  <SCORE.SYSTEM.DIHEDRAL>
0

>  <SCORE.SYSTEM.SOLV>
0

>  <SCORE.SYSTEM.norm>
0

>  <SCORE.heavy>
10

>  <SCORE.norm>
-0.934571

>  <RMSD>
4.221

$$$$
ligand
 OpenBabel11021811473D
libRbt.so/2013.1/901 2013/11/27
 10  9  0  0  0  0  0  0  0  0999 V2000
   28.3149   15.1210   21.8681 N   0  0  0  0  0  0  0  0  0  0  0  0
   28.6437   15.0667   20.4161 C   0  0  2  0  0  0  0  0  0  0  0  0
   28.8760   16.4574   19.8253 C   0  0  0  0  0  0  0  0  0  0  0  0
   27.9685   17.0976   19.2846 O   0  0  0  0  0  0  0  0  0  0  0  0
   27.5611   14.3113   19.6407 C   0  0  0  0  0  0  0  0  0  0  0  0
   27.9388   13.9774   18.2037 C   0  0  0  0  0  0  0  0  0  0  0  0
   26.9132   13.0388   17.5686 C   0  0  0  0  0  0  0  0  0  0  0  0
   27.4845   11.6430   17.3461 C   0  0  0  0  0  0  0  0  0  0  0  0
   26.4283   10.6224   17.0813 N   0  0  0  0  0  0  0  0  0  0  0  0
   29.9820   16.9891   19.8965 O   0  0  0  0  0  0  0  0  0  0  0  0
  2  1  1  1  0  0  0
  2  3  1  0  0  0  0
  2  5  1  0  0  0  0
  3  4  1  0  0  0  0
  3 10  1  0  0  0  0
  5  6  1  0  0  0  0
  6  7  1  0  0  0  0
  7  8  1  0  0  0  0
  8  9  1  0  0  0  0
M  END
>  <CHROM.1>
-93.36551282,-168.95500617,170.95652375,-110.10017548,164.45849157,28.02135634
14.47245023,19.10684736,0.23592813,1.22046703,1.85807533

>  <Name>
ligand

>  <RI>
0

>  <Rbt.Current_Directory>
/home/itssahil/PROJECTS/Mol_Feturizer/New_Systems/rnas/3DJ2

>  <Rbt.Executable>
rbdock ($Id: //depot/dev/client3/rdock/2013.1/src/exe/rbdock.cxx#4 $)

>  <Rbt.Library>
libRbt.so (2013.1, Build901 2013/11/27)

>  <Rbt.Parameter_File>
/export/apps/rDock/src/rDock_2013.1_src/data/scripts/dock_solv.prm

>  <Rbt.Receptor>
prm/blind_docking_60.prm

>  <SCORE>
-5.24116

>  <SCORE.INTER>
-7.03851

>  <SCORE.INTER.CONST>
1

>  <SCORE.INTER.POLAR>
0

>  <SCORE.INTER.ROT>
5

>  <SCORE.INTER.SOLV>
17.0726

>  <SCORE.INTER.VDW>
-17.3166

>  <SCORE.INTER.norm>
-0.703851

>  <SCORE.INTRA>
1.79735

>  <SCORE.INTRA.DIHEDRAL>
4.55171

>  <SCORE.INTRA.DIHEDRAL.0>
4.28128

>  <SCORE.INTRA.POLAR>
0

>  <SCORE.INTRA.POLAR.0>
0

>  <SCORE.INTRA.REPUL>
0

>  <SCORE.INTRA.REPUL.0>
0

>  <SCORE.INTRA.SOLV>
-1.2635

>  <SCORE.INTRA.SOLV.lig_0>
-32.3374

>  <SCORE.INTRA.VDW>
0.153244

>  <SCORE.INTRA.VDW.0>
-0.659551

>  <SCORE.INTRA.norm>
0.179735

>  <SCORE.RESTR>
0

>  <SCORE.RESTR.CAVITY>
0

>  <SCORE.RESTR.norm>
0

>  <SCORE.SYSTEM>
0

>  <SCORE.SYSTEM.CONST>
0

>  <SCORE.SYSTEM.DIHEDRAL>
0

>  <SCORE.SYSTEM.SOLV>
0

>  <SCORE.SYSTEM.norm>
0

>  <SCORE.heavy>
10

>  <SCORE.norm>
-0.524116

>  <RMSD>
4.487

$$$$
ligand
 OpenBabel11021811473D
libRbt.so/2013.1/901 2013/11/27
 10  9  0  0  0  0  0  0  0  0999 V2000
   29.2200   16.9383   20.7015 N   0  0  0  0  0  0  0  0  0  0  0  0
   28.0516   16.0966   20.3197 C   0  0  2  0  0  0  0  0  0  0  0  0
   27.4550   15.3602   21.5193 C   0  0  0  0  0  0  0  0  0  0  0  0
   26.2986   14.9261   21.5105 O   0  0  0  0  0  0  0  0  0  0  0  0
   28.4268   15.1191   19.2028 C   0  0  0  0  0  0  0  0  0  0  0  0
   27.2539   14.3195   18.6512 C   0  0  0  0  0  0  0  0  0  0  0  0
   27.7386   13.0977   17.8713 C   0  0  0  0  0  0  0  0  0  0  0  0
   26.5758   12.2587   17.3532 C   0  0  0  0  0  0  0  0  0  0  0  0
   26.9893   10.8800   16.9590 N   0  0  0  0  0  0  0  0  0  0  0  0
   28.1298   15.1588   22.5268 O   0  0  0  0  0  0  0  0  0  0  0  0
  2  1  1  1  0  0  0
  2  3  1  0  0  0  0
  2  5  1  0  0  0  0
  3  4  1  0  0  0  0
  3 10  1  0  0  0  0
  5  6  1  0  0  0  0
  6  7  1  0  0  0  0
  7  8  1  0  0  0  0
  8  9  1  0  0  0  0
M  END
>  <CHROM.1>
159.27655283,-173.96979874,-162.78752177,178.00364551,-162.70943050,27.60177143
14.40767802,19.69642094,-1.29316472,-0.85875381,-2.11044176

>  <Name>
ligand

>  <RI>
0

>  <Rbt.Current_Directory>
/home/itssahil/PROJECTS/Mol_Feturizer/New_Systems/rnas/3DJ2

>  <Rbt.Executable>
rbdock ($Id: //depot/dev/client3/rdock/2013.1/src/exe/rbdock.cxx#4 $)

>  <Rbt.Library>
libRbt.so (2013.1, Build901 2013/11/27)

>  <Rbt.Parameter_File>
/export/apps/rDock/src/rDock_2013.1_src/data/scripts/dock_solv.prm

>  <Rbt.Receptor>
prm/pocket_docking_8.prm

>  <SCORE>
-10.4541

>  <SCORE.INTER>
-9.47182

>  <SCORE.INTER.CONST>
1

>  <SCORE.INTER.POLAR>
0

>  <SCORE.INTER.ROT>
5

>  <SCORE.INTER.SOLV>
18.1382

>  <SCORE.INTER.VDW>
-19.2939

>  <SCORE.INTER.norm>
-0.947182

>  <SCORE.INTRA>
-0.982332

>  <SCORE.INTRA.DIHEDRAL>
-0.442888

>  <SCORE.INTRA.DIHEDRAL.0>
4.28128

>  <SCORE.INTRA.POLAR>
0

>  <SCORE.INTRA.POLAR.0>
0

>  <SCORE.INTRA.REPUL>
0

>  <SCORE.INTRA.REPUL.0>
0

>  <SCORE.INTRA.SOLV>
-1.30741

>  <SCORE.INTRA.SOLV.lig_0>
-32.3374

>  <SCORE.INTRA.VDW>
-0.107184

>  <SCORE.INTRA.VDW.0>
-0.659551

>  <SCORE.INTRA.norm>
-0.0982332

>  <SCORE.RESTR>
0

>  <SCORE.RESTR.CAVITY>
0

>  <SCORE.RESTR.norm>
0

>  <SCORE.SYSTEM>
0

>  <SCORE.SYSTEM.CONST>
0

>  <SCORE.SYSTEM.DIHEDRAL>
0

>  <SCORE.SYSTEM.SOLV>
0

>  <SCORE.SYSTEM.norm>
0

>  <SCORE.heavy>
10

>  <SCORE.norm>
-1.04541

>  <RMSD>
4.743

$$$$
ligand
 OpenBabel11021811473D
libRbt.so/2013.1/901 2013/11/27
 10  9  0  0  0  0  0  0  0  0999 V2000
   27.3511   15.2021   19.3558 N   0  0  0  0  0  0  0  0  0  0  0  0
   28.5109   14.8796   20.2334 C   0  0  2  0  0  0  0  0  0  0  0  0
   28.0955   14.6947   21.6930 C   0  0  0  0  0  0  0  0  0  0  0  0
   27.0492   15.1752   22.1405 O   0  0  0  0  0  0  0  0  0  0  0  0
   29.6054   15.9418   20.1012 C   0  0  0  0  0  0  0  0  0  0  0  0
   30.9331   15.5544   20.7388 C   0  0  0  0  0  0  0  0  0  0  0  0
   30.9830   15.9770   22.2069 C   0  0  0  0  0  0  0  0  0  0  0  0
   31.1596   17.4839   22.3567 C   0  0  0  0  0  0  0  0  0  0  0  0
   32.5253   17.9461   21.9711 N   0  0  0  0  0  0  0  0  0  0  0  0
   28.7912   14.0337   22.4611 O   0  0  0  0  0  0  0  0  0  0  0  0
  2  1  1  6  0  0  0
  2  3  1  0  0  0  0
  2  5  1  0  0  0  0
  3  4  1  0  0  0  0
  3 10  1  0  0  0  0
  5  6  1  0  0  0  0
  6  7  1  0  0  0  0
  7  8  1  0  0  0  0
  8  9  1  0  0  0  0
M  END
>  <CHROM.1>
-21.81835256,-168.26670330,-88.94089336,-73.70618058,-71.17167939,29.48326482
15.67824369,21.35584249,-3.03949487,0.55433225,1.75103045

>  <Name>
ligand

>  <RI>
0

>  <Rbt.Current_Directory>
/home/itssahil/PROJECTS/Mol_Feturizer/New_Systems/rnas/3DJ2

>  <Rbt.Executable>
rbdock ($Id: //depot/dev/client3/rdock/2013.1/src/exe/rbdock.cxx#4 $)

>  <Rbt.Library>
libRbt.so (2013.1, Build901 2013/11/27)

>  <Rbt.Parameter_File>
/export/apps/rDock/src/rDock_2013.1_src/data/scripts/dock_solv.prm

>  <Rbt.Receptor>
prm/pocket_docking_8.prm

>  <SCORE>
-6.00194

>  <SCORE.INTER>
-7.21404

>  <SCORE.INTER.CONST>
1

>  <SCORE.INTER.POLAR>
0

>  <SCORE.INTER.ROT>
5

>  <SCORE.INTER.SOLV>
13.2061

>  <SCORE.INTER.VDW>
-16.1447

>  <SCORE.INTER.norm>
-0.721404

>  <SCORE.INTRA>
1.2121

>  <SCORE.INTRA.DIHEDRAL>
1.88559

>  <SCORE.INTRA.DIHEDRAL.0>
4.28128

>  <SCORE.INTRA.POLAR>
0

>  <SCORE.INTRA.POLAR.0>
0

>  <SCORE.INTRA.REPUL>
0

>  <SCORE.INTRA.REPUL.0>
0

>  <SCORE.INTRA.SOLV>
-0.113617

>  <SCORE.INTRA.SOLV.lig_0>
-32.3374

>  <SCORE.INTRA.VDW>
0.326112

>  <SCORE.INTRA.VDW.0>
-0.659551

>  <SCORE.INTRA.norm>
0.12121

>  <SCORE.RESTR>
0

>  <SCORE.RESTR.CAVITY>
0

>  <SCORE.RESTR.norm>
0

>  <SCORE.SYSTEM>
0

>  <SCORE.SYSTEM.CONST>
0

>  <SCORE.SYSTEM.DIHEDRAL>
0

>  <SCORE.SYSTEM.SOLV>
0

>  <SCORE.SYSTEM.norm>
0

>  <SCORE.heavy>
10

>  <SCORE.norm>
-0.600194

>  <RMSD>
4.863

$$$$
ligand
 OpenBabel11021811473D
libRbt.so/2013.1/901 2013/11/27
 10  9  0  0  0  0  0  0  0  0999 V2000
   27.1356   15.9465   19.6563 N   0  0  0  0  0  0  0  0  0  0  0  0
   28.2912   15.2401   20.2765 C   0  0  2  0  0  0  0  0  0  0  0  0
   27.9664   14.7240   21.6785 C   0  0  0  0  0  0  0  0  0  0  0  0
   26.8868   14.9632   22.2289 O   0  0  0  0  0  0  0  0  0  0  0  0
   29.5324   16.1362   20.2920 C   0  0  0  0  0  0  0  0  0  0  0  0
   30.8306   15.4014   20.5987 C   0  0  0  0  0  0  0  0  0  0  0  0
   32.0187   16.3629   20.6073 C   0  0  0  0  0  0  0  0  0  0  0  0
   32.1527   17.0854   21.9432 C   0  0  0  0  0  0  0  0  0  0  0  0
   30.9626   17.9257   22.2669 N   0  0  0  0  0  0  0  0  0  0  0  0
   28.7745   14.0287   22.2905 O   0  0  0  0  0  0  0  0  0  0  0  0
  2  1  1  1  0  0  0
  2  3  1  0  0  0  0
  2  5  1  0  0  0  0
  3  4  1  0  0  0  0
  3 10  1  0  0  0  0
  5  6  1  0  0  0  0
  6  7  1  0  0  0  0
  7  8  1  0  0  0  0
  8  9  1  0  0  0  0
M  END
>  <CHROM.1>
-4.32151458,-166.28625952,-179.53480926,82.63528419,-61.53380459,29.43940900
15.76414422,21.21344125,3.02339163,0.41784559,1.92737255

>  <Name>
ligand

>  <RI>
0

>  <Rbt.Current_Directory>
/home/itssahil/PROJECTS/Mol_Feturizer/New_Systems/rnas/3DJ2

>  <Rbt.Executable>
rbdock ($Id: //depot/dev/client3/rdock/2013.1/src/exe/rbdock.cxx#4 $)

>  <Rbt.Library>
libRbt.so (2013.1, Build901 2013/11/27)

>  <Rbt.Parameter_File>
/export/apps/rDock/src/rDock_2013.1_src/data/scripts/dock_solv.prm

>  <Rbt.Receptor>
prm/pocket_docking_7.prm

>  <SCORE>
-7.35048

>  <SCORE.INTER>
-8.07923

>  <SCORE.INTER.CONST>
1

>  <SCORE.INTER.POLAR>
0

>  <SCORE.INTER.ROT>
5

>  <SCORE.INTER.SOLV>
15.2513

>  <SCORE.INTER.VDW>
-17.4033

>  <SCORE.INTER.norm>
-0.807923

>  <SCORE.INTRA>
0.728756

>  <SCORE.INTRA.DIHEDRAL>
-0.151936

>  <SCORE.INTRA.DIHEDRAL.0>
4.28128

>  <SCORE.INTRA.POLAR>
0

>  <SCORE.INTRA.POLAR.0>
0

>  <SCORE.INTRA.REPUL>
0

>  <SCORE.INTRA.REPUL.0>
0

>  <SCORE.INTRA.SOLV>
0.941822

>  <SCORE.INTRA.SOLV.lig_0>
-32.3374

>  <SCORE.INTRA.VDW>
0.333812

>  <SCORE.INTRA.VDW.0>
-0.659551

>  <SCORE.INTRA.norm>
0.0728756

>  <SCORE.RESTR>
0

>  <SCORE.RESTR.CAVITY>
0

>  <SCORE.RESTR.norm>
0

>  <SCORE.SYSTEM>
0

>  <SCORE.SYSTEM.CONST>
0

>  <SCORE.SYSTEM.DIHEDRAL>
0

>  <SCORE.SYSTEM.SOLV>
0

>  <SCORE.SYSTEM.norm>
0

>  <SCORE.heavy>
10

>  <SCORE.norm>
-0.735048

>  <RMSD>
4.918

$$$$
ligand
 OpenBabel11021811473D
libRbt.so/2013.1/901 2013/11/27
 10  9  0  0  0  0  0  0  0  0999 V2000
   27.0775   14.4713   19.0912 N   0  0  0  0  0  0  0  0  0  0  0  0
   28.1249   14.9748   20.0233 C   0  0  2  0  0  0  0  0  0  0  0  0
   27.7310   14.7875   21.4885 C   0  0  0  0  0  0  0  0  0  0  0  0
   28.5702   14.5668   22.3677 O   0  0  0  0  0  0  0  0  0  0  0  0
   28.4611   16.4382   19.7248 C   0  0  0  0  0  0  0  0  0  0  0  0
   29.5758   17.0127   20.5890 C   0  0  0  0  0  0  0  0  0  0  0  0
   30.8676   16.2124   20.4252 C   0  0  0  0  0  0  0  0  0  0  0  0
   32.0587   16.9244   21.0564 C   0  0  0  0  0  0  0  0  0  0  0  0
   31.8821   17.1587   22.5197 N   0  0  0  0  0  0  0  0  0  0  0  0
   26.5550   14.8769   21.8351 O   0  0  0  0  0  0  0  0  0  0  0  0
  2  1  1  6  0  0  0
  2  3  1  0  0  0  0
  2  5  1  0  0  0  0
  3  4  1  0  0  0  0
  3 10  1  0  0  0  0
  5  6  1  0  0  0  0
  6  7  1  0  0  0  0
  7  8  1  0  0  0  0
  8  9  1  0  0  0  0
M  END
>  <CHROM.1>
147.52811217,-177.09862975,58.69510907,168.64434017,59.77740233,29.07387944
15.73295080,20.94349037,-3.09115998,0.48239333,1.78279967

>  <Name>
ligand

>  <RI>
0

>  <Rbt.Current_Directory>
/home/itssahil/PROJECTS/Mol_Feturizer/New_Systems/rnas/3DJ2

>  <Rbt.Executable>
rbdock ($Id: //depot/dev/client3/rdock/2013.1/src/exe/rbdock.cxx#4 $)

>  <Rbt.Library>
libRbt.so (2013.1, Build901 2013/11/27)

>  <Rbt.Parameter_File>
/export/apps/rDock/src/rDock_2013.1_src/data/scripts/dock_solv.prm

>  <Rbt.Receptor>
prm/pocket_docking_5.prm

>  <SCORE>
-9.24305

>  <SCORE.INTER>
-8.29475

>  <SCORE.INTER.CONST>
1

>  <SCORE.INTER.POLAR>
0

>  <SCORE.INTER.ROT>
5

>  <SCORE.INTER.SOLV>
13.9493

>  <SCORE.INTER.VDW>
-17.1129

>  <SCORE.INTER.norm>
-0.829475

>  <SCORE.INTRA>
-0.948304

>  <SCORE.INTRA.DIHEDRAL>
-2.24715

>  <SCORE.INTRA.DIHEDRAL.0>
4.28128

>  <SCORE.INTRA.POLAR>
0

>  <SCORE.INTRA.POLAR.0>
0

>  <SCORE.INTRA.REPUL>
0

>  <SCORE.INTRA.REPUL.0>
0

>  <SCORE.INTRA.SOLV>
-0.161013

>  <SCORE.INTRA.SOLV.lig_0>
-32.3374

>  <SCORE.INTRA.VDW>
0.255779

>  <SCORE.INTRA.VDW.0>
-0.659551

>  <SCORE.INTRA.norm>
-0.0948304

>  <SCORE.RESTR>
0

>  <SCORE.RESTR.CAVITY>
0

>  <SCORE.RESTR.norm>
0

>  <SCORE.SYSTEM>
0

>  <SCORE.SYSTEM.CONST>
0

>  <SCORE.SYSTEM.DIHEDRAL>
0

>  <SCORE.SYSTEM.SOLV>
0

>  <SCORE.SYSTEM.norm>
0

>  <SCORE.heavy>
10

>  <SCORE.norm>
-0.924305

>  <RMSD>
5.035

$$$$
ligand
 OpenBabel11021811473D
libRbt.so/2013.1/901 2013/11/27
 10  9  0  0  0  0  0  0  0  0999 V2000
   27.3280   14.9136   19.0760 N   0  0  0  0  0  0  0  0  0  0  0  0
   28.3642   15.1863   20.1110 C   0  0  2  0  0  0  0  0  0  0  0  0
   27.9053   14.7723   21.5092 C   0  0  0  0  0  0  0  0  0  0  0  0
   28.6835   14.2825   22.3341 O   0  0  0  0  0  0  0  0  0  0  0  0
   28.7885   16.6569   20.0821 C   0  0  0  0  0  0  0  0  0  0  0  0
   29.8696   17.0160   21.0929 C   0  0  0  0  0  0  0  0  0  0  0  0
   31.1760   16.2849   20.7849 C   0  0  0  0  0  0  0  0  0  0  0  0
   32.2198   16.5077   21.8736 C   0  0  0  0  0  0  0  0  0  0  0  0
   32.5733   17.9470   22.0486 N   0  0  0  0  0  0  0  0  0  0  0  0
   26.7391   14.9415   21.8591 O   0  0  0  0  0  0  0  0  0  0  0  0
  2  1  1  6  0  0  0
  2  3  1  0  0  0  0
  2  5  1  0  0  0  0
  3  4  1  0  0  0  0
  3 10  1  0  0  0  0
  5  6  1  0  0  0  0
  6  7  1  0  0  0  0
  7  8  1  0  0  0  0
  8  9  1  0  0  0  0
M  END
>  <CHROM.1>
143.28262950,-178.79671850,64.46065471,-173.51897425,-60.15371618,29.34630466
15.83622467,21.10651575,3.10470432,0.49226584,1.99833821

>  <Name>
ligand

>  <RI>
0

>  <Rbt.Current_Directory>
/home/itssahil/PROJECTS/Mol_Feturizer/New_Systems/rnas/3DJ2

>  <Rbt.Executable>
rbdock ($Id: //depot/dev/client3/rdock/2013.1/src/exe/rbdock.cxx#4 $)

>  <Rbt.Library>
libRbt.so (2013.1, Build901 2013/11/27)

>  <Rbt.Parameter_File>
/export/apps/rDock/src/rDock_2013.1_src/data/scripts/dock_solv.prm

>  <Rbt.Receptor>
prm/blind_docking_100.prm

>  <SCORE>
-9.95555

>  <SCORE.INTER>
-8.72747

>  <SCORE.INTER.CONST>
1

>  <SCORE.INTER.POLAR>
0

>  <SCORE.INTER.ROT>
5

>  <SCORE.INTER.SOLV>
13.5105

>  <SCORE.INTER.VDW>
-17.2551

>  <SCORE.INTER.norm>
-0.872747

>  <SCORE.INTRA>
-1.22809

>  <SCORE.INTRA.DIHEDRAL>
-2.54137

>  <SCORE.INTRA.DIHEDRAL.0>
4.28128

>  <SCORE.INTRA.POLAR>
0

>  <SCORE.INTRA.POLAR.0>
0

>  <SCORE.INTRA.REPUL>
0

>  <SCORE.INTRA.REPUL.0>
0

>  <SCORE.INTRA.SOLV>
-0.186817

>  <SCORE.INTRA.SOLV.lig_0>
-32.3374

>  <SCORE.INTRA.VDW>
0.136003

>  <SCORE.INTRA.VDW.0>
-0.659551

>  <SCORE.INTRA.norm>
-0.122809

>  <SCORE.RESTR>
0

>  <SCORE.RESTR.CAVITY>
0

>  <SCORE.RESTR.norm>
0

>  <SCORE.SYSTEM>
0

>  <SCORE.SYSTEM.CONST>
0

>  <SCORE.SYSTEM.DIHEDRAL>
0

>  <SCORE.SYSTEM.SOLV>
0

>  <SCORE.SYSTEM.norm>
0

>  <SCORE.heavy>
10

>  <SCORE.norm>
-0.995555

>  <RMSD>
5.041

$$$$
ligand
 OpenBabel11021811473D
libRbt.so/2013.1/901 2013/11/27
 10  9  0  0  0  0  0  0  0  0999 V2000
   27.3292   14.9175   19.0790 N   0  0  0  0  0  0  0  0  0  0  0  0
   28.3568   15.1889   20.1228 C   0  0  2  0  0  0  0  0  0  0  0  0
   27.8849   14.7765   21.5173 C   0  0  0  0  0  0  0  0  0  0  0  0
   26.7166   14.9358   21.8854 O   0  0  0  0  0  0  0  0  0  0  0  0
   28.7840   16.6588   20.0969 C   0  0  0  0  0  0  0  0  0  0  0  0
   29.8714   17.0119   21.1029 C   0  0  0  0  0  0  0  0  0  0  0  0
   31.1903   16.3235   20.7525 C   0  0  0  0  0  0  0  0  0  0  0  0
   32.2394   16.5224   21.8407 C   0  0  0  0  0  0  0  0  0  0  0  0
   32.5627   17.9605   22.0750 N   0  0  0  0  0  0  0  0  0  0  0  0
   28.6627   14.2470   22.3083 O   0  0  0  0  0  0  0  0  0  0  0  0
  2  1  1  6  0  0  0
  2  3  1  0  0  0  0
  2  5  1  0  0  0  0
  3  4  1  0  0  0  0
  3 10  1  0  0  0  0
  5  6  1  0  0  0  0
  6  7  1  0  0  0  0
  7  8  1  0  0  0  0
  8  9  1  0  0  0  0
M  END
>  <CHROM.1>
-37.98174713,-177.94322219,66.75556803,-172.80585192,-60.10665029,29.34116209
15.83897208,21.10725989,3.09987474,0.49286415,1.99198113

>  <Name>
ligand

>  <RI>
0

>  <Rbt.Current_Directory>
/home/itssahil/PROJECTS/Mol_Feturizer/New_Systems/rnas/3DJ2

>  <Rbt.Executable>
rbdock ($Id: //depot/dev/client3/rdock/2013.1/src/exe/rbdock.cxx#4 $)

>  <Rbt.Library>
libRbt.so (2013.1, Build901 2013/11/27)

>  <Rbt.Parameter_File>
/export/apps/rDock/src/rDock_2013.1_src/data/scripts/dock_solv.prm

>  <Rbt.Receptor>
prm/pocket_docking_8.prm

>  <SCORE>
-9.98739

>  <SCORE.INTER>
-8.80107

>  <SCORE.INTER.CONST>
1

>  <SCORE.INTER.POLAR>
0

>  <SCORE.INTER.ROT>
5

>  <SCORE.INTER.SOLV>
13.5

>  <SCORE.INTER.VDW>
-17.3007

>  <SCORE.INTER.norm>
-0.880107

>  <SCORE.INTRA>
-1.18632

>  <SCORE.INTRA.DIHEDRAL>
-2.29927

>  <SCORE.INTRA.DIHEDRAL.0>
4.28128

>  <SCORE.INTRA.POLAR>
0

>  <SCORE.INTRA.POLAR.0>
0

>  <SCORE.INTRA.REPUL>
0

>  <SCORE.INTRA.REPUL.0>
0

>  <SCORE.INTRA.SOLV>
-0.19547

>  <SCORE.INTRA.SOLV.lig_0>
-32.3374

>  <SCORE.INTRA.VDW>
0.0610502

>  <SCORE.INTRA.VDW.0>
-0.659551

>  <SCORE.INTRA.norm>
-0.118632

>  <SCORE.RESTR>
0

>  <SCORE.RESTR.CAVITY>
0

>  <SCORE.RESTR.norm>
0

>  <SCORE.SYSTEM>
0

>  <SCORE.SYSTEM.CONST>
0

>  <SCORE.SYSTEM.DIHEDRAL>
0

>  <SCORE.SYSTEM.SOLV>
0

>  <SCORE.SYSTEM.norm>
0

>  <SCORE.heavy>
10

>  <SCORE.norm>
-0.998739

>  <RMSD>
5.053

$$$$
ligand
 OpenBabel11021811473D
libRbt.so/2013.1/901 2013/11/27
 10  9  0  0  0  0  0  0  0  0999 V2000
   25.9011   15.0049   20.4961 N   0  0  0  0  0  0  0  0  0  0  0  0
   27.2263   15.5987   20.8285 C   0  0  2  0  0  0  0  0  0  0  0  0
   27.9340   16.1569   19.5937 C   0  0  0  0  0  0  0  0  0  0  0  0
   28.4263   17.2897   19.5789 O   0  0  0  0  0  0  0  0  0  0  0  0
   28.1094   14.5841   21.5595 C   0  0  0  0  0  0  0  0  0  0  0  0
   29.3043   15.1976   22.2773 C   0  0  0  0  0  0  0  0  0  0  0  0
   30.4074   15.5732   21.2883 C   0  0  0  0  0  0  0  0  0  0  0  0
   31.5757   16.2671   21.9797 C   0  0  0  0  0  0  0  0  0  0  0  0
   32.6520   16.6715   21.0282 N   0  0  0  0  0  0  0  0  0  0  0  0
   28.0524   15.4726   18.5794 O   0  0  0  0  0  0  0  0  0  0  0  0
  2  1  1  6  0  0  0
  2  3  1  0  0  0  0
  2  5  1  0  0  0  0
  3  4  1  0  0  0  0
  3 10  1  0  0  0  0
  5  6  1  0  0  0  0
  6  7  1  0  0  0  0
  7  8  1  0  0  0  0
  8  9  1  0  0  0  0
M  END
>  <CHROM.1>
131.22203843,-163.63557916,-76.16045197,176.49056803,-178.68684788,28.96570766
15.79430928,20.69039594,2.95963520,-0.29185715,-1.06250390

>  <Name>
ligand

>  <RI>
0

>  <Rbt.Current_Directory>
/home/itssahil/PROJECTS/Mol_Feturizer/New_Systems/rnas/3DJ2

>  <Rbt.Executable>
rbdock ($Id: //depot/dev/client3/rdock/2013.1/src/exe/rbdock.cxx#4 $)

>  <Rbt.Library>
libRbt.so (2013.1, Build901 2013/11/27)

>  <Rbt.Parameter_File>
/export/apps/rDock/src/rDock_2013.1_src/data/scripts/dock_solv.prm

>  <Rbt.Receptor>
prm/pocket_docking_3.prm

>  <SCORE>
-9.35203

>  <SCORE.INTER>
-8.14425

>  <SCORE.INTER.CONST>
1

>  <SCORE.INTER.POLAR>
0

>  <SCORE.INTER.ROT>
5

>  <SCORE.INTER.SOLV>
18.293

>  <SCORE.INTER.VDW>
-18.4605

>  <SCORE.INTER.norm>
-0.814425

>  <SCORE.INTRA>
-1.20777

>  <SCORE.INTRA.DIHEDRAL>
-0.743711

>  <SCORE.INTRA.DIHEDRAL.0>
4.28128

>  <SCORE.INTRA.POLAR>
0

>  <SCORE.INTRA.POLAR.0>
0

>  <SCORE.INTRA.REPUL>
0

>  <SCORE.INTRA.REPUL.0>
0

>  <SCORE.INTRA.SOLV>
-1.23959

>  <SCORE.INTRA.SOLV.lig_0>
-32.3374

>  <SCORE.INTRA.VDW>
-0.216122

>  <SCORE.INTRA.VDW.0>
-0.659551

>  <SCORE.INTRA.norm>
-0.120777

>  <SCORE.RESTR>
0

>  <SCORE.RESTR.CAVITY>
0

>  <SCORE.RESTR.norm>
0

>  <SCORE.SYSTEM>
0

>  <SCORE.SYSTEM.CONST>
0

>  <SCORE.SYSTEM.DIHEDRAL>
0

>  <SCORE.SYSTEM.SOLV>
0

>  <SCORE.SYSTEM.norm>
0

>  <SCORE.heavy>
10

>  <SCORE.norm>
-0.935203

>  <RMSD>
5.075

$$$$
ligand
 OpenBabel11021811473D
libRbt.so/2013.1/901 2013/11/27
 10  9  0  0  0  0  0  0  0  0999 V2000
   29.2396   15.2757   20.9161 N   0  0  0  0  0  0  0  0  0  0  0  0
   28.0322   15.8659   20.2733 C   0  0  2  0  0  0  0  0  0  0  0  0
   26.7391   15.2250   20.7776 C   0  0  0  0  0  0  0  0  0  0  0  0
   25.6624   15.3779   20.1918 O   0  0  0  0  0  0  0  0  0  0  0  0
   28.1317   15.7818   18.7479 C   0  0  0  0  0  0  0  0  0  0  0  0
   28.3821   14.3777   18.2139 C   0  0  0  0  0  0  0  0  0  0  0  0
   27.0784   13.5865   18.1126 C   0  0  0  0  0  0  0  0  0  0  0  0
   27.2780   12.2555   17.3963 C   0  0  0  0  0  0  0  0  0  0  0  0
   26.0142   11.4715   17.2722 N   0  0  0  0  0  0  0  0  0  0  0  0
   26.7448   14.5126   21.7792 O   0  0  0  0  0  0  0  0  0  0  0  0
  2  1  1  1  0  0  0
  2  3  1  0  0  0  0
  2  5  1  0  0  0  0
  3  4  1  0  0  0  0
  3 10  1  0  0  0  0
  5  6  1  0  0  0  0
  6  7  1  0  0  0  0
  7  8  1  0  0  0  0
  8  9  1  0  0  0  0
M  END
>  <CHROM.1>
-165.40793227,54.63123848,82.64512857,171.82899654,-179.36784832,27.30209710
14.36645995,19.38680570,-1.37838442,-0.49796515,-2.22241492

>  <Name>
ligand

>  <RI>
0

>  <Rbt.Current_Directory>
/home/itssahil/PROJECTS/Mol_Feturizer/New_Systems/rnas/3DJ2

>  <Rbt.Executable>
rbdock ($Id: //depot/dev/client3/rdock/2013.1/src/exe/rbdock.cxx#4 $)

>  <Rbt.Library>
libRbt.so (2013.1, Build901 2013/11/27)

>  <Rbt.Parameter_File>
/export/apps/rDock/src/rDock_2013.1_src/data/scripts/dock_solv.prm

>  <Rbt.Receptor>
prm/blind_docking_60.prm

>  <SCORE>
-11.0549

>  <SCORE.INTER>
-11.0254

>  <SCORE.INTER.CONST>
1

>  <SCORE.INTER.POLAR>
0

>  <SCORE.INTER.ROT>
5

>  <SCORE.INTER.SOLV>
15.8306

>  <SCORE.INTER.VDW>
-19.5605

>  <SCORE.INTER.norm>
-1.10254

>  <SCORE.INTRA>
-0.0372314

>  <SCORE.INTRA.DIHEDRAL>
-0.41245

>  <SCORE.INTRA.DIHEDRAL.0>
4.28128

>  <SCORE.INTRA.POLAR>
0

>  <SCORE.INTRA.POLAR.0>
0

>  <SCORE.INTRA.REPUL>
0

>  <SCORE.INTRA.REPUL.0>
0

>  <SCORE.INTRA.SOLV>
-0.0204408

>  <SCORE.INTRA.SOLV.lig_0>
-32.3374

>  <SCORE.INTRA.VDW>
0.179214

>  <SCORE.INTRA.VDW.0>
-0.659551

>  <SCORE.INTRA.norm>
-0.00372314

>  <SCORE.RESTR>
0.00775913

>  <SCORE.RESTR.CAVITY>
0.00775913

>  <SCORE.RESTR.norm>
0.000775913

>  <SCORE.SYSTEM>
0

>  <SCORE.SYSTEM.CONST>
0

>  <SCORE.SYSTEM.DIHEDRAL>
0

>  <SCORE.SYSTEM.SOLV>
0

>  <SCORE.SYSTEM.norm>
0

>  <SCORE.heavy>
10

>  <SCORE.norm>
-1.10549

>  <RMSD>
5.110

$$$$
ligand
 OpenBabel11021811473D
libRbt.so/2013.1/901 2013/11/27
 10  9  0  0  0  0  0  0  0  0999 V2000
   29.3627   15.4826   20.5045 N   0  0  0  0  0  0  0  0  0  0  0  0
   27.9558   15.7848   20.1188 C   0  0  2  0  0  0  0  0  0  0  0  0
   26.9525   15.2786   21.1552 C   0  0  0  0  0  0  0  0  0  0  0  0
   27.2730   15.0777   22.3312 O   0  0  0  0  0  0  0  0  0  0  0  0
   27.6412   15.2278   18.7279 C   0  0  0  0  0  0  0  0  0  0  0  0
   27.6107   13.7069   18.6554 C   0  0  0  0  0  0  0  0  0  0  0  0
   26.9086   13.2302   17.3842 C   0  0  0  0  0  0  0  0  0  0  0  0
   26.7268   11.7166   17.3714 C   0  0  0  0  0  0  0  0  0  0  0  0
   28.0232   10.9790   17.4233 N   0  0  0  0  0  0  0  0  0  0  0  0
   25.7803   15.0792   20.8439 O   0  0  0  0  0  0  0  0  0  0  0  0
  2  1  1  1  0  0  0
  2  3  1  0  0  0  0
  2  5  1  0  0  0  0
  3  4  1  0  0  0  0
  3 10  1  0  0  0  0
  5  6  1  0  0  0  0
  6  7  1  0  0  0  0
  7  8  1  0  0  0  0
  8  9  1  0  0  0  0
M  END
>  <CHROM.1>
22.92197738,68.13473785,163.50150844,-173.45657258,-60.81988132,27.40097000
14.15471558,19.48232200,-1.55295551,-0.40210791,-2.30279913

>  <Name>
ligand

>  <RI>
0

>  <Rbt.Current_Directory>
/home/itssahil/PROJECTS/Mol_Feturizer/New_Systems/rnas/3DJ2

>  <Rbt.Executable>
rbdock ($Id: //depot/dev/client3/rdock/2013.1/src/exe/rbdock.cxx#4 $)

>  <Rbt.Library>
libRbt.so (2013.1, Build901 2013/11/27)

>  <Rbt.Parameter_File>
/export/apps/rDock/src/rDock_2013.1_src/data/scripts/dock_solv.prm

>  <Rbt.Receptor>
prm/blind_docking_40.prm

>  <SCORE>
-9.36944

>  <SCORE.INTER>
-9.3639

>  <SCORE.INTER.CONST>
1

>  <SCORE.INTER.POLAR>
0

>  <SCORE.INTER.ROT>
5

>  <SCORE.INTER.SOLV>
15.7285

>  <SCORE.INTER.VDW>
-18.4188

>  <SCORE.INTER.norm>
-0.93639

>  <SCORE.INTRA>
-0.00553867

>  <SCORE.INTRA.DIHEDRAL>
-1.3139

>  <SCORE.INTRA.DIHEDRAL.0>
4.28128

>  <SCORE.INTRA.POLAR>
0

>  <SCORE.INTRA.POLAR.0>
0

>  <SCORE.INTRA.REPUL>
0

>  <SCORE.INTRA.REPUL.0>
0

>  <SCORE.INTRA.SOLV>
0.28342

>  <SCORE.INTRA.SOLV.lig_0>
-32.3374

>  <SCORE.INTRA.VDW>
0.509704

>  <SCORE.INTRA.VDW.0>
-0.659551

>  <SCORE.INTRA.norm>
-0.000553867

>  <SCORE.RESTR>
0

>  <SCORE.RESTR.CAVITY>
0

>  <SCORE.RESTR.norm>
0

>  <SCORE.SYSTEM>
0

>  <SCORE.SYSTEM.CONST>
0

>  <SCORE.SYSTEM.DIHEDRAL>
0

>  <SCORE.SYSTEM.SOLV>
0

>  <SCORE.SYSTEM.norm>
0

>  <SCORE.heavy>
10

>  <SCORE.norm>
-0.936944

>  <RMSD>
5.128

$$$$
ligand
 OpenBabel11021811473D
libRbt.so/2013.1/901 2013/11/27
 10  9  0  0  0  0  0  0  0  0999 V2000
   27.1578   15.9297   19.6256 N   0  0  0  0  0  0  0  0  0  0  0  0
   28.3006   15.2297   20.2762 C   0  0  2  0  0  0  0  0  0  0  0  0
   27.9511   14.7380   21.6810 C   0  0  0  0  0  0  0  0  0  0  0  0
   26.8609   14.9839   22.2070 O   0  0  0  0  0  0  0  0  0  0  0  0
   29.5446   16.1218   20.2972 C   0  0  0  0  0  0  0  0  0  0  0  0
   30.8343   15.3886   20.6412 C   0  0  0  0  0  0  0  0  0  0  0  0
   32.0197   16.3523   20.6885 C   0  0  0  0  0  0  0  0  0  0  0  0
   31.9782   17.2407   21.9269 C   0  0  0  0  0  0  0  0  0  0  0  0
   33.1775   18.1208   22.0464 N   0  0  0  0  0  0  0  0  0  0  0  0
   28.7495   14.0561   22.3203 O   0  0  0  0  0  0  0  0  0  0  0  0
  2  1  1  1  0  0  0
  2  3  1  0  0  0  0
  2  5  1  0  0  0  0
  3  4  1  0  0  0  0
  3 10  1  0  0  0  0
  5  6  1  0  0  0  0
  6  7  1  0  0  0  0
  7  8  1  0  0  0  0
  8  9  1  0  0  0  0
M  END
>  <CHROM.1>
-3.93536960,-166.45990883,-178.07379840,72.95621322,175.80611663,29.63953892
15.79918723,21.20078233,3.01494403,0.41804278,1.99950634

>  <Name>
ligand

>  <RI>
0

>  <Rbt.Current_Directory>
/home/itssahil/PROJECTS/Mol_Feturizer/New_Systems/rnas/3DJ2

>  <Rbt.Executable>
rbdock ($Id: //depot/dev/client3/rdock/2013.1/src/exe/rbdock.cxx#4 $)

>  <Rbt.Library>
libRbt.so (2013.1, Build901 2013/11/27)

>  <Rbt.Parameter_File>
/export/apps/rDock/src/rDock_2013.1_src/data/scripts/dock_solv.prm

>  <Rbt.Receptor>
prm/pocket_docking_3.prm

>  <SCORE>
-8.46593

>  <SCORE.INTER>
-7.68654

>  <SCORE.INTER.CONST>
1

>  <SCORE.INTER.POLAR>
0

>  <SCORE.INTER.ROT>
5

>  <SCORE.INTER.SOLV>
15.7599

>  <SCORE.INTER.VDW>
-17.311

>  <SCORE.INTER.norm>
-0.768654

>  <SCORE.INTRA>
-0.779392

>  <SCORE.INTRA.DIHEDRAL>
-1.32902

>  <SCORE.INTRA.DIHEDRAL.0>
4.28128

>  <SCORE.INTRA.POLAR>
0

>  <SCORE.INTRA.POLAR.0>
0

>  <SCORE.INTRA.REPUL>
0

>  <SCORE.INTRA.REPUL.0>
0

>  <SCORE.INTRA.SOLV>
-1.14245

>  <SCORE.INTRA.SOLV.lig_0>
-32.3374

>  <SCORE.INTRA.VDW>
0.456344

>  <SCORE.INTRA.VDW.0>
-0.659551

>  <SCORE.INTRA.norm>
-0.0779392

>  <SCORE.RESTR>
0

>  <SCORE.RESTR.CAVITY>
0

>  <SCORE.RESTR.norm>
0

>  <SCORE.SYSTEM>
0

>  <SCORE.SYSTEM.CONST>
0

>  <SCORE.SYSTEM.DIHEDRAL>
0

>  <SCORE.SYSTEM.SOLV>
0

>  <SCORE.SYSTEM.norm>
0

>  <SCORE.heavy>
10

>  <SCORE.norm>
-0.846593

>  <RMSD>
5.129

$$$$
ligand
 OpenBabel11021811473D
libRbt.so/2013.1/901 2013/11/27
 10  9  0  0  0  0  0  0  0  0999 V2000
   25.9205   14.8670   20.8697 N   0  0  0  0  0  0  0  0  0  0  0  0
   27.2648   15.5005   20.9741 C   0  0  2  0  0  0  0  0  0  0  0  0
   27.7761   15.9942   19.6205 C   0  0  0  0  0  0  0  0  0  0  0  0
   28.2723   17.1166   19.4793 O   0  0  0  0  0  0  0  0  0  0  0  0
   28.2671   14.5458   21.6280 C   0  0  0  0  0  0  0  0  0  0  0  0
   29.5722   15.2050   22.0542 C   0  0  0  0  0  0  0  0  0  0  0  0
   30.4592   15.5025   20.8455 C   0  0  0  0  0  0  0  0  0  0  0  0
   31.7995   16.0992   21.2600 C   0  0  0  0  0  0  0  0  0  0  0  0
   31.6558   17.4049   21.9684 N   0  0  0  0  0  0  0  0  0  0  0  0
   27.7264   15.2664   18.6312 O   0  0  0  0  0  0  0  0  0  0  0  0
  2  1  1  6  0  0  0
  2  3  1  0  0  0  0
  2  5  1  0  0  0  0
  3  4  1  0  0  0  0
  3 10  1  0  0  0  0
  5  6  1  0  0  0  0
  6  7  1  0  0  0  0
  7  8  1  0  0  0  0
  8  9  1  0  0  0  0
M  END
>  <CHROM.1>
133.53704561,-167.17008326,-74.51106440,-177.15631608,-61.79865512,28.87415881
15.76075318,20.70015123,2.98621589,-0.37359269,-1.03017528

>  <Name>
ligand

>  <RI>
0

>  <Rbt.Current_Directory>
/home/itssahil/PROJECTS/Mol_Feturizer/New_Systems/rnas/3DJ2

>  <Rbt.Executable>
rbdock ($Id: //depot/dev/client3/rdock/2013.1/src/exe/rbdock.cxx#4 $)

>  <Rbt.Library>
libRbt.so (2013.1, Build901 2013/11/27)

>  <Rbt.Parameter_File>
/export/apps/rDock/src/rDock_2013.1_src/data/scripts/dock_solv.prm

>  <Rbt.Receptor>
prm/pocket_docking_3.prm

>  <SCORE>
-9.42129

>  <SCORE.INTER>
-8.6933

>  <SCORE.INTER.CONST>
1

>  <SCORE.INTER.POLAR>
0

>  <SCORE.INTER.ROT>
5

>  <SCORE.INTER.SOLV>
17.4744

>  <SCORE.INTER.VDW>
-18.5537

>  <SCORE.INTER.norm>
-0.86933

>  <SCORE.INTRA>
-0.727984

>  <SCORE.INTRA.DIHEDRAL>
-1.3092

>  <SCORE.INTRA.DIHEDRAL.0>
4.28128

>  <SCORE.INTRA.POLAR>
0

>  <SCORE.INTRA.POLAR.0>
0

>  <SCORE.INTRA.REPUL>
0

>  <SCORE.INTRA.REPUL.0>
0

>  <SCORE.INTRA.SOLV>
-0.318168

>  <SCORE.INTRA.SOLV.lig_0>
-32.3374

>  <SCORE.INTRA.VDW>
0.0857014

>  <SCORE.INTRA.VDW.0>
-0.659551

>  <SCORE.INTRA.norm>
-0.0727984

>  <SCORE.RESTR>
0

>  <SCORE.RESTR.CAVITY>
0

>  <SCORE.RESTR.norm>
0

>  <SCORE.SYSTEM>
0

>  <SCORE.SYSTEM.CONST>
0

>  <SCORE.SYSTEM.DIHEDRAL>
0

>  <SCORE.SYSTEM.SOLV>
0

>  <SCORE.SYSTEM.norm>
0

>  <SCORE.heavy>
10

>  <SCORE.norm>
-0.942129

>  <RMSD>
5.133

$$$$
ligand
 OpenBabel11021811473D
libRbt.so/2013.1/901 2013/11/27
 10  9  0  0  0  0  0  0  0  0999 V2000
   25.8993   14.8688   20.8852 N   0  0  0  0  0  0  0  0  0  0  0  0
   27.2471   15.4958   20.9828 C   0  0  2  0  0  0  0  0  0  0  0  0
   27.7658   15.9619   19.6224 C   0  0  0  0  0  0  0  0  0  0  0  0
   27.7276   15.2350   18.6244 O   0  0  0  0  0  0  0  0  0  0  0  0
   28.2413   14.5468   21.6572 C   0  0  0  0  0  0  0  0  0  0  0  0
   29.5576   15.2006   22.0562 C   0  0  0  0  0  0  0  0  0  0  0  0
   30.4381   15.4570   20.8334 C   0  0  0  0  0  0  0  0  0  0  0  0
   31.7812   16.0657   21.2204 C   0  0  0  0  0  0  0  0  0  0  0  0
   31.6452   17.4128   21.8481 N   0  0  0  0  0  0  0  0  0  0  0  0
   28.2181   17.0963   19.4820 O   0  0  0  0  0  0  0  0  0  0  0  0
  2  1  1  6  0  0  0
  2  3  1  0  0  0  0
  2  5  1  0  0  0  0
  3  4  1  0  0  0  0
  3 10  1  0  0  0  0
  5  6  1  0  0  0  0
  6  7  1  0  0  0  0
  7  8  1  0  0  0  0
  8  9  1  0  0  0  0
M  END
>  <CHROM.1>
-47.78826033,-168.07780948,-74.29502501,-177.95509820,-63.56043589,28.85455462
15.74446714,20.68824135,2.99916145,-0.36283684,-1.03413418

>  <Name>
ligand

>  <RI>
0

>  <Rbt.Current_Directory>
/home/itssahil/PROJECTS/Mol_Feturizer/New_Systems/rnas/3DJ2

>  <Rbt.Executable>
rbdock ($Id: //depot/dev/client3/rdock/2013.1/src/exe/rbdock.cxx#4 $)

>  <Rbt.Library>
libRbt.so (2013.1, Build901 2013/11/27)

>  <Rbt.Parameter_File>
/export/apps/rDock/src/rDock_2013.1_src/data/scripts/dock_solv.prm

>  <Rbt.Receptor>
prm/blind_docking_100.prm

>  <SCORE>
-9.40302

>  <SCORE.INTER>
-8.63855

>  <SCORE.INTER.CONST>
1

>  <SCORE.INTER.POLAR>
0

>  <SCORE.INTER.ROT>
5

>  <SCORE.INTER.SOLV>
17.6252

>  <SCORE.INTER.VDW>
-18.5674

>  <SCORE.INTER.norm>
-0.863855

>  <SCORE.INTRA>
-0.76447

>  <SCORE.INTRA.DIHEDRAL>
-1.33889

>  <SCORE.INTRA.DIHEDRAL.0>
4.28128

>  <SCORE.INTRA.POLAR>
0

>  <SCORE.INTRA.POLAR.0>
0

>  <SCORE.INTRA.REPUL>
0

>  <SCORE.INTRA.REPUL.0>
0

>  <SCORE.INTRA.SOLV>
-0.332399

>  <SCORE.INTRA.SOLV.lig_0>
-32.3374

>  <SCORE.INTRA.VDW>
0.0711724

>  <SCORE.INTRA.VDW.0>
-0.659551

>  <SCORE.INTRA.norm>
-0.076447

>  <SCORE.RESTR>
0

>  <SCORE.RESTR.CAVITY>
0

>  <SCORE.RESTR.norm>
0

>  <SCORE.SYSTEM>
0

>  <SCORE.SYSTEM.CONST>
0

>  <SCORE.SYSTEM.DIHEDRAL>
0

>  <SCORE.SYSTEM.SOLV>
0

>  <SCORE.SYSTEM.norm>
0

>  <SCORE.heavy>
10

>  <SCORE.norm>
-0.940302

>  <RMSD>
5.137

$$$$
ligand
 OpenBabel11021811473D
libRbt.so/2013.1/901 2013/11/27
 10  9  0  0  0  0  0  0  0  0999 V2000
   25.9294   15.0931   20.7692 N   0  0  0  0  0  0  0  0  0  0  0  0
   27.3490   15.5428   20.7267 C   0  0  2  0  0  0  0  0  0  0  0  0
   27.8355   15.7817   19.2972 C   0  0  0  0  0  0  0  0  0  0  0  0
   27.6418   14.9603   18.3952 O   0  0  0  0  0  0  0  0  0  0  0  0
   28.2562   14.5514   21.4600 C   0  0  0  0  0  0  0  0  0  0  0  0
   29.7339   14.9191   21.4348 C   0  0  0  0  0  0  0  0  0  0  0  0
   29.9953   16.2033   22.2213 C   0  0  0  0  0  0  0  0  0  0  0  0
   31.4637   16.6100   22.1696 C   0  0  0  0  0  0  0  0  0  0  0  0
   31.9245   16.9343   20.7876 N   0  0  0  0  0  0  0  0  0  0  0  0
   28.4185   16.8229   19.0020 O   0  0  0  0  0  0  0  0  0  0  0  0
  2  1  1  6  0  0  0
  2  3  1  0  0  0  0
  2  5  1  0  0  0  0
  3  4  1  0  0  0  0
  3 10  1  0  0  0  0
  5  6  1  0  0  0  0
  6  7  1  0  0  0  0
  7  8  1  0  0  0  0
  8  9  1  0  0  0  0
M  END
>  <CHROM.1>
-47.72533349,178.57114326,66.12438744,-178.20353698,63.29762966,28.85702908
15.74685446,20.59068653,2.81709288,-0.39603834,-1.25234269

>  <Name>
ligand

>  <RI>
0

>  <Rbt.Current_Directory>
/home/itssahil/PROJECTS/Mol_Feturizer/New_Systems/rnas/3DJ2

>  <Rbt.Executable>
rbdock ($Id: //depot/dev/client3/rdock/2013.1/src/exe/rbdock.cxx#4 $)

>  <Rbt.Library>
libRbt.so (2013.1, Build901 2013/11/27)

>  <Rbt.Parameter_File>
/export/apps/rDock/src/rDock_2013.1_src/data/scripts/dock_solv.prm

>  <Rbt.Receptor>
prm/pocket_docking_8.prm

>  <SCORE>
-9.41991

>  <SCORE.INTER>
-8.08405

>  <SCORE.INTER.CONST>
1

>  <SCORE.INTER.POLAR>
0

>  <SCORE.INTER.ROT>
5

>  <SCORE.INTER.SOLV>
17.4372

>  <SCORE.INTER.VDW>
-18.1351

>  <SCORE.INTER.norm>
-0.808405

>  <SCORE.INTRA>
-1.33587

>  <SCORE.INTRA.DIHEDRAL>
-2.50882

>  <SCORE.INTRA.DIHEDRAL.0>
4.28128

>  <SCORE.INTRA.POLAR>
0

>  <SCORE.INTRA.POLAR.0>
0

>  <SCORE.INTRA.REPUL>
0

>  <SCORE.INTRA.REPUL.0>
0

>  <SCORE.INTRA.SOLV>
-0.178952

>  <SCORE.INTRA.SOLV.lig_0>
-32.3374

>  <SCORE.INTRA.VDW>
0.00801824

>  <SCORE.INTRA.VDW.0>
-0.659551

>  <SCORE.INTRA.norm>
-0.133587

>  <SCORE.RESTR>
0

>  <SCORE.RESTR.CAVITY>
0

>  <SCORE.RESTR.norm>
0

>  <SCORE.SYSTEM>
0

>  <SCORE.SYSTEM.CONST>
0

>  <SCORE.SYSTEM.DIHEDRAL>
0

>  <SCORE.SYSTEM.SOLV>
0

>  <SCORE.SYSTEM.norm>
0

>  <SCORE.heavy>
10

>  <SCORE.norm>
-0.941991

>  <RMSD>
5.137

$$$$
ligand
 OpenBabel11021811473D
libRbt.so/2013.1/901 2013/11/27
 10  9  0  0  0  0  0  0  0  0999 V2000
   29.1546   16.4423   20.5729 N   0  0  0  0  0  0  0  0  0  0  0  0
   27.9522   15.7811   19.9931 C   0  0  2  0  0  0  0  0  0  0  0  0
   27.0034   15.2608   21.0730 C   0  0  0  0  0  0  0  0  0  0  0  0
   27.3840   15.0442   22.2281 O   0  0  0  0  0  0  0  0  0  0  0  0
   28.3575   14.6631   19.0290 C   0  0  0  0  0  0  0  0  0  0  0  0
   27.1896   14.0123   18.2996 C   0  0  0  0  0  0  0  0  0  0  0  0
   27.5993   12.6718   17.6902 C   0  0  0  0  0  0  0  0  0  0  0  0
   26.3935   11.8872   17.1853 C   0  0  0  0  0  0  0  0  0  0  0  0
   26.6922   10.4398   16.9778 N   0  0  0  0  0  0  0  0  0  0  0  0
   25.8165   15.0654   20.8199 O   0  0  0  0  0  0  0  0  0  0  0  0
  2  1  1  1  0  0  0
  2  3  1  0  0  0  0
  2  5  1  0  0  0  0
  3  4  1  0  0  0  0
  3 10  1  0  0  0  0
  5  6  1  0  0  0  0
  6  7  1  0  0  0  0
  7  8  1  0  0  0  0
  8  9  1  0  0  0  0
M  END
>  <CHROM.1>
-20.90664224,-175.03662153,-163.28048851,169.34272468,-162.37596797,27.33376526
14.12491980,19.41838486,-1.38539411,-0.61320273,-2.27262891

>  <Name>
ligand

>  <RI>
0

>  <Rbt.Current_Directory>
/home/itssahil/PROJECTS/Mol_Feturizer/New_Systems/rnas/3DJ2

>  <Rbt.Executable>
rbdock ($Id: //depot/dev/client3/rdock/2013.1/src/exe/rbdock.cxx#4 $)

>  <Rbt.Library>
libRbt.so (2013.1, Build901 2013/11/27)

>  <Rbt.Parameter_File>
/export/apps/rDock/src/rDock_2013.1_src/data/scripts/dock_solv.prm

>  <Rbt.Receptor>
prm/pocket_docking_8.prm

>  <SCORE>
-11.2676

>  <SCORE.INTER>
-10.5337

>  <SCORE.INTER.CONST>
1

>  <SCORE.INTER.POLAR>
0

>  <SCORE.INTER.ROT>
5

>  <SCORE.INTER.SOLV>
15.5537

>  <SCORE.INTER.VDW>
-19.1404

>  <SCORE.INTER.norm>
-1.05337

>  <SCORE.INTRA>
-0.733882

>  <SCORE.INTRA.DIHEDRAL>
0.0283069

>  <SCORE.INTRA.DIHEDRAL.0>
4.28128

>  <SCORE.INTRA.POLAR>
0

>  <SCORE.INTRA.POLAR.0>
0

>  <SCORE.INTRA.REPUL>
0

>  <SCORE.INTRA.REPUL.0>
0

>  <SCORE.INTRA.SOLV>
-1.31051

>  <SCORE.INTRA.SOLV.lig_0>
-32.3374

>  <SCORE.INTRA.VDW>
-0.0927792

>  <SCORE.INTRA.VDW.0>
-0.659551

>  <SCORE.INTRA.norm>
-0.0733882

>  <SCORE.RESTR>
0

>  <SCORE.RESTR.CAVITY>
0

>  <SCORE.RESTR.norm>
0

>  <SCORE.SYSTEM>
0

>  <SCORE.SYSTEM.CONST>
0

>  <SCORE.SYSTEM.DIHEDRAL>
0

>  <SCORE.SYSTEM.SOLV>
0

>  <SCORE.SYSTEM.norm>
0

>  <SCORE.heavy>
10

>  <SCORE.norm>
-1.12676

>  <RMSD>
5.138

$$$$
ligand
 OpenBabel11021811473D
libRbt.so/2013.1/901 2013/11/27
 10  9  0  0  0  0  0  0  0  0999 V2000
   25.8839   14.8929   20.8806 N   0  0  0  0  0  0  0  0  0  0  0  0
   27.2467   15.4850   20.9864 C   0  0  2  0  0  0  0  0  0  0  0  0
   27.7660   15.9814   19.6369 C   0  0  0  0  0  0  0  0  0  0  0  0
   28.2758   17.0986   19.5038 O   0  0  0  0  0  0  0  0  0  0  0  0
   28.2235   14.4925   21.6225 C   0  0  0  0  0  0  0  0  0  0  0  0
   29.5341   15.1145   22.0858 C   0  0  0  0  0  0  0  0  0  0  0  0
   30.4330   15.4539   20.8972 C   0  0  0  0  0  0  0  0  0  0  0  0
   31.7670   16.0406   21.3453 C   0  0  0  0  0  0  0  0  0  0  0  0
   31.6132   17.3343   22.0733 N   0  0  0  0  0  0  0  0  0  0  0  0
   27.7091   15.2608   18.6428 O   0  0  0  0  0  0  0  0  0  0  0  0
  2  1  1  6  0  0  0
  2  3  1  0  0  0  0
  2  5  1  0  0  0  0
  3  4  1  0  0  0  0
  3 10  1  0  0  0  0
  5  6  1  0  0  0  0
  6  7  1  0  0  0  0
  7  8  1  0  0  0  0
  8  9  1  0  0  0  0
M  END
>  <CHROM.1>
132.40101568,-165.55741198,-73.62307709,-178.34119674,-62.82228157,28.84824602
15.72615839,20.73449290,2.96545268,-0.37244235,-1.02219267

>  <Name>
ligand

>  <RI>
0

>  <Rbt.Current_Directory>
/home/itssahil/PROJECTS/Mol_Feturizer/New_Systems/rnas/3DJ2

>  <Rbt.Executable>
rbdock ($Id: //depot/dev/client3/rdock/2013.1/src/exe/rbdock.cxx#4 $)

>  <Rbt.Library>
libRbt.so (2013.1, Build901 2013/11/27)

>  <Rbt.Parameter_File>
/export/apps/rDock/src/rDock_2013.1_src/data/scripts/dock_solv.prm

>  <Rbt.Receptor>
prm/pocket_docking_5.prm

>  <SCORE>
-9.43169

>  <SCORE.INTER>
-8.69343

>  <SCORE.INTER.CONST>
1

>  <SCORE.INTER.POLAR>
0

>  <SCORE.INTER.ROT>
5

>  <SCORE.INTER.SOLV>
17.5328

>  <SCORE.INTER.VDW>
-18.5732

>  <SCORE.INTER.norm>
-0.869343

>  <SCORE.INTRA>
-0.738257

>  <SCORE.INTRA.DIHEDRAL>
-1.25219

>  <SCORE.INTRA.DIHEDRAL.0>
4.28128

>  <SCORE.INTRA.POLAR>
0

>  <SCORE.INTRA.POLAR.0>
0

>  <SCORE.INTRA.REPUL>
0

>  <SCORE.INTRA.REPUL.0>
0

>  <SCORE.INTRA.SOLV>
-0.324294

>  <SCORE.INTRA.SOLV.lig_0>
-32.3374

>  <SCORE.INTRA.VDW>
0.0499868

>  <SCORE.INTRA.VDW.0>
-0.659551

>  <SCORE.INTRA.norm>
-0.0738257

>  <SCORE.RESTR>
0

>  <SCORE.RESTR.CAVITY>
0

>  <SCORE.RESTR.norm>
0

>  <SCORE.SYSTEM>
0

>  <SCORE.SYSTEM.CONST>
0

>  <SCORE.SYSTEM.DIHEDRAL>
0

>  <SCORE.SYSTEM.SOLV>
0

>  <SCORE.SYSTEM.norm>
0

>  <SCORE.heavy>
10

>  <SCORE.norm>
-0.943169

>  <RMSD>
5.139

$$$$
ligand
 OpenBabel11021811473D
libRbt.so/2013.1/901 2013/11/27
 10  9  0  0  0  0  0  0  0  0999 V2000
   25.9155   14.8714   20.8726 N   0  0  0  0  0  0  0  0  0  0  0  0
   27.2614   15.5032   20.9658 C   0  0  2  0  0  0  0  0  0  0  0  0
   27.7744   15.9704   19.6035 C   0  0  0  0  0  0  0  0  0  0  0  0
   27.7341   15.2434   18.6056 O   0  0  0  0  0  0  0  0  0  0  0  0
   28.2610   14.5582   21.6376 C   0  0  0  0  0  0  0  0  0  0  0  0
   29.5575   15.2271   22.0747 C   0  0  0  0  0  0  0  0  0  0  0  0
   30.4592   15.5168   20.8750 C   0  0  0  0  0  0  0  0  0  0  0  0
   31.7800   16.1494   21.2991 C   0  0  0  0  0  0  0  0  0  0  0  0
   31.5968   17.4578   21.9932 N   0  0  0  0  0  0  0  0  0  0  0  0
   28.2239   17.1057   19.4615 O   0  0  0  0  0  0  0  0  0  0  0  0
  2  1  1  6  0  0  0
  2  3  1  0  0  0  0
  2  5  1  0  0  0  0
  3  4  1  0  0  0  0
  3 10  1  0  0  0  0
  5  6  1  0  0  0  0
  6  7  1  0  0  0  0
  7  8  1  0  0  0  0
  8  9  1  0  0  0  0
M  END
>  <CHROM.1>
-47.69023032,-166.12065397,-74.71932312,-178.31433009,-61.01454152,28.85873723
15.77065792,20.70559044,2.97280040,-0.38552433,-1.04688425

>  <Name>
ligand

>  <RI>
0

>  <Rbt.Current_Directory>
/home/itssahil/PROJECTS/Mol_Feturizer/New_Systems/rnas/3DJ2

>  <Rbt.Executable>
rbdock ($Id: //depot/dev/client3/rdock/2013.1/src/exe/rbdock.cxx#4 $)

>  <Rbt.Library>
libRbt.so (2013.1, Build901 2013/11/27)

>  <Rbt.Parameter_File>
/export/apps/rDock/src/rDock_2013.1_src/data/scripts/dock_solv.prm

>  <Rbt.Receptor>
prm/pocket_docking_3.prm

>  <SCORE>
-9.40284

>  <SCORE.INTER>
-8.66464

>  <SCORE.INTER.CONST>
1

>  <SCORE.INTER.POLAR>
0

>  <SCORE.INTER.ROT>
5

>  <SCORE.INTER.SOLV>
17.5089

>  <SCORE.INTER.VDW>
-18.5461

>  <SCORE.INTER.norm>
-0.866464

>  <SCORE.INTRA>
-0.738198

>  <SCORE.INTRA.DIHEDRAL>
-1.16251

>  <SCORE.INTRA.DIHEDRAL.0>
4.28128

>  <SCORE.INTRA.POLAR>
0

>  <SCORE.INTRA.POLAR.0>
0

>  <SCORE.INTRA.REPUL>
0

>  <SCORE.INTRA.REPUL.0>
0

>  <SCORE.INTRA.SOLV>
-0.301311

>  <SCORE.INTRA.SOLV.lig_0>
-32.3374

>  <SCORE.INTRA.VDW>
-0.0062863

>  <SCORE.INTRA.VDW.0>
-0.659551

>  <SCORE.INTRA.norm>
-0.0738198

>  <SCORE.RESTR>
0

>  <SCORE.RESTR.CAVITY>
0

>  <SCORE.RESTR.norm>
0

>  <SCORE.SYSTEM>
0

>  <SCORE.SYSTEM.CONST>
0

>  <SCORE.SYSTEM.DIHEDRAL>
0

>  <SCORE.SYSTEM.SOLV>
0

>  <SCORE.SYSTEM.norm>
0

>  <SCORE.heavy>
10

>  <SCORE.norm>
-0.940284

>  <RMSD>
5.141

$$$$
ligand
 OpenBabel11021811473D
libRbt.so/2013.1/901 2013/11/27
 10  9  0  0  0  0  0  0  0  0999 V2000
   25.8443   14.8896   20.7814 N   0  0  0  0  0  0  0  0  0  0  0  0
   27.1999   15.4891   20.9297 C   0  0  2  0  0  0  0  0  0  0  0  0
   27.7618   15.9808   19.5956 C   0  0  0  0  0  0  0  0  0  0  0  0
   28.2993   17.0870   19.4808 O   0  0  0  0  0  0  0  0  0  0  0  0
   28.1596   14.5051   21.6038 C   0  0  0  0  0  0  0  0  0  0  0  0
   29.4677   15.1286   22.0722 C   0  0  0  0  0  0  0  0  0  0  0  0
   30.3990   15.4059   20.8924 C   0  0  0  0  0  0  0  0  0  0  0  0
   31.7322   15.9885   21.3481 C   0  0  0  0  0  0  0  0  0  0  0  0
   31.5784   17.2833   22.0740 N   0  0  0  0  0  0  0  0  0  0  0  0
   27.7125   15.2667   18.5963 O   0  0  0  0  0  0  0  0  0  0  0  0
  2  1  1  6  0  0  0
  2  3  1  0  0  0  0
  2  5  1  0  0  0  0
  3  4  1  0  0  0  0
  3 10  1  0  0  0  0
  5  6  1  0  0  0  0
  6  7  1  0  0  0  0
  7  8  1  0  0  0  0
  8  9  1  0  0  0  0
M  END
>  <CHROM.1>
134.17536737,-167.19737866,-74.83354908,-178.13558333,-60.27695898,28.81945964
15.71316015,20.70467737,2.94513863,-0.36925617,-1.03836601

>  <Name>
ligand

>  <RI>
0

>  <Rbt.Current_Directory>
/home/itssahil/PROJECTS/Mol_Feturizer/New_Systems/rnas/3DJ2

>  <Rbt.Executable>
rbdock ($Id: //depot/dev/client3/rdock/2013.1/src/exe/rbdock.cxx#4 $)

>  <Rbt.Library>
libRbt.so (2013.1, Build901 2013/11/27)

>  <Rbt.Parameter_File>
/export/apps/rDock/src/rDock_2013.1_src/data/scripts/dock_solv.prm

>  <Rbt.Receptor>
prm/pocket_docking_8.prm

>  <SCORE>
-9.39248

>  <SCORE.INTER>
-8.67731

>  <SCORE.INTER.CONST>
1

>  <SCORE.INTER.POLAR>
0

>  <SCORE.INTER.ROT>
5

>  <SCORE.INTER.SOLV>
17.4193

>  <SCORE.INTER.VDW>
-18.5246

>  <SCORE.INTER.norm>
-0.867731

>  <SCORE.INTRA>
-0.715173

>  <SCORE.INTRA.DIHEDRAL>
-1.30831

>  <SCORE.INTRA.DIHEDRAL.0>
4.28128

>  <SCORE.INTRA.POLAR>
0

>  <SCORE.INTRA.POLAR.0>
0

>  <SCORE.INTRA.REPUL>
0

>  <SCORE.INTRA.REPUL.0>
0

>  <SCORE.INTRA.SOLV>
-0.293699

>  <SCORE.INTRA.SOLV.lig_0>
-32.3374

>  <SCORE.INTRA.VDW>
0.0858295

>  <SCORE.INTRA.VDW.0>
-0.659551

>  <SCORE.INTRA.norm>
-0.0715173

>  <SCORE.RESTR>
0

>  <SCORE.RESTR.CAVITY>
0

>  <SCORE.RESTR.norm>
0

>  <SCORE.SYSTEM>
0

>  <SCORE.SYSTEM.CONST>
0

>  <SCORE.SYSTEM.DIHEDRAL>
0

>  <SCORE.SYSTEM.SOLV>
0

>  <SCORE.SYSTEM.norm>
0

>  <SCORE.heavy>
10

>  <SCORE.norm>
-0.939248

>  <RMSD>
5.141

$$$$
ligand
 OpenBabel11021811473D
libRbt.so/2013.1/901 2013/11/27
 10  9  0  0  0  0  0  0  0  0999 V2000
   25.8539   15.0343   20.6904 N   0  0  0  0  0  0  0  0  0  0  0  0
   27.2335   15.5854   20.8011 C   0  0  2  0  0  0  0  0  0  0  0  0
   27.8439   15.8905   19.4331 C   0  0  0  0  0  0  0  0  0  0  0  0
   28.3754   16.9770   19.1823 O   0  0  0  0  0  0  0  0  0  0  0  0
   28.1319   14.6454   21.6092 C   0  0  0  0  0  0  0  0  0  0  0  0
   29.4400   15.2739   22.0710 C   0  0  0  0  0  0  0  0  0  0  0  0
   30.4175   15.4295   20.9063 C   0  0  0  0  0  0  0  0  0  0  0  0
   31.7435   16.0321   21.3566 C   0  0  0  0  0  0  0  0  0  0  0  0
   31.5942   17.4127   21.9034 N   0  0  0  0  0  0  0  0  0  0  0  0
   27.8413   15.0408   18.5448 O   0  0  0  0  0  0  0  0  0  0  0  0
  2  1  1  6  0  0  0
  2  3  1  0  0  0  0
  2  5  1  0  0  0  0
  3  4  1  0  0  0  0
  3 10  1  0  0  0  0
  5  6  1  0  0  0  0
  6  7  1  0  0  0  0
  7  8  1  0  0  0  0
  8  9  1  0  0  0  0
M  END
>  <CHROM.1>
130.39021571,-165.38290685,-73.79626429,-178.86386012,-62.69902630,28.85274287
15.73854567,20.61601500,2.89467668,-0.36567334,-1.16740346

>  <Name>
ligand

>  <RI>
0

>  <Rbt.Current_Directory>
/home/itssahil/PROJECTS/Mol_Feturizer/New_Systems/rnas/3DJ2

>  <Rbt.Executable>
rbdock ($Id: //depot/dev/client3/rdock/2013.1/src/exe/rbdock.cxx#4 $)

>  <Rbt.Library>
libRbt.so (2013.1, Build901 2013/11/27)

>  <Rbt.Parameter_File>
/export/apps/rDock/src/rDock_2013.1_src/data/scripts/dock_solv.prm

>  <Rbt.Receptor>
prm/pocket_docking_4.prm

>  <SCORE>
-9.26853

>  <SCORE.INTER>
-8.50734

>  <SCORE.INTER.CONST>
1

>  <SCORE.INTER.POLAR>
0

>  <SCORE.INTER.ROT>
5

>  <SCORE.INTER.SOLV>
17.1945

>  <SCORE.INTER.VDW>
-18.3364

>  <SCORE.INTER.norm>
-0.850734

>  <SCORE.INTRA>
-0.761196

>  <SCORE.INTRA.DIHEDRAL>
-1.22053

>  <SCORE.INTRA.DIHEDRAL.0>
4.28128

>  <SCORE.INTRA.POLAR>
0

>  <SCORE.INTRA.POLAR.0>
0

>  <SCORE.INTRA.REPUL>
0

>  <SCORE.INTRA.REPUL.0>
0

>  <SCORE.INTRA.SOLV>
-0.322617

>  <SCORE.INTRA.SOLV.lig_0>
-32.3374

>  <SCORE.INTRA.VDW>
0.0103782

>  <SCORE.INTRA.VDW.0>
-0.659551

>  <SCORE.INTRA.norm>
-0.0761196

>  <SCORE.RESTR>
0

>  <SCORE.RESTR.CAVITY>
0

>  <SCORE.RESTR.norm>
0

>  <SCORE.SYSTEM>
0

>  <SCORE.SYSTEM.CONST>
0

>  <SCORE.SYSTEM.DIHEDRAL>
0

>  <SCORE.SYSTEM.SOLV>
0

>  <SCORE.SYSTEM.norm>
0

>  <SCORE.heavy>
10

>  <SCORE.norm>
-0.926853

>  <RMSD>
5.142

$$$$
ligand
 OpenBabel11021811473D
libRbt.so/2013.1/901 2013/11/27
 10  9  0  0  0  0  0  0  0  0999 V2000
   25.8755   14.8618   20.8264 N   0  0  0  0  0  0  0  0  0  0  0  0
   27.2302   15.4725   20.9322 C   0  0  2  0  0  0  0  0  0  0  0  0
   27.7524   15.9548   19.5787 C   0  0  0  0  0  0  0  0  0  0  0  0
   27.7089   15.2430   18.5702 O   0  0  0  0  0  0  0  0  0  0  0  0
   28.2148   14.5021   21.5898 C   0  0  0  0  0  0  0  0  0  0  0  0
   29.5273   15.1412   22.0238 C   0  0  0  0  0  0  0  0  0  0  0  0
   30.4289   15.4182   20.8211 C   0  0  0  0  0  0  0  0  0  0  0  0
   31.7590   16.0340   21.2405 C   0  0  0  0  0  0  0  0  0  0  0  0
   31.5961   17.3540   21.9175 N   0  0  0  0  0  0  0  0  0  0  0  0
   28.2128   17.0878   19.4550 O   0  0  0  0  0  0  0  0  0  0  0  0
  2  1  1  6  0  0  0
  2  3  1  0  0  0  0
  2  5  1  0  0  0  0
  3  4  1  0  0  0  0
  3 10  1  0  0  0  0
  5  6  1  0  0  0  0
  6  7  1  0  0  0  0
  7  8  1  0  0  0  0
  8  9  1  0  0  0  0
M  END
>  <CHROM.1>
-48.02495743,-166.87219192,-74.91022528,-178.91077181,-61.79284483,28.83313060
15.71778569,20.66254820,2.97852513,-0.36730777,-1.02489047

>  <Name>
ligand

>  <RI>
0

>  <Rbt.Current_Directory>
/home/itssahil/PROJECTS/Mol_Feturizer/New_Systems/rnas/3DJ2

>  <Rbt.Executable>
rbdock ($Id: //depot/dev/client3/rdock/2013.1/src/exe/rbdock.cxx#4 $)

>  <Rbt.Library>
libRbt.so (2013.1, Build901 2013/11/27)

>  <Rbt.Parameter_File>
/export/apps/rDock/src/rDock_2013.1_src/data/scripts/dock_solv.prm

>  <Rbt.Receptor>
prm/pocket_docking_7.prm

>  <SCORE>
-9.33374

>  <SCORE.INTER>
-8.56859

>  <SCORE.INTER.CONST>
1

>  <SCORE.INTER.POLAR>
0

>  <SCORE.INTER.ROT>
5

>  <SCORE.INTER.SOLV>
17.5176

>  <SCORE.INTER.VDW>
-18.4849

>  <SCORE.INTER.norm>
-0.856859

>  <SCORE.INTRA>
-0.765152

>  <SCORE.INTRA.DIHEDRAL>
-1.21199

>  <SCORE.INTRA.DIHEDRAL.0>
4.28128

>  <SCORE.INTRA.POLAR>
0

>  <SCORE.INTRA.POLAR.0>
0

>  <SCORE.INTRA.REPUL>
0

>  <SCORE.INTRA.REPUL.0>
0

>  <SCORE.INTRA.SOLV>
-0.308979

>  <SCORE.INTRA.SOLV.lig_0>
-32.3374

>  <SCORE.INTRA.VDW>
-0.00466965

>  <SCORE.INTRA.VDW.0>
-0.659551

>  <SCORE.INTRA.norm>
-0.0765152

>  <SCORE.RESTR>
0

>  <SCORE.RESTR.CAVITY>
0

>  <SCORE.RESTR.norm>
0

>  <SCORE.SYSTEM>
0

>  <SCORE.SYSTEM.CONST>
0

>  <SCORE.SYSTEM.DIHEDRAL>
0

>  <SCORE.SYSTEM.SOLV>
0

>  <SCORE.SYSTEM.norm>
0

>  <SCORE.heavy>
10

>  <SCORE.norm>
-0.933374

>  <RMSD>
5.146

$$$$
ligand
 OpenBabel11021811473D
libRbt.so/2013.1/901 2013/11/27
 10  9  0  0  0  0  0  0  0  0999 V2000
   29.1554   16.4276   20.5823 N   0  0  0  0  0  0  0  0  0  0  0  0
   27.9521   15.7811   19.9880 C   0  0  2  0  0  0  0  0  0  0  0  0
   26.9819   15.2764   21.0564 C   0  0  0  0  0  0  0  0  0  0  0  0
   25.7941   15.0485   20.8053 O   0  0  0  0  0  0  0  0  0  0  0  0
   28.3552   14.6551   19.0323 C   0  0  0  0  0  0  0  0  0  0  0  0
   27.1861   14.0014   18.3076 C   0  0  0  0  0  0  0  0  0  0  0  0
   27.5963   12.6612   17.6979 C   0  0  0  0  0  0  0  0  0  0  0  0
   26.3912   11.8781   17.1890 C   0  0  0  0  0  0  0  0  0  0  0  0
   26.6873   10.4292   16.9878 N   0  0  0  0  0  0  0  0  0  0  0  0
   27.3722   15.0597   22.2017 O   0  0  0  0  0  0  0  0  0  0  0  0
  2  1  1  1  0  0  0
  2  3  1  0  0  0  0
  2  5  1  0  0  0  0
  3  4  1  0  0  0  0
  3 10  1  0  0  0  0
  5  6  1  0  0  0  0
  6  7  1  0  0  0  0
  7  8  1  0  0  0  0
  8  9  1  0  0  0  0
M  END
>  <CHROM.1>
159.97104309,-176.07887843,-163.76639545,169.74236139,-162.06700321,27.32657265
14.11975148,19.41604297,-1.38733074,-0.59750997,-2.28048636

>  <Name>
ligand

>  <RI>
0

>  <Rbt.Current_Directory>
/home/itssahil/PROJECTS/Mol_Feturizer/New_Systems/rnas/3DJ2

>  <Rbt.Executable>
rbdock ($Id: //depot/dev/client3/rdock/2013.1/src/exe/rbdock.cxx#4 $)

>  <Rbt.Library>
libRbt.so (2013.1, Build901 2013/11/27)

>  <Rbt.Parameter_File>
/export/apps/rDock/src/rDock_2013.1_src/data/scripts/dock_solv.prm

>  <Rbt.Receptor>
prm/blind_docking_100.prm

>  <SCORE>
-11.3064

>  <SCORE.INTER>
-10.531

>  <SCORE.INTER.CONST>
1

>  <SCORE.INTER.POLAR>
0

>  <SCORE.INTER.ROT>
5

>  <SCORE.INTER.SOLV>
15.4634

>  <SCORE.INTER.VDW>
-19.1085

>  <SCORE.INTER.norm>
-1.0531

>  <SCORE.INTRA>
-0.775333

>  <SCORE.INTRA.DIHEDRAL>
-0.150284

>  <SCORE.INTRA.DIHEDRAL.0>
4.28128

>  <SCORE.INTRA.POLAR>
0

>  <SCORE.INTRA.POLAR.0>
0

>  <SCORE.INTRA.REPUL>
0

>  <SCORE.INTRA.REPUL.0>
0

>  <SCORE.INTRA.SOLV>
-1.30714

>  <SCORE.INTRA.SOLV.lig_0>
-32.3374

>  <SCORE.INTRA.VDW>
-0.0466202

>  <SCORE.INTRA.VDW.0>
-0.659551

>  <SCORE.INTRA.norm>
-0.0775333

>  <SCORE.RESTR>
0

>  <SCORE.RESTR.CAVITY>
0

>  <SCORE.RESTR.norm>
0

>  <SCORE.SYSTEM>
0

>  <SCORE.SYSTEM.CONST>
0

>  <SCORE.SYSTEM.DIHEDRAL>
0

>  <SCORE.SYSTEM.SOLV>
0

>  <SCORE.SYSTEM.norm>
0

>  <SCORE.heavy>
10

>  <SCORE.norm>
-1.13064

>  <RMSD>
5.147

$$$$
ligand
 OpenBabel11021811473D
libRbt.so/2013.1/901 2013/11/27
 10  9  0  0  0  0  0  0  0  0999 V2000
   25.9766   15.0219   20.8180 N   0  0  0  0  0  0  0  0  0  0  0  0
   27.3818   15.5098   20.7352 C   0  0  2  0  0  0  0  0  0  0  0  0
   27.8105   15.7910   19.2950 C   0  0  0  0  0  0  0  0  0  0  0  0
   28.4288   16.8145   18.9853 O   0  0  0  0  0  0  0  0  0  0  0  0
   28.3398   14.5277   21.4146 C   0  0  0  0  0  0  0  0  0  0  0  0
   29.8028   14.9486   21.3693 C   0  0  0  0  0  0  0  0  0  0  0  0
   30.0390   16.2093   22.2005 C   0  0  0  0  0  0  0  0  0  0  0  0
   31.5010   16.6408   22.1717 C   0  0  0  0  0  0  0  0  0  0  0  0
   31.9709   16.9967   20.8006 N   0  0  0  0  0  0  0  0  0  0  0  0
   27.5671   14.9821   18.4020 O   0  0  0  0  0  0  0  0  0  0  0  0
  2  1  1  6  0  0  0
  2  3  1  0  0  0  0
  2  5  1  0  0  0  0
  3  4  1  0  0  0  0
  3 10  1  0  0  0  0
  5  6  1  0  0  0  0
  6  7  1  0  0  0  0
  7  8  1  0  0  0  0
  8  9  1  0  0  0  0
M  END
>  <CHROM.1>
135.22924731,179.72091126,66.50969397,179.71655203,62.30619125,28.88310517
15.74949454,20.58341497,2.83502234,-0.41061073,-1.22963190

>  <Name>
ligand

>  <RI>
0

>  <Rbt.Current_Directory>
/home/itssahil/PROJECTS/Mol_Feturizer/New_Systems/rnas/3DJ2

>  <Rbt.Executable>
rbdock ($Id: //depot/dev/client3/rdock/2013.1/src/exe/rbdock.cxx#4 $)

>  <Rbt.Library>
libRbt.so (2013.1, Build901 2013/11/27)

>  <Rbt.Parameter_File>
/export/apps/rDock/src/rDock_2013.1_src/data/scripts/dock_solv.prm

>  <Rbt.Receptor>
prm/blind_docking_100.prm

>  <SCORE>
-9.37622

>  <SCORE.INTER>
-7.99376

>  <SCORE.INTER.CONST>
1

>  <SCORE.INTER.POLAR>
0

>  <SCORE.INTER.ROT>
5

>  <SCORE.INTER.SOLV>
17.518

>  <SCORE.INTER.VDW>
-18.1018

>  <SCORE.INTER.norm>
-0.799376

>  <SCORE.INTRA>
-1.38245

>  <SCORE.INTRA.DIHEDRAL>
-2.59189

>  <SCORE.INTRA.DIHEDRAL.0>
4.28128

>  <SCORE.INTRA.POLAR>
0

>  <SCORE.INTRA.POLAR.0>
0

>  <SCORE.INTRA.REPUL>
0

>  <SCORE.INTRA.REPUL.0>
0

>  <SCORE.INTRA.SOLV>
-0.205474

>  <SCORE.INTRA.SOLV.lig_0>
-32.3374

>  <SCORE.INTRA.VDW>
0.0162274

>  <SCORE.INTRA.VDW.0>
-0.659551

>  <SCORE.INTRA.norm>
-0.138245

>  <SCORE.RESTR>
0

>  <SCORE.RESTR.CAVITY>
0

>  <SCORE.RESTR.norm>
0

>  <SCORE.SYSTEM>
0

>  <SCORE.SYSTEM.CONST>
0

>  <SCORE.SYSTEM.DIHEDRAL>
0

>  <SCORE.SYSTEM.SOLV>
0

>  <SCORE.SYSTEM.norm>
0

>  <SCORE.heavy>
10

>  <SCORE.norm>
-0.937622

>  <RMSD>
5.150

$$$$
ligand
 OpenBabel11021811473D
libRbt.so/2013.1/901 2013/11/27
 10  9  0  0  0  0  0  0  0  0999 V2000
   25.8639   14.9173   20.8561 N   0  0  0  0  0  0  0  0  0  0  0  0
   27.2238   15.5183   20.9501 C   0  0  2  0  0  0  0  0  0  0  0  0
   27.7418   15.9875   19.5904 C   0  0  0  0  0  0  0  0  0  0  0  0
   27.6480   15.2862   18.5779 O   0  0  0  0  0  0  0  0  0  0  0  0
   28.2048   14.5448   21.6087 C   0  0  0  0  0  0  0  0  0  0  0  0
   29.5173   15.1806   22.0473 C   0  0  0  0  0  0  0  0  0  0  0  0
   30.4214   15.4611   20.8472 C   0  0  0  0  0  0  0  0  0  0  0  0
   31.7675   16.0353   21.2744 C   0  0  0  0  0  0  0  0  0  0  0  0
   31.6371   17.3294   22.0062 N   0  0  0  0  0  0  0  0  0  0  0  0
   28.2500   17.0998   19.4660 O   0  0  0  0  0  0  0  0  0  0  0  0
  2  1  1  6  0  0  0
  2  3  1  0  0  0  0
  2  5  1  0  0  0  0
  3  4  1  0  0  0  0
  3 10  1  0  0  0  0
  5  6  1  0  0  0  0
  6  7  1  0  0  0  0
  7  8  1  0  0  0  0
  8  9  1  0  0  0  0
M  END
>  <CHROM.1>
-45.63714558,-166.11053256,-74.77660707,-177.22318794,-60.52815593,28.82997994
15.74666458,20.68925081,2.95592625,-0.35989542,-1.04842379

>  <Name>
ligand

>  <RI>
0

>  <Rbt.Current_Directory>
/home/itssahil/PROJECTS/Mol_Feturizer/New_Systems/rnas/3DJ2

>  <Rbt.Executable>
rbdock ($Id: //depot/dev/client3/rdock/2013.1/src/exe/rbdock.cxx#4 $)

>  <Rbt.Library>
libRbt.so (2013.1, Build901 2013/11/27)

>  <Rbt.Parameter_File>
/export/apps/rDock/src/rDock_2013.1_src/data/scripts/dock_solv.prm

>  <Rbt.Receptor>
prm/pocket_docking_5.prm

>  <SCORE>
-9.35724

>  <SCORE.INTER>
-8.66628

>  <SCORE.INTER.CONST>
1

>  <SCORE.INTER.POLAR>
0

>  <SCORE.INTER.ROT>
5

>  <SCORE.INTER.SOLV>
17.4923

>  <SCORE.INTER.VDW>
-18.5416

>  <SCORE.INTER.norm>
-0.866628

>  <SCORE.INTRA>
-0.690963

>  <SCORE.INTRA.DIHEDRAL>
-1.13334

>  <SCORE.INTRA.DIHEDRAL.0>
4.28128

>  <SCORE.INTRA.POLAR>
0

>  <SCORE.INTRA.POLAR.0>
0

>  <SCORE.INTRA.REPUL>
0

>  <SCORE.INTRA.REPUL.0>
0

>  <SCORE.INTRA.SOLV>
-0.299491

>  <SCORE.INTRA.SOLV.lig_0>
-32.3374

>  <SCORE.INTRA.VDW>
0.0254524

>  <SCORE.INTRA.VDW.0>
-0.659551

>  <SCORE.INTRA.norm>
-0.0690963

>  <SCORE.RESTR>
0

>  <SCORE.RESTR.CAVITY>
0

>  <SCORE.RESTR.norm>
0

>  <SCORE.SYSTEM>
0

>  <SCORE.SYSTEM.CONST>
0

>  <SCORE.SYSTEM.DIHEDRAL>
0

>  <SCORE.SYSTEM.SOLV>
0

>  <SCORE.SYSTEM.norm>
0

>  <SCORE.heavy>
10

>  <SCORE.norm>
-0.935724

>  <RMSD>
5.156

$$$$
ligand
 OpenBabel11021811473D
libRbt.so/2013.1/901 2013/11/27
 10  9  0  0  0  0  0  0  0  0999 V2000
   25.7798   14.9887   20.5855 N   0  0  0  0  0  0  0  0  0  0  0  0
   27.1424   15.5496   20.8048 C   0  0  2  0  0  0  0  0  0  0  0  0
   27.8300   15.9236   19.4916 C   0  0  0  0  0  0  0  0  0  0  0  0
   27.9126   15.1305   18.5482 O   0  0  0  0  0  0  0  0  0  0  0  0
   28.0033   14.5837   21.6231 C   0  0  0  0  0  0  0  0  0  0  0  0
   29.2004   15.2352   22.3027 C   0  0  0  0  0  0  0  0  0  0  0  0
   30.2952   15.5676   21.2893 C   0  0  0  0  0  0  0  0  0  0  0  0
   31.4824   16.2632   21.9460 C   0  0  0  0  0  0  0  0  0  0  0  0
   32.5406   16.6474   20.9662 N   0  0  0  0  0  0  0  0  0  0  0  0
   28.3029   17.0470   19.3325 O   0  0  0  0  0  0  0  0  0  0  0  0
  2  1  1  6  0  0  0
  2  3  1  0  0  0  0
  2  5  1  0  0  0  0
  3  4  1  0  0  0  0
  3 10  1  0  0  0  0
  5  6  1  0  0  0  0
  6  7  1  0  0  0  0
  7  8  1  0  0  0  0
  8  9  1  0  0  0  0
M  END
>  <CHROM.1>
-51.20835198,-159.78311686,-73.83714404,178.09578472,-177.67080822,28.85489919
15.70241470,20.65635471,2.93327820,-0.29010011,-1.17872504

>  <Name>
ligand

>  <RI>
0

>  <Rbt.Current_Directory>
/home/itssahil/PROJECTS/Mol_Feturizer/New_Systems/rnas/3DJ2

>  <Rbt.Executable>
rbdock ($Id: //depot/dev/client3/rdock/2013.1/src/exe/rbdock.cxx#4 $)

>  <Rbt.Library>
libRbt.so (2013.1, Build901 2013/11/27)

>  <Rbt.Parameter_File>
/export/apps/rDock/src/rDock_2013.1_src/data/scripts/dock_solv.prm

>  <Rbt.Receptor>
prm/blind_docking_60.prm

>  <SCORE>
-9.35156

>  <SCORE.INTER>
-8.22147

>  <SCORE.INTER.CONST>
1

>  <SCORE.INTER.POLAR>
0

>  <SCORE.INTER.ROT>
5

>  <SCORE.INTER.SOLV>
18.3686

>  <SCORE.INTER.VDW>
-18.5372

>  <SCORE.INTER.norm>
-0.822147

>  <SCORE.INTRA>
-1.13009

>  <SCORE.INTRA.DIHEDRAL>
-0.522481

>  <SCORE.INTRA.DIHEDRAL.0>
4.28128

>  <SCORE.INTRA.POLAR>
0

>  <SCORE.INTRA.POLAR.0>
0

>  <SCORE.INTRA.REPUL>
0

>  <SCORE.INTRA.REPUL.0>
0

>  <SCORE.INTRA.SOLV>
-1.22355

>  <SCORE.INTRA.SOLV.lig_0>
-32.3374

>  <SCORE.INTRA.VDW>
-0.257073

>  <SCORE.INTRA.VDW.0>
-0.659551

>  <SCORE.INTRA.norm>
-0.113009

>  <SCORE.RESTR>
0

>  <SCORE.RESTR.CAVITY>
0

>  <SCORE.RESTR.norm>
0

>  <SCORE.SYSTEM>
0

>  <SCORE.SYSTEM.CONST>
0

>  <SCORE.SYSTEM.DIHEDRAL>
0

>  <SCORE.SYSTEM.SOLV>
0

>  <SCORE.SYSTEM.norm>
0

>  <SCORE.heavy>
10

>  <SCORE.norm>
-0.935156

>  <RMSD>
5.160

$$$$
ligand
 OpenBabel11021811473D
libRbt.so/2013.1/901 2013/11/27
 10  9  0  0  0  0  0  0  0  0999 V2000
   25.7616   14.9892   20.5911 N   0  0  0  0  0  0  0  0  0  0  0  0
   27.1240   15.5497   20.8118 C   0  0  2  0  0  0  0  0  0  0  0  0
   27.7953   15.9658   19.5028 C   0  0  0  0  0  0  0  0  0  0  0  0
   27.8181   15.2237   18.5155 O   0  0  0  0  0  0  0  0  0  0  0  0
   27.9983   14.5641   21.5916 C   0  0  0  0  0  0  0  0  0  0  0  0
   29.2036   15.1998   22.2716 C   0  0  0  0  0  0  0  0  0  0  0  0
   30.2935   15.5395   21.2553 C   0  0  0  0  0  0  0  0  0  0  0  0
   31.4851   16.2277   21.9116 C   0  0  0  0  0  0  0  0  0  0  0  0
   32.5361   16.6240   20.9289 N   0  0  0  0  0  0  0  0  0  0  0  0
   28.3150   17.0743   19.3926 O   0  0  0  0  0  0  0  0  0  0  0  0
  2  1  1  6  0  0  0
  2  3  1  0  0  0  0
  2  5  1  0  0  0  0
  3  4  1  0  0  0  0
  3 10  1  0  0  0  0
  5  6  1  0  0  0  0
  6  7  1  0  0  0  0
  7  8  1  0  0  0  0
  8  9  1  0  0  0  0
M  END
>  <CHROM.1>
-47.89440141,-160.05198408,-74.83584219,177.72394530,-177.43466275,28.83857684
15.70562022,20.64489163,2.94447018,-0.28295134,-1.14955534

>  <Name>
ligand

>  <RI>
0

>  <Rbt.Current_Directory>
/home/itssahil/PROJECTS/Mol_Feturizer/New_Systems/rnas/3DJ2

>  <Rbt.Executable>
rbdock ($Id: //depot/dev/client3/rdock/2013.1/src/exe/rbdock.cxx#4 $)

>  <Rbt.Library>
libRbt.so (2013.1, Build901 2013/11/27)

>  <Rbt.Parameter_File>
/export/apps/rDock/src/rDock_2013.1_src/data/scripts/dock_solv.prm

>  <Rbt.Receptor>
prm/pocket_docking_6.prm

>  <SCORE>
-9.36957

>  <SCORE.INTER>
-8.26848

>  <SCORE.INTER.CONST>
1

>  <SCORE.INTER.POLAR>
0

>  <SCORE.INTER.ROT>
5

>  <SCORE.INTER.SOLV>
18.5391

>  <SCORE.INTER.VDW>
-18.6254

>  <SCORE.INTER.norm>
-0.826848

>  <SCORE.INTRA>
-1.10108

>  <SCORE.INTRA.DIHEDRAL>
-0.42952

>  <SCORE.INTRA.DIHEDRAL.0>
4.28128

>  <SCORE.INTRA.POLAR>
0

>  <SCORE.INTRA.POLAR.0>
0

>  <SCORE.INTRA.REPUL>
0

>  <SCORE.INTRA.REPUL.0>
0

>  <SCORE.INTRA.SOLV>
-1.22799

>  <SCORE.INTRA.SOLV.lig_0>
-32.3374

>  <SCORE.INTRA.VDW>
-0.27233

>  <SCORE.INTRA.VDW.0>
-0.659551

>  <SCORE.INTRA.norm>
-0.110108

>  <SCORE.RESTR>
0

>  <SCORE.RESTR.CAVITY>
0

>  <SCORE.RESTR.norm>
0

>  <SCORE.SYSTEM>
0

>  <SCORE.SYSTEM.CONST>
0

>  <SCORE.SYSTEM.DIHEDRAL>
0

>  <SCORE.SYSTEM.SOLV>
0

>  <SCORE.SYSTEM.norm>
0

>  <SCORE.heavy>
10

>  <SCORE.norm>
-0.936957

>  <RMSD>
5.166

$$$$
ligand
 OpenBabel11021811473D
libRbt.so/2013.1/901 2013/11/27
 10  9  0  0  0  0  0  0  0  0999 V2000
   25.7739   14.9660   20.5629 N   0  0  0  0  0  0  0  0  0  0  0  0
   27.1237   15.5550   20.7874 C   0  0  2  0  0  0  0  0  0  0  0  0
   27.8108   15.9379   19.4765 C   0  0  0  0  0  0  0  0  0  0  0  0
   27.8375   15.1748   18.5055 O   0  0  0  0  0  0  0  0  0  0  0  0
   27.9994   14.6097   21.6141 C   0  0  0  0  0  0  0  0  0  0  0  0
   29.1917   15.2836   22.2801 C   0  0  0  0  0  0  0  0  0  0  0  0
   30.2951   15.5793   21.2646 C   0  0  0  0  0  0  0  0  0  0  0  0
   31.4733   16.3055   21.9040 C   0  0  0  0  0  0  0  0  0  0  0  0
   32.5481   16.6372   20.9232 N   0  0  0  0  0  0  0  0  0  0  0  0
   28.3402   17.0398   19.3479 O   0  0  0  0  0  0  0  0  0  0  0  0
  2  1  1  6  0  0  0
  2  3  1  0  0  0  0
  2  5  1  0  0  0  0
  3  4  1  0  0  0  0
  3 10  1  0  0  0  0
  5  6  1  0  0  0  0
  6  7  1  0  0  0  0
  7  8  1  0  0  0  0
  8  9  1  0  0  0  0
M  END
>  <CHROM.1>
-46.34551077,-160.67934173,-75.48085952,177.67750208,-178.47837583,28.84523890
15.71781792,20.63407960,2.93652118,-0.29032017,-1.18811976

>  <Name>
ligand

>  <RI>
0

>  <Rbt.Current_Directory>
/home/itssahil/PROJECTS/Mol_Feturizer/New_Systems/rnas/3DJ2

>  <Rbt.Executable>
rbdock ($Id: //depot/dev/client3/rdock/2013.1/src/exe/rbdock.cxx#4 $)

>  <Rbt.Library>
libRbt.so (2013.1, Build901 2013/11/27)

>  <Rbt.Parameter_File>
/export/apps/rDock/src/rDock_2013.1_src/data/scripts/dock_solv.prm

>  <Rbt.Receptor>
prm/blind_docking_60.prm

>  <SCORE>
-9.36907

>  <SCORE.INTER>
-8.26023

>  <SCORE.INTER.CONST>
1

>  <SCORE.INTER.POLAR>
0

>  <SCORE.INTER.ROT>
5

>  <SCORE.INTER.SOLV>
18.4625

>  <SCORE.INTER.VDW>
-18.5943

>  <SCORE.INTER.norm>
-0.826023

>  <SCORE.INTRA>
-1.10884

>  <SCORE.INTRA.DIHEDRAL>
-0.44727

>  <SCORE.INTRA.DIHEDRAL.0>
4.28128

>  <SCORE.INTRA.POLAR>
0

>  <SCORE.INTRA.POLAR.0>
0

>  <SCORE.INTRA.REPUL>
0

>  <SCORE.INTRA.REPUL.0>
0

>  <SCORE.INTRA.SOLV>
-1.23154

>  <SCORE.INTRA.SOLV.lig_0>
-32.3374

>  <SCORE.INTRA.VDW>
-0.269431

>  <SCORE.INTRA.VDW.0>
-0.659551

>  <SCORE.INTRA.norm>
-0.110884

>  <SCORE.RESTR>
0

>  <SCORE.RESTR.CAVITY>
0

>  <SCORE.RESTR.norm>
0

>  <SCORE.SYSTEM>
0

>  <SCORE.SYSTEM.CONST>
0

>  <SCORE.SYSTEM.DIHEDRAL>
0

>  <SCORE.SYSTEM.SOLV>
0

>  <SCORE.SYSTEM.norm>
0

>  <SCORE.heavy>
10

>  <SCORE.norm>
-0.936907

>  <RMSD>
5.167

$$$$
ligand
 OpenBabel11021811473D
libRbt.so/2013.1/901 2013/11/27
 10  9  0  0  0  0  0  0  0  0999 V2000
   25.7548   14.9723   20.6072 N   0  0  0  0  0  0  0  0  0  0  0  0
   27.1062   15.5529   20.8437 C   0  0  2  0  0  0  0  0  0  0  0  0
   27.7838   15.9845   19.5430 C   0  0  0  0  0  0  0  0  0  0  0  0
   27.8190   15.2509   18.5498 O   0  0  0  0  0  0  0  0  0  0  0  0
   27.9878   14.5777   21.6283 C   0  0  0  0  0  0  0  0  0  0  0  0
   29.1802   15.2282   22.3171 C   0  0  0  0  0  0  0  0  0  0  0  0
   30.2617   15.6063   21.3054 C   0  0  0  0  0  0  0  0  0  0  0  0
   31.4462   16.2953   21.9737 C   0  0  0  0  0  0  0  0  0  0  0  0
   32.5278   16.6495   21.0083 N   0  0  0  0  0  0  0  0  0  0  0  0
   28.2964   17.0975   19.4457 O   0  0  0  0  0  0  0  0  0  0  0  0
  2  1  1  6  0  0  0
  2  3  1  0  0  0  0
  2  5  1  0  0  0  0
  3  4  1  0  0  0  0
  3 10  1  0  0  0  0
  5  6  1  0  0  0  0
  6  7  1  0  0  0  0
  7  8  1  0  0  0  0
  8  9  1  0  0  0  0
M  END
>  <CHROM.1>
-47.33239533,-160.33216517,-73.80032083,178.36357608,178.84512584,28.82206629
15.73158548,20.68995819,2.94150622,-0.29439534,-1.15090140

>  <Name>
ligand

>  <RI>
0

>  <Rbt.Current_Directory>
/home/itssahil/PROJECTS/Mol_Feturizer/New_Systems/rnas/3DJ2

>  <Rbt.Executable>
rbdock ($Id: //depot/dev/client3/rdock/2013.1/src/exe/rbdock.cxx#4 $)

>  <Rbt.Library>
libRbt.so (2013.1, Build901 2013/11/27)

>  <Rbt.Parameter_File>
/export/apps/rDock/src/rDock_2013.1_src/data/scripts/dock_solv.prm

>  <Rbt.Receptor>
prm/pocket_docking_8.prm

>  <SCORE>
-9.34567

>  <SCORE.INTER>
-8.22093

>  <SCORE.INTER.CONST>
1

>  <SCORE.INTER.POLAR>
0

>  <SCORE.INTER.ROT>
5

>  <SCORE.INTER.SOLV>
18.4137

>  <SCORE.INTER.VDW>
-18.5519

>  <SCORE.INTER.norm>
-0.822093

>  <SCORE.INTRA>
-1.12474

>  <SCORE.INTRA.DIHEDRAL>
-0.607348

>  <SCORE.INTRA.DIHEDRAL.0>
4.28128

>  <SCORE.INTRA.POLAR>
0

>  <SCORE.INTRA.POLAR.0>
0

>  <SCORE.INTRA.REPUL>
0

>  <SCORE.INTRA.REPUL.0>
0

>  <SCORE.INTRA.SOLV>
-1.22188

>  <SCORE.INTRA.SOLV.lig_0>
-32.3374

>  <SCORE.INTRA.VDW>
-0.210128

>  <SCORE.INTRA.VDW.0>
-0.659551

>  <SCORE.INTRA.norm>
-0.112474

>  <SCORE.RESTR>
0

>  <SCORE.RESTR.CAVITY>
0

>  <SCORE.RESTR.norm>
0

>  <SCORE.SYSTEM>
0

>  <SCORE.SYSTEM.CONST>
0

>  <SCORE.SYSTEM.DIHEDRAL>
0

>  <SCORE.SYSTEM.SOLV>
0

>  <SCORE.SYSTEM.norm>
0

>  <SCORE.heavy>
10

>  <SCORE.norm>
-0.934567

>  <RMSD>
5.167

$$$$
ligand
 OpenBabel11021811473D
libRbt.so/2013.1/901 2013/11/27
 10  9  0  0  0  0  0  0  0  0999 V2000
   27.1691   15.9002   19.5498 N   0  0  0  0  0  0  0  0  0  0  0  0
   28.3404   15.5339   20.3943 C   0  0  2  0  0  0  0  0  0  0  0  0
   27.9247   14.8010   21.6699 C   0  0  0  0  0  0  0  0  0  0  0  0
   26.7761   14.8712   22.1190 O   0  0  0  0  0  0  0  0  0  0  0  0
   29.1857   16.7687   20.7176 C   0  0  0  0  0  0  0  0  0  0  0  0
   30.5413   16.4541   21.3364 C   0  0  0  0  0  0  0  0  0  0  0  0
   31.2416   17.7291   21.8054 C   0  0  0  0  0  0  0  0  0  0  0  0
   32.7005   17.4735   22.1671 C   0  0  0  0  0  0  0  0  0  0  0  0
   33.5270   17.0801   20.9884 N   0  0  0  0  0  0  0  0  0  0  0  0
   28.7291   14.0952   22.2747 O   0  0  0  0  0  0  0  0  0  0  0  0
  2  1  1  1  0  0  0
  2  3  1  0  0  0  0
  2  5  1  0  0  0  0
  3  4  1  0  0  0  0
  3 10  1  0  0  0  0
  5  6  1  0  0  0  0
  6  7  1  0  0  0  0
  7  8  1  0  0  0  0
  8  9  1  0  0  0  0
M  END
>  <CHROM.1>
-20.03411764,-168.44767462,-172.19415049,-168.55781246,65.71382367,29.59453154
16.04816302,21.32879915,2.92297339,0.37096563,2.25190003

>  <Name>
ligand

>  <RI>
0

>  <Rbt.Current_Directory>
/home/itssahil/PROJECTS/Mol_Feturizer/New_Systems/rnas/3DJ2

>  <Rbt.Executable>
rbdock ($Id: //depot/dev/client3/rdock/2013.1/src/exe/rbdock.cxx#4 $)

>  <Rbt.Library>
libRbt.so (2013.1, Build901 2013/11/27)

>  <Rbt.Parameter_File>
/export/apps/rDock/src/rDock_2013.1_src/data/scripts/dock_solv.prm

>  <Rbt.Receptor>
prm/pocket_docking_5.prm

>  <SCORE>
-8.6488

>  <SCORE.INTER>
-7.7018

>  <SCORE.INTER.CONST>
1

>  <SCORE.INTER.POLAR>
0

>  <SCORE.INTER.ROT>
5

>  <SCORE.INTER.SOLV>
16.0405

>  <SCORE.INTER.VDW>
-17.4147

>  <SCORE.INTER.norm>
-0.77018

>  <SCORE.INTRA>
-0.947003

>  <SCORE.INTRA.DIHEDRAL>
-1.32772

>  <SCORE.INTRA.DIHEDRAL.0>
4.28128

>  <SCORE.INTRA.POLAR>
0

>  <SCORE.INTRA.POLAR.0>
0

>  <SCORE.INTRA.REPUL>
0

>  <SCORE.INTRA.REPUL.0>
0

>  <SCORE.INTRA.SOLV>
-0.385158

>  <SCORE.INTRA.SOLV.lig_0>
-32.3374

>  <SCORE.INTRA.VDW>
-0.090565

>  <SCORE.INTRA.VDW.0>
-0.659551

>  <SCORE.INTRA.norm>
-0.0947003

>  <SCORE.RESTR>
0

>  <SCORE.RESTR.CAVITY>
0

>  <SCORE.RESTR.norm>
0

>  <SCORE.SYSTEM>
0

>  <SCORE.SYSTEM.CONST>
0

>  <SCORE.SYSTEM.DIHEDRAL>
0

>  <SCORE.SYSTEM.SOLV>
0

>  <SCORE.SYSTEM.norm>
0

>  <SCORE.heavy>
10

>  <SCORE.norm>
-0.86488

>  <RMSD>
5.171

$$$$
ligand
 OpenBabel11021811473D
libRbt.so/2013.1/901 2013/11/27
 10  9  0  0  0  0  0  0  0  0999 V2000
   29.0949   14.6083   19.4278 N   0  0  0  0  0  0  0  0  0  0  0  0
   28.0509   14.3876   20.4673 C   0  0  2  0  0  0  0  0  0  0  0  0
   26.9153   15.4064   20.3692 C   0  0  0  0  0  0  0  0  0  0  0  0
   27.0883   16.5341   19.8957 O   0  0  0  0  0  0  0  0  0  0  0  0
   28.6695   14.3835   21.8677 C   0  0  0  0  0  0  0  0  0  0  0  0
   29.3329   15.6964   22.2622 C   0  0  0  0  0  0  0  0  0  0  0  0
   30.6826   15.8628   21.5644 C   0  0  0  0  0  0  0  0  0  0  0  0
   31.3644   17.1694   21.9545 C   0  0  0  0  0  0  0  0  0  0  0  0
   32.7076   17.3303   21.3242 N   0  0  0  0  0  0  0  0  0  0  0  0
   25.7812   15.1149   20.7429 O   0  0  0  0  0  0  0  0  0  0  0  0
  2  1  1  6  0  0  0
  2  3  1  0  0  0  0
  2  5  1  0  0  0  0
  3  4  1  0  0  0  0
  3 10  1  0  0  0  0
  5  6  1  0  0  0  0
  6  7  1  0  0  0  0
  7  8  1  0  0  0  0
  8  9  1  0  0  0  0
M  END
>  <CHROM.1>
-26.99823784,62.14090463,-75.77027323,-179.68341111,177.86831419,28.93325364
15.66663472,20.98163981,-2.96851425,-0.35278452,-0.45792443

>  <Name>
ligand

>  <RI>
0

>  <Rbt.Current_Directory>
/home/itssahil/PROJECTS/Mol_Feturizer/New_Systems/rnas/3DJ2

>  <Rbt.Executable>
rbdock ($Id: //depot/dev/client3/rdock/2013.1/src/exe/rbdock.cxx#4 $)

>  <Rbt.Library>
libRbt.so (2013.1, Build901 2013/11/27)

>  <Rbt.Parameter_File>
/export/apps/rDock/src/rDock_2013.1_src/data/scripts/dock_solv.prm

>  <Rbt.Receptor>
prm/pocket_docking_3.prm

>  <SCORE>
-9.68996

>  <SCORE.INTER>
-9.36172

>  <SCORE.INTER.CONST>
1

>  <SCORE.INTER.POLAR>
0

>  <SCORE.INTER.ROT>
5

>  <SCORE.INTER.SOLV>
13.3917

>  <SCORE.INTER.VDW>
-17.6384

>  <SCORE.INTER.norm>
-0.936172

>  <SCORE.INTRA>
-0.328239

>  <SCORE.INTRA.DIHEDRAL>
-1.69363

>  <SCORE.INTRA.DIHEDRAL.0>
4.28128

>  <SCORE.INTRA.POLAR>
0

>  <SCORE.INTRA.POLAR.0>
0

>  <SCORE.INTRA.REPUL>
0

>  <SCORE.INTRA.REPUL.0>
0

>  <SCORE.INTRA.SOLV>
0.958201

>  <SCORE.INTRA.SOLV.lig_0>
-32.3374

>  <SCORE.INTRA.VDW>
0.0394772

>  <SCORE.INTRA.VDW.0>
-0.659551

>  <SCORE.INTRA.norm>
-0.0328239

>  <SCORE.RESTR>
0

>  <SCORE.RESTR.CAVITY>
0

>  <SCORE.RESTR.norm>
0

>  <SCORE.SYSTEM>
0

>  <SCORE.SYSTEM.CONST>
0

>  <SCORE.SYSTEM.DIHEDRAL>
0

>  <SCORE.SYSTEM.SOLV>
0

>  <SCORE.SYSTEM.norm>
0

>  <SCORE.heavy>
10

>  <SCORE.norm>
-0.968996

>  <RMSD>
5.194

$$$$
ligand
 OpenBabel11021811473D
libRbt.so/2013.1/901 2013/11/27
 10  9  0  0  0  0  0  0  0  0999 V2000
   26.9430   16.3584   19.7106 N   0  0  0  0  0  0  0  0  0  0  0  0
   28.0408   15.3514   19.7173 C   0  0  2  0  0  0  0  0  0  0  0  0
   27.9933   14.4386   18.4918 C   0  0  0  0  0  0  0  0  0  0  0  0
   29.0023   14.1862   17.8255 O   0  0  0  0  0  0  0  0  0  0  0  0
   28.0243   14.5368   21.0134 C   0  0  0  0  0  0  0  0  0  0  0  0
   28.6300   15.2556   22.2116 C   0  0  0  0  0  0  0  0  0  0  0  0
   30.1563   15.1789   22.1859 C   0  0  0  0  0  0  0  0  0  0  0  0
   30.7519   16.1006   21.1276 C   0  0  0  0  0  0  0  0  0  0  0  0
   30.6240   17.5447   21.4817 N   0  0  0  0  0  0  0  0  0  0  0  0
   26.9389   13.9075   18.1496 O   0  0  0  0  0  0  0  0  0  0  0  0
  2  1  1  1  0  0  0
  2  3  1  0  0  0  0
  2  5  1  0  0  0  0
  3  4  1  0  0  0  0
  3 10  1  0  0  0  0
  5  6  1  0  0  0  0
  6  7  1  0  0  0  0
  7  8  1  0  0  0  0
  8  9  1  0  0  0  0
M  END
>  <CHROM.1>
133.21576459,-78.60103444,-80.10008025,73.96356437,70.78437102,28.70479683
15.26237507,20.15742122,2.17830225,-0.28054347,-1.87737707

>  <Name>
ligand

>  <RI>
0

>  <Rbt.Current_Directory>
/home/itssahil/PROJECTS/Mol_Feturizer/New_Systems/rnas/3DJ2

>  <Rbt.Executable>
rbdock ($Id: //depot/dev/client3/rdock/2013.1/src/exe/rbdock.cxx#4 $)

>  <Rbt.Library>
libRbt.so (2013.1, Build901 2013/11/27)

>  <Rbt.Parameter_File>
/export/apps/rDock/src/rDock_2013.1_src/data/scripts/dock_solv.prm

>  <Rbt.Receptor>
prm/pocket_docking_7.prm

>  <SCORE>
-6.38173

>  <SCORE.INTER>
-8.17952

>  <SCORE.INTER.CONST>
1

>  <SCORE.INTER.POLAR>
0

>  <SCORE.INTER.ROT>
5

>  <SCORE.INTER.SOLV>
15.9051

>  <SCORE.INTER.VDW>
-17.688

>  <SCORE.INTER.norm>
-0.817952

>  <SCORE.INTRA>
1.7978

>  <SCORE.INTRA.DIHEDRAL>
1.26155

>  <SCORE.INTRA.DIHEDRAL.0>
4.28128

>  <SCORE.INTRA.POLAR>
0

>  <SCORE.INTRA.POLAR.0>
0

>  <SCORE.INTRA.REPUL>
0

>  <SCORE.INTRA.REPUL.0>
0

>  <SCORE.INTRA.SOLV>
2.02059

>  <SCORE.INTRA.SOLV.lig_0>
-32.3374

>  <SCORE.INTRA.VDW>
0.156728

>  <SCORE.INTRA.VDW.0>
-0.659551

>  <SCORE.INTRA.norm>
0.17978

>  <SCORE.RESTR>
0

>  <SCORE.RESTR.CAVITY>
0

>  <SCORE.RESTR.norm>
0

>  <SCORE.SYSTEM>
0

>  <SCORE.SYSTEM.CONST>
0

>  <SCORE.SYSTEM.DIHEDRAL>
0

>  <SCORE.SYSTEM.SOLV>
0

>  <SCORE.SYSTEM.norm>
0

>  <SCORE.heavy>
10

>  <SCORE.norm>
-0.638173

>  <RMSD>
5.196

$$$$
ligand
 OpenBabel11021811473D
libRbt.so/2013.1/901 2013/11/27
 10  9  0  0  0  0  0  0  0  0999 V2000
   29.0193   16.7526   19.5800 N   0  0  0  0  0  0  0  0  0  0  0  0
   27.8509   15.8619   19.3335 C   0  0  2  0  0  0  0  0  0  0  0  0
   27.1321   15.4823   20.6282 C   0  0  0  0  0  0  0  0  0  0  0  0
   27.7058   15.4955   21.7221 O   0  0  0  0  0  0  0  0  0  0  0  0
   28.2722   14.6158   18.5502 C   0  0  0  0  0  0  0  0  0  0  0  0
   27.1120   13.7372   18.1014 C   0  0  0  0  0  0  0  0  0  0  0  0
   27.6126   12.3990   17.5585 C   0  0  0  0  0  0  0  0  0  0  0  0
   26.4636   11.4387   17.2722 C   0  0  0  0  0  0  0  0  0  0  0  0
   26.9281   10.0450   17.0092 N   0  0  0  0  0  0  0  0  0  0  0  0
   25.9424   15.1734   20.6143 O   0  0  0  0  0  0  0  0  0  0  0  0
  2  1  1  1  0  0  0
  2  3  1  0  0  0  0
  2  5  1  0  0  0  0
  3  4  1  0  0  0  0
  3 10  1  0  0  0  0
  5  6  1  0  0  0  0
  6  7  1  0  0  0  0
  7  8  1  0  0  0  0
  8  9  1  0  0  0  0
M  END
>  <CHROM.1>
-24.25222151,-172.63115548,-169.58873112,172.67010243,-168.32585013,27.38822599
14.10252843,19.07191685,-1.38842552,-0.74714878,-2.40809218

>  <Name>
ligand

>  <RI>
0

>  <Rbt.Current_Directory>
/home/itssahil/PROJECTS/Mol_Feturizer/New_Systems/rnas/3DJ2

>  <Rbt.Executable>
rbdock ($Id: //depot/dev/client3/rdock/2013.1/src/exe/rbdock.cxx#4 $)

>  <Rbt.Library>
libRbt.so (2013.1, Build901 2013/11/27)

>  <Rbt.Parameter_File>
/export/apps/rDock/src/rDock_2013.1_src/data/scripts/dock_solv.prm

>  <Rbt.Receptor>
prm/blind_docking_40.prm

>  <SCORE>
-10.9872

>  <SCORE.INTER>
-9.49458

>  <SCORE.INTER.CONST>
1

>  <SCORE.INTER.POLAR>
0

>  <SCORE.INTER.ROT>
5

>  <SCORE.INTER.SOLV>
16.7402

>  <SCORE.INTER.VDW>
-18.8431

>  <SCORE.INTER.norm>
-0.949458

>  <SCORE.INTRA>
-1.49362

>  <SCORE.INTRA.DIHEDRAL>
-1.35296

>  <SCORE.INTRA.DIHEDRAL.0>
4.28128

>  <SCORE.INTRA.POLAR>
0

>  <SCORE.INTRA.POLAR.0>
0

>  <SCORE.INTRA.REPUL>
0

>  <SCORE.INTRA.REPUL.0>
0

>  <SCORE.INTRA.SOLV>
-1.32081

>  <SCORE.INTRA.SOLV.lig_0>
-32.3374

>  <SCORE.INTRA.VDW>
-0.15674

>  <SCORE.INTRA.VDW.0>
-0.659551

>  <SCORE.INTRA.norm>
-0.149362

>  <SCORE.RESTR>
0.000981267

>  <SCORE.RESTR.CAVITY>
0.000981267

>  <SCORE.RESTR.norm>
9.81267e-05

>  <SCORE.SYSTEM>
0

>  <SCORE.SYSTEM.CONST>
0

>  <SCORE.SYSTEM.DIHEDRAL>
0

>  <SCORE.SYSTEM.SOLV>
0

>  <SCORE.SYSTEM.norm>
0

>  <SCORE.heavy>
10

>  <SCORE.norm>
-1.09872

>  <RMSD>
5.203

$$$$
ligand
 OpenBabel11021811473D
libRbt.so/2013.1/901 2013/11/27
 10  9  0  0  0  0  0  0  0  0999 V2000
   29.0158   16.7541   19.5899 N   0  0  0  0  0  0  0  0  0  0  0  0
   27.8467   15.8656   19.3388 C   0  0  2  0  0  0  0  0  0  0  0  0
   27.1172   15.4940   20.6299 C   0  0  0  0  0  0  0  0  0  0  0  0
   27.6888   15.4886   21.7250 O   0  0  0  0  0  0  0  0  0  0  0  0
   28.2700   14.6147   18.5643 C   0  0  0  0  0  0  0  0  0  0  0  0
   27.1112   13.7312   18.1216 C   0  0  0  0  0  0  0  0  0  0  0  0
   27.6155   12.4012   17.5621 C   0  0  0  0  0  0  0  0  0  0  0  0
   26.4683   11.4460   17.2522 C   0  0  0  0  0  0  0  0  0  0  0  0
   26.9299   10.0460   17.0188 N   0  0  0  0  0  0  0  0  0  0  0  0
   25.9213   15.2106   20.6119 O   0  0  0  0  0  0  0  0  0  0  0  0
  2  1  1  1  0  0  0
  2  3  1  0  0  0  0
  2  5  1  0  0  0  0
  3  4  1  0  0  0  0
  3 10  1  0  0  0  0
  5  6  1  0  0  0  0
  6  7  1  0  0  0  0
  7  8  1  0  0  0  0
  8  9  1  0  0  0  0
M  END
>  <CHROM.1>
-25.50177655,-173.14599215,-170.72903446,173.92935657,-166.29663449,27.38253771
14.10778147,19.07629650,-1.39524734,-0.73653859,-2.41383657

>  <Name>
ligand

>  <RI>
0

>  <Rbt.Current_Directory>
/home/itssahil/PROJECTS/Mol_Feturizer/New_Systems/rnas/3DJ2

>  <Rbt.Executable>
rbdock ($Id: //depot/dev/client3/rdock/2013.1/src/exe/rbdock.cxx#4 $)

>  <Rbt.Library>
libRbt.so (2013.1, Build901 2013/11/27)

>  <Rbt.Parameter_File>
/export/apps/rDock/src/rDock_2013.1_src/data/scripts/dock_solv.prm

>  <Rbt.Receptor>
prm/blind_docking_40.prm

>  <SCORE>
-10.9872

>  <SCORE.INTER>
-9.49166

>  <SCORE.INTER.CONST>
1

>  <SCORE.INTER.POLAR>
0

>  <SCORE.INTER.ROT>
5

>  <SCORE.INTER.SOLV>
16.7288

>  <SCORE.INTER.VDW>
-18.8374

>  <SCORE.INTER.norm>
-0.949166

>  <SCORE.INTRA>
-1.4955

>  <SCORE.INTRA.DIHEDRAL>
-1.35771

>  <SCORE.INTRA.DIHEDRAL.0>
4.28128

>  <SCORE.INTRA.POLAR>
0

>  <SCORE.INTRA.POLAR.0>
0

>  <SCORE.INTRA.REPUL>
0

>  <SCORE.INTRA.REPUL.0>
0

>  <SCORE.INTRA.SOLV>
-1.31836

>  <SCORE.INTRA.SOLV.lig_0>
-32.3374

>  <SCORE.INTRA.VDW>
-0.157463

>  <SCORE.INTRA.VDW.0>
-0.659551

>  <SCORE.INTRA.norm>
-0.14955

>  <SCORE.RESTR>
0

>  <SCORE.RESTR.CAVITY>
0

>  <SCORE.RESTR.norm>
0

>  <SCORE.SYSTEM>
0

>  <SCORE.SYSTEM.CONST>
0

>  <SCORE.SYSTEM.DIHEDRAL>
0

>  <SCORE.SYSTEM.SOLV>
0

>  <SCORE.SYSTEM.norm>
0

>  <SCORE.heavy>
10

>  <SCORE.norm>
-1.09872

>  <RMSD>
5.206

$$$$
ligand
 OpenBabel11021811473D
libRbt.so/2013.1/901 2013/11/27
 10  9  0  0  0  0  0  0  0  0999 V2000
   26.9832   16.3137   19.6075 N   0  0  0  0  0  0  0  0  0  0  0  0
   28.0816   15.3081   19.6471 C   0  0  2  0  0  0  0  0  0  0  0  0
   28.0816   14.4055   18.4133 C   0  0  0  0  0  0  0  0  0  0  0  0
   27.0663   13.8089   18.0401 O   0  0  0  0  0  0  0  0  0  0  0  0
   28.0178   14.4828   20.9349 C   0  0  0  0  0  0  0  0  0  0  0  0
   28.3757   15.2604   22.1945 C   0  0  0  0  0  0  0  0  0  0  0  0
   29.8824   15.5011   22.2835 C   0  0  0  0  0  0  0  0  0  0  0  0
   30.3261   16.6507   21.3858 C   0  0  0  0  0  0  0  0  0  0  0  0
   31.7972   16.8953   21.4457 N   0  0  0  0  0  0  0  0  0  0  0  0
   29.1008   14.2687   17.7398 O   0  0  0  0  0  0  0  0  0  0  0  0
  2  1  1  6  0  0  0
  2  3  1  0  0  0  0
  2  5  1  0  0  0  0
  3  4  1  0  0  0  0
  3 10  1  0  0  0  0
  5  6  1  0  0  0  0
  6  7  1  0  0  0  0
  7  8  1  0  0  0  0
  8  9  1  0  0  0  0
M  END
>  <CHROM.1>
-51.66225758,-69.72136034,-74.66223916,78.85648318,-179.41105908,28.76664535
15.26669409,20.13420565,2.21005822,-0.30833795,-1.84989908

>  <Name>
ligand

>  <RI>
0

>  <Rbt.Current_Directory>
/home/itssahil/PROJECTS/Mol_Feturizer/New_Systems/rnas/3DJ2

>  <Rbt.Executable>
rbdock ($Id: //depot/dev/client3/rdock/2013.1/src/exe/rbdock.cxx#4 $)

>  <Rbt.Library>
libRbt.so (2013.1, Build901 2013/11/27)

>  <Rbt.Parameter_File>
/export/apps/rDock/src/rDock_2013.1_src/data/scripts/dock_solv.prm

>  <Rbt.Receptor>
prm/blind_docking_60.prm

>  <SCORE>
-8.01852

>  <SCORE.INTER>
-8.54385

>  <SCORE.INTER.CONST>
1

>  <SCORE.INTER.POLAR>
0

>  <SCORE.INTER.ROT>
5

>  <SCORE.INTER.SOLV>
14.1823

>  <SCORE.INTER.VDW>
-17.3567

>  <SCORE.INTER.norm>
-0.854385

>  <SCORE.INTRA>
0.525333

>  <SCORE.INTRA.DIHEDRAL>
-0.119658

>  <SCORE.INTRA.DIHEDRAL.0>
4.28128

>  <SCORE.INTRA.POLAR>
0

>  <SCORE.INTRA.POLAR.0>
0

>  <SCORE.INTRA.REPUL>
0

>  <SCORE.INTRA.REPUL.0>
0

>  <SCORE.INTRA.SOLV>
0.772112

>  <SCORE.INTRA.SOLV.lig_0>
-32.3374

>  <SCORE.INTRA.VDW>
0.199106

>  <SCORE.INTRA.VDW.0>
-0.659551

>  <SCORE.INTRA.norm>
0.0525333

>  <SCORE.RESTR>
0

>  <SCORE.RESTR.CAVITY>
0

>  <SCORE.RESTR.norm>
0

>  <SCORE.SYSTEM>
0

>  <SCORE.SYSTEM.CONST>
0

>  <SCORE.SYSTEM.DIHEDRAL>
0

>  <SCORE.SYSTEM.SOLV>
0

>  <SCORE.SYSTEM.norm>
0

>  <SCORE.heavy>
10

>  <SCORE.norm>
-0.801852

>  <RMSD>
5.231

$$$$
ligand
 OpenBabel11021811473D
libRbt.so/2013.1/901 2013/11/27
 10  9  0  0  0  0  0  0  0  0999 V2000
   29.0828   14.6842   19.4258 N   0  0  0  0  0  0  0  0  0  0  0  0
   28.0581   14.3965   20.4682 C   0  0  2  0  0  0  0  0  0  0  0  0
   26.8678   15.3524   20.3857 C   0  0  0  0  0  0  0  0  0  0  0  0
   26.9504   16.4524   19.8299 O   0  0  0  0  0  0  0  0  0  0  0  0
   28.6835   14.4129   21.8654 C   0  0  0  0  0  0  0  0  0  0  0  0
   29.4149   15.7040   22.2082 C   0  0  0  0  0  0  0  0  0  0  0  0
   30.7878   15.7536   21.5383 C   0  0  0  0  0  0  0  0  0  0  0  0
   31.5614   17.0092   21.9248 C   0  0  0  0  0  0  0  0  0  0  0  0
   32.8766   17.1146   21.2272 N   0  0  0  0  0  0  0  0  0  0  0  0
   25.7779   15.0342   20.8568 O   0  0  0  0  0  0  0  0  0  0  0  0
  2  1  1  6  0  0  0
  2  3  1  0  0  0  0
  2  5  1  0  0  0  0
  3  4  1  0  0  0  0
  3 10  1  0  0  0  0
  5  6  1  0  0  0  0
  6  7  1  0  0  0  0
  7  8  1  0  0  0  0
  8  9  1  0  0  0  0
M  END
>  <CHROM.1>
-21.30085469,55.51000092,-77.73785202,-177.25348675,-177.01699399,28.96903016
15.60750021,20.96759713,3.12293337,0.34583343,2.28842415

>  <Name>
ligand

>  <RI>
0

>  <Rbt.Current_Directory>
/home/itssahil/PROJECTS/Mol_Feturizer/New_Systems/rnas/3DJ2

>  <Rbt.Executable>
rbdock ($Id: //depot/dev/client3/rdock/2013.1/src/exe/rbdock.cxx#4 $)

>  <Rbt.Library>
libRbt.so (2013.1, Build901 2013/11/27)

>  <Rbt.Parameter_File>
/export/apps/rDock/src/rDock_2013.1_src/data/scripts/dock_solv.prm

>  <Rbt.Receptor>
prm/pocket_docking_3.prm

>  <SCORE>
-9.67942

>  <SCORE.INTER>
-9.6556

>  <SCORE.INTER.CONST>
1

>  <SCORE.INTER.POLAR>
0

>  <SCORE.INTER.ROT>
5

>  <SCORE.INTER.SOLV>
13.3977

>  <SCORE.INTER.VDW>
-17.8363

>  <SCORE.INTER.norm>
-0.96556

>  <SCORE.INTRA>
-0.0238207

>  <SCORE.INTRA.DIHEDRAL>
-1.32902

>  <SCORE.INTRA.DIHEDRAL.0>
4.28128

>  <SCORE.INTRA.POLAR>
0

>  <SCORE.INTRA.POLAR.0>
0

>  <SCORE.INTRA.REPUL>
0

>  <SCORE.INTRA.REPUL.0>
0

>  <SCORE.INTRA.SOLV>
1.05046

>  <SCORE.INTRA.SOLV.lig_0>
-32.3374

>  <SCORE.INTRA.VDW>
0.11546

>  <SCORE.INTRA.VDW.0>
-0.659551

>  <SCORE.INTRA.norm>
-0.00238207

>  <SCORE.RESTR>
0

>  <SCORE.RESTR.CAVITY>
0

>  <SCORE.RESTR.norm>
0

>  <SCORE.SYSTEM>
0

>  <SCORE.SYSTEM.CONST>
0

>  <SCORE.SYSTEM.DIHEDRAL>
0

>  <SCORE.SYSTEM.SOLV>
0

>  <SCORE.SYSTEM.norm>
0

>  <SCORE.heavy>
10

>  <SCORE.norm>
-0.967942

>  <RMSD>
5.233

$$$$
ligand
 OpenBabel11021811473D
libRbt.so/2013.1/901 2013/11/27
 10  9  0  0  0  0  0  0  0  0999 V2000
   28.0777   14.6830   18.5867 N   0  0  0  0  0  0  0  0  0  0  0  0
   28.1639   14.7318   20.0731 C   0  0  2  0  0  0  0  0  0  0  0  0
   26.8072   15.0103   20.7204 C   0  0  0  0  0  0  0  0  0  0  0  0
   26.5884   14.7643   21.9110 O   0  0  0  0  0  0  0  0  0  0  0  0
   29.2110   15.7534   20.5244 C   0  0  0  0  0  0  0  0  0  0  0  0
   29.4874   15.7459   22.0221 C   0  0  0  0  0  0  0  0  0  0  0  0
   30.5246   16.8044   22.3959 C   0  0  0  0  0  0  0  0  0  0  0  0
   31.9311   16.3921   21.9763 C   0  0  0  0  0  0  0  0  0  0  0  0
   32.0900   16.3076   20.4947 N   0  0  0  0  0  0  0  0  0  0  0  0
   25.8961   15.5151   20.0678 O   0  0  0  0  0  0  0  0  0  0  0  0
  2  1  1  6  0  0  0
  2  3  1  0  0  0  0
  2  5  1  0  0  0  0
  3  4  1  0  0  0  0
  3 10  1  0  0  0  0
  5  6  1  0  0  0  0
  6  7  1  0  0  0  0
  7  8  1  0  0  0  0
  8  9  1  0  0  0  0
M  END
>  <CHROM.1>
161.52170513,-172.82959201,-179.12904847,-74.20692225,65.62296385,28.83838800
15.57274710,20.88873319,-2.84503096,0.22272729,1.34437417

>  <Name>
ligand

>  <RI>
0

>  <Rbt.Current_Directory>
/home/itssahil/PROJECTS/Mol_Feturizer/New_Systems/rnas/3DJ2

>  <Rbt.Executable>
rbdock ($Id: //depot/dev/client3/rdock/2013.1/src/exe/rbdock.cxx#4 $)

>  <Rbt.Library>
libRbt.so (2013.1, Build901 2013/11/27)

>  <Rbt.Parameter_File>
/export/apps/rDock/src/rDock_2013.1_src/data/scripts/dock_solv.prm

>  <Rbt.Receptor>
prm/pocket_docking_8.prm

>  <SCORE>
-8.98607

>  <SCORE.INTER>
-9.29708

>  <SCORE.INTER.CONST>
1

>  <SCORE.INTER.POLAR>
0

>  <SCORE.INTER.ROT>
5

>  <SCORE.INTER.SOLV>
12.9979

>  <SCORE.INTER.VDW>
-17.464

>  <SCORE.INTER.norm>
-0.929708

>  <SCORE.INTRA>
0.311009

>  <SCORE.INTRA.DIHEDRAL>
-1.68862

>  <SCORE.INTRA.DIHEDRAL.0>
4.28128

>  <SCORE.INTRA.POLAR>
0

>  <SCORE.INTRA.POLAR.0>
0

>  <SCORE.INTRA.REPUL>
0

>  <SCORE.INTRA.REPUL.0>
0

>  <SCORE.INTRA.SOLV>
0.999671

>  <SCORE.INTRA.SOLV.lig_0>
-32.3374

>  <SCORE.INTRA.VDW>
0.655483

>  <SCORE.INTRA.VDW.0>
-0.659551

>  <SCORE.INTRA.norm>
0.0311009

>  <SCORE.RESTR>
0

>  <SCORE.RESTR.CAVITY>
0

>  <SCORE.RESTR.norm>
0

>  <SCORE.SYSTEM>
0

>  <SCORE.SYSTEM.CONST>
0

>  <SCORE.SYSTEM.DIHEDRAL>
0

>  <SCORE.SYSTEM.SOLV>
0

>  <SCORE.SYSTEM.norm>
0

>  <SCORE.heavy>
10

>  <SCORE.norm>
-0.898607

>  <RMSD>
5.233

$$$$
ligand
 OpenBabel11021811473D
libRbt.so/2013.1/901 2013/11/27
 10  9  0  0  0  0  0  0  0  0999 V2000
   26.6992   14.9842   21.9218 N   0  0  0  0  0  0  0  0  0  0  0  0
   27.9688   15.5995   21.4435 C   0  0  2  0  0  0  0  0  0  0  0  0
   27.8758   16.0548   19.9870 C   0  0  0  0  0  0  0  0  0  0  0  0
   28.4185   17.0911   19.5903 O   0  0  0  0  0  0  0  0  0  0  0  0
   29.1477   14.6448   21.6492 C   0  0  0  0  0  0  0  0  0  0  0  0
   30.4948   15.2135   21.2235 C   0  0  0  0  0  0  0  0  0  0  0  0
   30.9168   16.3682   22.1316 C   0  0  0  0  0  0  0  0  0  0  0  0
   32.2706   16.9410   21.7272 C   0  0  0  0  0  0  0  0  0  0  0  0
   32.6989   18.0776   22.5944 N   0  0  0  0  0  0  0  0  0  0  0  0
   27.2698   15.3780   19.1589 O   0  0  0  0  0  0  0  0  0  0  0  0
  2  1  1  6  0  0  0
  2  3  1  0  0  0  0
  2  5  1  0  0  0  0
  3  4  1  0  0  0  0
  3 10  1  0  0  0  0
  5  6  1  0  0  0  0
  6  7  1  0  0  0  0
  7  8  1  0  0  0  0
  8  9  1  0  0  0  0
M  END
>  <CHROM.1>
142.62546295,-178.27640421,67.41864198,179.45618903,179.56834023,29.36464767
16.04354503,21.10735222,3.06273440,-0.47143337,-0.91937547

>  <Name>
ligand

>  <RI>
0

>  <Rbt.Current_Directory>
/home/itssahil/PROJECTS/Mol_Feturizer/New_Systems/rnas/3DJ2

>  <Rbt.Executable>
rbdock ($Id: //depot/dev/client3/rdock/2013.1/src/exe/rbdock.cxx#4 $)

>  <Rbt.Library>
libRbt.so (2013.1, Build901 2013/11/27)

>  <Rbt.Parameter_File>
/export/apps/rDock/src/rDock_2013.1_src/data/scripts/dock_solv.prm

>  <Rbt.Receptor>
prm/pocket_docking_4.prm

>  <SCORE>
-9.05297

>  <SCORE.INTER>
-7.1882

>  <SCORE.INTER.CONST>
1

>  <SCORE.INTER.POLAR>
0

>  <SCORE.INTER.ROT>
5

>  <SCORE.INTER.SOLV>
19.0692

>  <SCORE.INTER.VDW>
-18.0819

>  <SCORE.INTER.norm>
-0.71882

>  <SCORE.INTRA>
-1.86477

>  <SCORE.INTRA.DIHEDRAL>
-2.56382

>  <SCORE.INTRA.DIHEDRAL.0>
4.28128

>  <SCORE.INTRA.POLAR>
0

>  <SCORE.INTRA.POLAR.0>
0

>  <SCORE.INTRA.REPUL>
0

>  <SCORE.INTRA.REPUL.0>
0

>  <SCORE.INTRA.SOLV>
-1.11734

>  <SCORE.INTRA.SOLV.lig_0>
-32.3374

>  <SCORE.INTRA.VDW>
-0.0241894

>  <SCORE.INTRA.VDW.0>
-0.659551

>  <SCORE.INTRA.norm>
-0.186477

>  <SCORE.RESTR>
0

>  <SCORE.RESTR.CAVITY>
0

>  <SCORE.RESTR.norm>
0

>  <SCORE.SYSTEM>
0

>  <SCORE.SYSTEM.CONST>
0

>  <SCORE.SYSTEM.DIHEDRAL>
0

>  <SCORE.SYSTEM.SOLV>
0

>  <SCORE.SYSTEM.norm>
0

>  <SCORE.heavy>
10

>  <SCORE.norm>
-0.905297

>  <RMSD>
5.236

$$$$
ligand
 OpenBabel11021811473D
libRbt.so/2013.1/901 2013/11/27
 10  9  0  0  0  0  0  0  0  0999 V2000
   28.9210   15.1911   19.3579 N   0  0  0  0  0  0  0  0  0  0  0  0
   28.0393   14.4918   20.3340 C   0  0  2  0  0  0  0  0  0  0  0  0
   26.6688   15.1585   20.4535 C   0  0  0  0  0  0  0  0  0  0  0  0
   25.7754   14.6924   21.1681 O   0  0  0  0  0  0  0  0  0  0  0  0
   28.7204   14.3810   21.7006 C   0  0  0  0  0  0  0  0  0  0  0  0
   28.9114   15.7130   22.4140 C   0  0  0  0  0  0  0  0  0  0  0  0
   29.9751   16.5623   21.7187 C   0  0  0  0  0  0  0  0  0  0  0  0
   31.3737   15.9864   21.9102 C   0  0  0  0  0  0  0  0  0  0  0  0
   32.4356   16.8296   21.2867 N   0  0  0  0  0  0  0  0  0  0  0  0
   26.4278   16.2025   19.8510 O   0  0  0  0  0  0  0  0  0  0  0  0
  2  1  1  6  0  0  0
  2  3  1  0  0  0  0
  2  5  1  0  0  0  0
  3  4  1  0  0  0  0
  3 10  1  0  0  0  0
  5  6  1  0  0  0  0
  6  7  1  0  0  0  0
  7  8  1  0  0  0  0
  8  9  1  0  0  0  0
M  END
>  <CHROM.1>
176.74942131,67.65754757,-70.45316045,-70.42441505,-177.66075974,28.68523591
15.53119388,21.01839950,-2.99597486,0.29065459,1.82821120

>  <Name>
ligand

>  <RI>
0

>  <Rbt.Current_Directory>
/home/itssahil/PROJECTS/Mol_Feturizer/New_Systems/rnas/3DJ2

>  <Rbt.Executable>
rbdock ($Id: //depot/dev/client3/rdock/2013.1/src/exe/rbdock.cxx#4 $)

>  <Rbt.Library>
libRbt.so (2013.1, Build901 2013/11/27)

>  <Rbt.Parameter_File>
/export/apps/rDock/src/rDock_2013.1_src/data/scripts/dock_solv.prm

>  <Rbt.Receptor>
prm/pocket_docking_6.prm

>  <SCORE>
-8.78854

>  <SCORE.INTER>
-9.61316

>  <SCORE.INTER.CONST>
1

>  <SCORE.INTER.POLAR>
0

>  <SCORE.INTER.ROT>
5

>  <SCORE.INTER.SOLV>
11.3627

>  <SCORE.INTER.VDW>
-17.1297

>  <SCORE.INTER.norm>
-0.961316

>  <SCORE.INTRA>
0.824615

>  <SCORE.INTRA.DIHEDRAL>
-1.64998

>  <SCORE.INTRA.DIHEDRAL.0>
4.28128

>  <SCORE.INTRA.POLAR>
0

>  <SCORE.INTRA.POLAR.0>
0

>  <SCORE.INTRA.REPUL>
0

>  <SCORE.INTRA.REPUL.0>
0

>  <SCORE.INTRA.SOLV>
1.6636

>  <SCORE.INTRA.SOLV.lig_0>
-32.3374

>  <SCORE.INTRA.VDW>
0.817806

>  <SCORE.INTRA.VDW.0>
-0.659551

>  <SCORE.INTRA.norm>
0.0824615

>  <SCORE.RESTR>
0

>  <SCORE.RESTR.CAVITY>
0

>  <SCORE.RESTR.norm>
0

>  <SCORE.SYSTEM>
0

>  <SCORE.SYSTEM.CONST>
0

>  <SCORE.SYSTEM.DIHEDRAL>
0

>  <SCORE.SYSTEM.SOLV>
0

>  <SCORE.SYSTEM.norm>
0

>  <SCORE.heavy>
10

>  <SCORE.norm>
-0.878854

>  <RMSD>
5.243

$$$$
ligand
 OpenBabel11021811473D
libRbt.so/2013.1/901 2013/11/27
 10  9  0  0  0  0  0  0  0  0999 V2000
   29.1005   16.4904   20.0264 N   0  0  0  0  0  0  0  0  0  0  0  0
   27.9018   15.7331   19.5692 C   0  0  2  0  0  0  0  0  0  0  0  0
   27.0192   15.2913   20.7366 C   0  0  0  0  0  0  0  0  0  0  0  0
   27.4845   15.0640   21.8581 O   0  0  0  0  0  0  0  0  0  0  0  0
   28.3103   14.5387   18.7031 C   0  0  0  0  0  0  0  0  0  0  0  0
   27.1392   13.7351   18.1534 C   0  0  0  0  0  0  0  0  0  0  0  0
   27.6107   12.4030   17.5708 C   0  0  0  0  0  0  0  0  0  0  0  0
   26.4404   11.4820   17.2442 C   0  0  0  0  0  0  0  0  0  0  0  0
   26.8700   10.0814   16.9597 N   0  0  0  0  0  0  0  0  0  0  0  0
   25.8044   15.1731   20.5909 O   0  0  0  0  0  0  0  0  0  0  0  0
  2  1  1  1  0  0  0
  2  3  1  0  0  0  0
  2  5  1  0  0  0  0
  3  4  1  0  0  0  0
  3 10  1  0  0  0  0
  5  6  1  0  0  0  0
  6  7  1  0  0  0  0
  7  8  1  0  0  0  0
  8  9  1  0  0  0  0
M  END
>  <CHROM.1>
-28.96822397,-178.03796498,-167.37084964,169.82885189,-167.44606408,27.34886267
13.99987862,19.17382066,-1.41029956,-0.64215910,-2.38184039

>  <Name>
ligand

>  <RI>
0

>  <Rbt.Current_Directory>
/home/itssahil/PROJECTS/Mol_Feturizer/New_Systems/rnas/3DJ2

>  <Rbt.Executable>
rbdock ($Id: //depot/dev/client3/rdock/2013.1/src/exe/rbdock.cxx#4 $)

>  <Rbt.Library>
libRbt.so (2013.1, Build901 2013/11/27)

>  <Rbt.Parameter_File>
/export/apps/rDock/src/rDock_2013.1_src/data/scripts/dock_solv.prm

>  <Rbt.Receptor>
prm/pocket_docking_6.prm

>  <SCORE>
-11.2877

>  <SCORE.INTER>
-9.98677

>  <SCORE.INTER.CONST>
1

>  <SCORE.INTER.POLAR>
0

>  <SCORE.INTER.ROT>
5

>  <SCORE.INTER.SOLV>
15.5515

>  <SCORE.INTER.VDW>
-18.775

>  <SCORE.INTER.norm>
-0.998677

>  <SCORE.INTRA>
-1.30094

>  <SCORE.INTRA.DIHEDRAL>
-1.05486

>  <SCORE.INTRA.DIHEDRAL.0>
4.28128

>  <SCORE.INTRA.POLAR>
0

>  <SCORE.INTRA.POLAR.0>
0

>  <SCORE.INTRA.REPUL>
0

>  <SCORE.INTRA.REPUL.0>
0

>  <SCORE.INTRA.SOLV>
-1.3242

>  <SCORE.INTRA.SOLV.lig_0>
-32.3374

>  <SCORE.INTRA.VDW>
-0.111408

>  <SCORE.INTRA.VDW.0>
-0.659551

>  <SCORE.INTRA.norm>
-0.130094

>  <SCORE.RESTR>
0

>  <SCORE.RESTR.CAVITY>
0

>  <SCORE.RESTR.norm>
0

>  <SCORE.SYSTEM>
0

>  <SCORE.SYSTEM.CONST>
0

>  <SCORE.SYSTEM.DIHEDRAL>
0

>  <SCORE.SYSTEM.SOLV>
0

>  <SCORE.SYSTEM.norm>
0

>  <SCORE.heavy>
10

>  <SCORE.norm>
-1.12877

>  <RMSD>
5.252

$$$$
ligand
 OpenBabel11021811473D
libRbt.so/2013.1/901 2013/11/27
 10  9  0  0  0  0  0  0  0  0999 V2000
   27.9847   14.5095   18.7367 N   0  0  0  0  0  0  0  0  0  0  0  0
   28.0975   14.6361   20.2168 C   0  0  2  0  0  0  0  0  0  0  0  0
   26.7647   15.0081   20.8668 C   0  0  0  0  0  0  0  0  0  0  0  0
   25.8059   15.4169   20.2038 O   0  0  0  0  0  0  0  0  0  0  0  0
   29.1942   15.6349   20.5956 C   0  0  0  0  0  0  0  0  0  0  0  0
   29.5400   15.6513   22.0787 C   0  0  0  0  0  0  0  0  0  0  0  0
   30.5349   16.7663   22.3998 C   0  0  0  0  0  0  0  0  0  0  0  0
   31.9495   16.4071   21.9591 C   0  0  0  0  0  0  0  0  0  0  0  0
   32.0824   16.2990   20.4766 N   0  0  0  0  0  0  0  0  0  0  0  0
   26.6056   14.8847   22.0794 O   0  0  0  0  0  0  0  0  0  0  0  0
  2  1  1  6  0  0  0
  2  3  1  0  0  0  0
  2  5  1  0  0  0  0
  3  4  1  0  0  0  0
  3 10  1  0  0  0  0
  5  6  1  0  0  0  0
  6  7  1  0  0  0  0
  7  8  1  0  0  0  0
  8  9  1  0  0  0  0
M  END
>  <CHROM.1>
-13.79398956,-170.12950721,-174.22330988,-76.16705648,66.07577555,28.81680661
15.52472984,20.97341325,-2.86508201,0.21798723,1.30181667

>  <Name>
ligand

>  <RI>
0

>  <Rbt.Current_Directory>
/home/itssahil/PROJECTS/Mol_Feturizer/New_Systems/rnas/3DJ2

>  <Rbt.Executable>
rbdock ($Id: //depot/dev/client3/rdock/2013.1/src/exe/rbdock.cxx#4 $)

>  <Rbt.Library>
libRbt.so (2013.1, Build901 2013/11/27)

>  <Rbt.Parameter_File>
/export/apps/rDock/src/rDock_2013.1_src/data/scripts/dock_solv.prm

>  <Rbt.Receptor>
prm/pocket_docking_4.prm

>  <SCORE>
-8.98644

>  <SCORE.INTER>
-9.46207

>  <SCORE.INTER.CONST>
1

>  <SCORE.INTER.POLAR>
0

>  <SCORE.INTER.ROT>
5

>  <SCORE.INTER.SOLV>
13.274

>  <SCORE.INTER.VDW>
-17.666

>  <SCORE.INTER.norm>
-0.946207

>  <SCORE.INTRA>
0.475631

>  <SCORE.INTRA.DIHEDRAL>
-1.0645

>  <SCORE.INTRA.DIHEDRAL.0>
4.28128

>  <SCORE.INTRA.POLAR>
0

>  <SCORE.INTRA.POLAR.0>
0

>  <SCORE.INTRA.REPUL>
0

>  <SCORE.INTRA.REPUL.0>
0

>  <SCORE.INTRA.SOLV>
0.914021

>  <SCORE.INTRA.SOLV.lig_0>
-32.3374

>  <SCORE.INTRA.VDW>
0.550872

>  <SCORE.INTRA.VDW.0>
-0.659551

>  <SCORE.INTRA.norm>
0.0475631

>  <SCORE.RESTR>
0

>  <SCORE.RESTR.CAVITY>
0

>  <SCORE.RESTR.norm>
0

>  <SCORE.SYSTEM>
0

>  <SCORE.SYSTEM.CONST>
0

>  <SCORE.SYSTEM.DIHEDRAL>
0

>  <SCORE.SYSTEM.SOLV>
0

>  <SCORE.SYSTEM.norm>
0

>  <SCORE.heavy>
10

>  <SCORE.norm>
-0.898644

>  <RMSD>
5.255

$$$$
ligand
 OpenBabel11021811473D
libRbt.so/2013.1/901 2013/11/27
 10  9  0  0  0  0  0  0  0  0999 V2000
   25.5652   15.2507   20.5374 N   0  0  0  0  0  0  0  0  0  0  0  0
   26.8309   14.5114   20.2716 C   0  0  2  0  0  0  0  0  0  0  0  0
   27.8571   14.7052   21.3882 C   0  0  0  0  0  0  0  0  0  0  0  0
   27.5949   15.3429   22.4131 O   0  0  0  0  0  0  0  0  0  0  0  0
   27.4145   14.9027   18.9115 C   0  0  0  0  0  0  0  0  0  0  0  0
   28.0196   13.7418   18.1332 C   0  0  0  0  0  0  0  0  0  0  0  0
   26.9394   12.7599   17.6804 C   0  0  0  0  0  0  0  0  0  0  0  0
   27.5325   11.4195   17.2611 C   0  0  0  0  0  0  0  0  0  0  0  0
   26.5014   10.3490   17.1257 N   0  0  0  0  0  0  0  0  0  0  0  0
   28.9759   14.2036   21.3017 O   0  0  0  0  0  0  0  0  0  0  0  0
  2  1  1  1  0  0  0
  2  3  1  0  0  0  0
  2  5  1  0  0  0  0
  3  4  1  0  0  0  0
  3 10  1  0  0  0  0
  5  6  1  0  0  0  0
  6  7  1  0  0  0  0
  7  8  1  0  0  0  0
  8  9  1  0  0  0  0
M  END
>  <CHROM.1>
4.06779601,-140.86670761,68.01813169,-163.73978516,166.42722896,27.34631116
13.72864859,19.53599770,1.47159884,-0.45283531,0.82845898

>  <Name>
ligand

>  <RI>
0

>  <Rbt.Current_Directory>
/home/itssahil/PROJECTS/Mol_Feturizer/New_Systems/rnas/3DJ2

>  <Rbt.Executable>
rbdock ($Id: //depot/dev/client3/rdock/2013.1/src/exe/rbdock.cxx#4 $)

>  <Rbt.Library>
libRbt.so (2013.1, Build901 2013/11/27)

>  <Rbt.Parameter_File>
/export/apps/rDock/src/rDock_2013.1_src/data/scripts/dock_solv.prm

>  <Rbt.Receptor>
prm/blind_docking_100.prm

>  <SCORE>
-7.57307

>  <SCORE.INTER>
-8.91565

>  <SCORE.INTER.CONST>
1

>  <SCORE.INTER.POLAR>
0

>  <SCORE.INTER.ROT>
5

>  <SCORE.INTER.SOLV>
20.9474

>  <SCORE.INTER.VDW>
-19.8596

>  <SCORE.INTER.norm>
-0.891565

>  <SCORE.INTRA>
1.34258

>  <SCORE.INTRA.DIHEDRAL>
3.33912

>  <SCORE.INTRA.DIHEDRAL.0>
4.28128

>  <SCORE.INTRA.POLAR>
0

>  <SCORE.INTRA.POLAR.0>
0

>  <SCORE.INTRA.REPUL>
0

>  <SCORE.INTRA.REPUL.0>
0

>  <SCORE.INTRA.SOLV>
-0.68779

>  <SCORE.INTRA.SOLV.lig_0>
-32.3374

>  <SCORE.INTRA.VDW>
0.0169173

>  <SCORE.INTRA.VDW.0>
-0.659551

>  <SCORE.INTRA.norm>
0.134258

>  <SCORE.RESTR>
0

>  <SCORE.RESTR.CAVITY>
0

>  <SCORE.RESTR.norm>
0

>  <SCORE.SYSTEM>
0

>  <SCORE.SYSTEM.CONST>
0

>  <SCORE.SYSTEM.DIHEDRAL>
0

>  <SCORE.SYSTEM.SOLV>
0

>  <SCORE.SYSTEM.norm>
0

>  <SCORE.heavy>
10

>  <SCORE.norm>
-0.757307

>  <RMSD>
5.259

$$$$
ligand
 OpenBabel11021811473D
libRbt.so/2013.1/901 2013/11/27
 10  9  0  0  0  0  0  0  0  0999 V2000
   28.0348   14.5867   18.5876 N   0  0  0  0  0  0  0  0  0  0  0  0
   28.1068   14.6535   20.0741 C   0  0  2  0  0  0  0  0  0  0  0  0
   26.7543   14.9904   20.7022 C   0  0  0  0  0  0  0  0  0  0  0  0
   25.8413   15.5068   20.0497 O   0  0  0  0  0  0  0  0  0  0  0  0
   29.1856   15.6428   20.5229 C   0  0  0  0  0  0  0  0  0  0  0  0
   29.4861   15.6059   22.0154 C   0  0  0  0  0  0  0  0  0  0  0  0
   30.4993   16.6837   22.3999 C   0  0  0  0  0  0  0  0  0  0  0  0
   31.9136   16.3105   21.9697 C   0  0  0  0  0  0  0  0  0  0  0  0
   32.0823   16.3006   20.4869 N   0  0  0  0  0  0  0  0  0  0  0  0
   26.5320   14.7298   21.8827 O   0  0  0  0  0  0  0  0  0  0  0  0
  2  1  1  6  0  0  0
  2  3  1  0  0  0  0
  2  5  1  0  0  0  0
  3  4  1  0  0  0  0
  3 10  1  0  0  0  0
  5  6  1  0  0  0  0
  6  7  1  0  0  0  0
  7  8  1  0  0  0  0
  8  9  1  0  0  0  0
M  END
>  <CHROM.1>
-18.93111516,-170.42977126,-176.08506537,-75.19489221,67.81175451,28.80408482
15.50373622,20.88025216,-2.84825174,0.21453207,1.34939938

>  <Name>
ligand

>  <RI>
0

>  <Rbt.Current_Directory>
/home/itssahil/PROJECTS/Mol_Feturizer/New_Systems/rnas/3DJ2

>  <Rbt.Executable>
rbdock ($Id: //depot/dev/client3/rdock/2013.1/src/exe/rbdock.cxx#4 $)

>  <Rbt.Library>
libRbt.so (2013.1, Build901 2013/11/27)

>  <Rbt.Parameter_File>
/export/apps/rDock/src/rDock_2013.1_src/data/scripts/dock_solv.prm

>  <Rbt.Receptor>
prm/pocket_docking_8.prm

>  <SCORE>
-8.98558

>  <SCORE.INTER>
-9.33032

>  <SCORE.INTER.CONST>
1

>  <SCORE.INTER.POLAR>
0

>  <SCORE.INTER.ROT>
5

>  <SCORE.INTER.SOLV>
13.2827

>  <SCORE.INTER.VDW>
-17.5811

>  <SCORE.INTER.norm>
-0.933032

>  <SCORE.INTRA>
0.344741

>  <SCORE.INTRA.DIHEDRAL>
-1.17756

>  <SCORE.INTRA.DIHEDRAL.0>
4.28128

>  <SCORE.INTRA.POLAR>
0

>  <SCORE.INTRA.POLAR.0>
0

>  <SCORE.INTRA.REPUL>
0

>  <SCORE.INTRA.REPUL.0>
0

>  <SCORE.INTRA.SOLV>
0.897793

>  <SCORE.INTRA.SOLV.lig_0>
-32.3374

>  <SCORE.INTRA.VDW>
0.484626

>  <SCORE.INTRA.VDW.0>
-0.659551

>  <SCORE.INTRA.norm>
0.0344741

>  <SCORE.RESTR>
0

>  <SCORE.RESTR.CAVITY>
0

>  <SCORE.RESTR.norm>
0

>  <SCORE.SYSTEM>
0

>  <SCORE.SYSTEM.CONST>
0

>  <SCORE.SYSTEM.DIHEDRAL>
0

>  <SCORE.SYSTEM.SOLV>
0

>  <SCORE.SYSTEM.norm>
0

>  <SCORE.heavy>
10

>  <SCORE.norm>
-0.898558

>  <RMSD>
5.264

$$$$
ligand
 OpenBabel11021811473D
libRbt.so/2013.1/901 2013/11/27
 10  9  0  0  0  0  0  0  0  0999 V2000
   28.0314   14.6422   18.5807 N   0  0  0  0  0  0  0  0  0  0  0  0
   28.0955   14.6552   20.0689 C   0  0  2  0  0  0  0  0  0  0  0  0
   26.7403   14.9721   20.7016 C   0  0  0  0  0  0  0  0  0  0  0  0
   26.5022   14.7336   21.8900 O   0  0  0  0  0  0  0  0  0  0  0  0
   29.1738   15.6253   20.5588 C   0  0  0  0  0  0  0  0  0  0  0  0
   29.4566   15.5435   22.0530 C   0  0  0  0  0  0  0  0  0  0  0  0
   30.4447   16.6261   22.4865 C   0  0  0  0  0  0  0  0  0  0  0  0
   31.8667   16.3068   22.0390 C   0  0  0  0  0  0  0  0  0  0  0  0
   32.0418   16.4033   20.5600 N   0  0  0  0  0  0  0  0  0  0  0  0
   25.8505   15.5012   20.0389 O   0  0  0  0  0  0  0  0  0  0  0  0
  2  1  1  6  0  0  0
  2  3  1  0  0  0  0
  2  5  1  0  0  0  0
  3  4  1  0  0  0  0
  3 10  1  0  0  0  0
  5  6  1  0  0  0  0
  6  7  1  0  0  0  0
  7  8  1  0  0  0  0
  8  9  1  0  0  0  0
M  END
>  <CHROM.1>
163.01217266,-170.99647065,-174.71022413,-74.09546826,69.27432547,28.78097271
15.50380294,20.90871197,-2.83794403,0.22459019,1.38141116

>  <Name>
ligand

>  <RI>
0

>  <Rbt.Current_Directory>
/home/itssahil/PROJECTS/Mol_Feturizer/New_Systems/rnas/3DJ2

>  <Rbt.Executable>
rbdock ($Id: //depot/dev/client3/rdock/2013.1/src/exe/rbdock.cxx#4 $)

>  <Rbt.Library>
libRbt.so (2013.1, Build901 2013/11/27)

>  <Rbt.Parameter_File>
/export/apps/rDock/src/rDock_2013.1_src/data/scripts/dock_solv.prm

>  <Rbt.Receptor>
prm/pocket_docking_5.prm

>  <SCORE>
-9.05834

>  <SCORE.INTER>
-9.40435

>  <SCORE.INTER.CONST>
1

>  <SCORE.INTER.POLAR>
0

>  <SCORE.INTER.ROT>
5

>  <SCORE.INTER.SOLV>
12.9929

>  <SCORE.INTER.VDW>
-17.5339

>  <SCORE.INTER.norm>
-0.940435

>  <SCORE.INTRA>
0.346002

>  <SCORE.INTRA.DIHEDRAL>
-1.2767

>  <SCORE.INTRA.DIHEDRAL.0>
4.28128

>  <SCORE.INTRA.POLAR>
0

>  <SCORE.INTRA.POLAR.0>
0

>  <SCORE.INTRA.REPUL>
0

>  <SCORE.INTRA.REPUL.0>
0

>  <SCORE.INTRA.SOLV>
0.873767

>  <SCORE.INTRA.SOLV.lig_0>
-32.3374

>  <SCORE.INTRA.VDW>
0.547466

>  <SCORE.INTRA.VDW.0>
-0.659551

>  <SCORE.INTRA.norm>
0.0346002

>  <SCORE.RESTR>
0

>  <SCORE.RESTR.CAVITY>
0

>  <SCORE.RESTR.norm>
0

>  <SCORE.SYSTEM>
0

>  <SCORE.SYSTEM.CONST>
0

>  <SCORE.SYSTEM.DIHEDRAL>
0

>  <SCORE.SYSTEM.SOLV>
0

>  <SCORE.SYSTEM.norm>
0

>  <SCORE.heavy>
10

>  <SCORE.norm>
-0.905834

>  <RMSD>
5.267

$$$$
ligand
 OpenBabel11021811473D
libRbt.so/2013.1/901 2013/11/27
 10  9  0  0  0  0  0  0  0  0999 V2000
   29.0774   16.4007   20.3440 N   0  0  0  0  0  0  0  0  0  0  0  0
   27.8815   15.7239   19.7688 C   0  0  2  0  0  0  0  0  0  0  0  0
   26.8872   15.2949   20.8480 C   0  0  0  0  0  0  0  0  0  0  0  0
   25.6836   15.1533   20.6085 O   0  0  0  0  0  0  0  0  0  0  0  0
   28.2954   14.5362   18.8960 C   0  0  0  0  0  0  0  0  0  0  0  0
   27.1376   13.8504   18.1830 C   0  0  0  0  0  0  0  0  0  0  0  0
   27.5624   12.4935   17.6222 C   0  0  0  0  0  0  0  0  0  0  0  0
   26.3625   11.6611   17.1843 C   0  0  0  0  0  0  0  0  0  0  0  0
   26.6902   10.2135   17.0283 N   0  0  0  0  0  0  0  0  0  0  0  0
   27.2713   15.0542   21.9905 O   0  0  0  0  0  0  0  0  0  0  0  0
  2  1  1  1  0  0  0
  2  3  1  0  0  0  0
  2  5  1  0  0  0  0
  3  4  1  0  0  0  0
  3 10  1  0  0  0  0
  5  6  1  0  0  0  0
  6  7  1  0  0  0  0
  7  8  1  0  0  0  0
  8  9  1  0  0  0  0
M  END
>  <CHROM.1>
154.53705096,-175.61234447,-165.94930470,167.28569626,-162.55700034,27.26358441
14.03816849,19.27830958,-1.41146511,-0.57043100,-2.35170462

>  <Name>
ligand

>  <RI>
0

>  <Rbt.Current_Directory>
/home/itssahil/PROJECTS/Mol_Feturizer/New_Systems/rnas/3DJ2

>  <Rbt.Executable>
rbdock ($Id: //depot/dev/client3/rdock/2013.1/src/exe/rbdock.cxx#4 $)

>  <Rbt.Library>
libRbt.so (2013.1, Build901 2013/11/27)

>  <Rbt.Parameter_File>
/export/apps/rDock/src/rDock_2013.1_src/data/scripts/dock_solv.prm

>  <Rbt.Receptor>
prm/blind_docking_60.prm

>  <SCORE>
-11.3482

>  <SCORE.INTER>
-10.453

>  <SCORE.INTER.CONST>
1

>  <SCORE.INTER.POLAR>
0

>  <SCORE.INTER.ROT>
5

>  <SCORE.INTER.SOLV>
14.967

>  <SCORE.INTER.VDW>
-18.891

>  <SCORE.INTER.norm>
-1.0453

>  <SCORE.INTRA>
-0.895225

>  <SCORE.INTRA.DIHEDRAL>
-0.223615

>  <SCORE.INTRA.DIHEDRAL.0>
4.28128

>  <SCORE.INTRA.POLAR>
0

>  <SCORE.INTRA.POLAR.0>
0

>  <SCORE.INTRA.REPUL>
0

>  <SCORE.INTRA.REPUL.0>
0

>  <SCORE.INTRA.SOLV>
-1.31078

>  <SCORE.INTRA.SOLV.lig_0>
-32.3374

>  <SCORE.INTRA.VDW>
-0.128026

>  <SCORE.INTRA.VDW.0>
-0.659551

>  <SCORE.INTRA.norm>
-0.0895225

>  <SCORE.RESTR>
0

>  <SCORE.RESTR.CAVITY>
0

>  <SCORE.RESTR.norm>
0

>  <SCORE.SYSTEM>
0

>  <SCORE.SYSTEM.CONST>
0

>  <SCORE.SYSTEM.DIHEDRAL>
0

>  <SCORE.SYSTEM.SOLV>
0

>  <SCORE.SYSTEM.norm>
0

>  <SCORE.heavy>
10

>  <SCORE.norm>
-1.13482

>  <RMSD>
5.269

$$$$
ligand
 OpenBabel11021811473D
libRbt.so/2013.1/901 2013/11/27
 10  9  0  0  0  0  0  0  0  0999 V2000
   29.1096   16.3835   20.2602 N   0  0  0  0  0  0  0  0  0  0  0  0
   27.9085   15.6975   19.7070 C   0  0  2  0  0  0  0  0  0  0  0  0
   26.9381   15.2599   20.8043 C   0  0  0  0  0  0  0  0  0  0  0  0
   27.3171   15.0248   21.9562 O   0  0  0  0  0  0  0  0  0  0  0  0
   28.3156   14.5137   18.8257 C   0  0  0  0  0  0  0  0  0  0  0  0
   27.1477   13.8030   18.1545 C   0  0  0  0  0  0  0  0  0  0  0  0
   27.5779   12.4493   17.5901 C   0  0  0  0  0  0  0  0  0  0  0  0
   26.3794   11.5950   17.1924 C   0  0  0  0  0  0  0  0  0  0  0  0
   26.7355   10.1601   16.9886 N   0  0  0  0  0  0  0  0  0  0  0  0
   25.7364   15.1531   20.5686 O   0  0  0  0  0  0  0  0  0  0  0  0
  2  1  1  1  0  0  0
  2  3  1  0  0  0  0
  2  5  1  0  0  0  0
  3  4  1  0  0  0  0
  3 10  1  0  0  0  0
  5  6  1  0  0  0  0
  6  7  1  0  0  0  0
  7  8  1  0  0  0  0
  8  9  1  0  0  0  0
M  END
>  <CHROM.1>
-26.15328623,-176.69349466,-165.72982705,167.45284438,-164.60340948,27.29551063
14.00449171,19.23602421,-1.40852987,-0.58546705,-2.35644533

>  <Name>
ligand

>  <RI>
0

>  <Rbt.Current_Directory>
/home/itssahil/PROJECTS/Mol_Feturizer/New_Systems/rnas/3DJ2

>  <Rbt.Executable>
rbdock ($Id: //depot/dev/client3/rdock/2013.1/src/exe/rbdock.cxx#4 $)

>  <Rbt.Library>
libRbt.so (2013.1, Build901 2013/11/27)

>  <Rbt.Parameter_File>
/export/apps/rDock/src/rDock_2013.1_src/data/scripts/dock_solv.prm

>  <Rbt.Receptor>
prm/pocket_docking_8.prm

>  <SCORE>
-11.3425

>  <SCORE.INTER>
-10.379

>  <SCORE.INTER.CONST>
1

>  <SCORE.INTER.POLAR>
0

>  <SCORE.INTER.ROT>
5

>  <SCORE.INTER.SOLV>
14.9058

>  <SCORE.INTER.VDW>
-18.8213

>  <SCORE.INTER.norm>
-1.0379

>  <SCORE.INTRA>
-0.963524

>  <SCORE.INTRA.DIHEDRAL>
-0.373538

>  <SCORE.INTRA.DIHEDRAL.0>
4.28128

>  <SCORE.INTRA.POLAR>
0

>  <SCORE.INTRA.POLAR.0>
0

>  <SCORE.INTRA.REPUL>
0

>  <SCORE.INTRA.REPUL.0>
0

>  <SCORE.INTRA.SOLV>
-1.31762

>  <SCORE.INTRA.SOLV.lig_0>
-32.3374

>  <SCORE.INTRA.VDW>
-0.117943

>  <SCORE.INTRA.VDW.0>
-0.659551

>  <SCORE.INTRA.norm>
-0.0963524

>  <SCORE.RESTR>
0

>  <SCORE.RESTR.CAVITY>
0

>  <SCORE.RESTR.norm>
0

>  <SCORE.SYSTEM>
0

>  <SCORE.SYSTEM.CONST>
0

>  <SCORE.SYSTEM.DIHEDRAL>
0

>  <SCORE.SYSTEM.SOLV>
0

>  <SCORE.SYSTEM.norm>
0

>  <SCORE.heavy>
10

>  <SCORE.norm>
-1.13425

>  <RMSD>
5.270

$$$$
ligand
 OpenBabel11021811473D
libRbt.so/2013.1/901 2013/11/27
 10  9  0  0  0  0  0  0  0  0999 V2000
   27.3990   16.1669   19.4793 N   0  0  0  0  0  0  0  0  0  0  0  0
   28.2158   15.0906   20.1067 C   0  0  2  0  0  0  0  0  0  0  0  0
   27.6687   14.6732   21.4718 C   0  0  0  0  0  0  0  0  0  0  0  0
   26.4688   14.7646   21.7506 O   0  0  0  0  0  0  0  0  0  0  0  0
   29.6850   15.5096   20.2054 C   0  0  0  0  0  0  0  0  0  0  0  0
   29.9313   16.7217   21.0940 C   0  0  0  0  0  0  0  0  0  0  0  0
   31.4268   16.9970   21.2476 C   0  0  0  0  0  0  0  0  0  0  0  0
   31.6952   18.1396   22.2207 C   0  0  0  0  0  0  0  0  0  0  0  0
   33.1516   18.3863   22.4337 N   0  0  0  0  0  0  0  0  0  0  0  0
   28.4172   14.2078   22.3286 O   0  0  0  0  0  0  0  0  0  0  0  0
  2  1  1  1  0  0  0
  2  3  1  0  0  0  0
  2  5  1  0  0  0  0
  3  4  1  0  0  0  0
  3 10  1  0  0  0  0
  5  6  1  0  0  0  0
  6  7  1  0  0  0  0
  7  8  1  0  0  0  0
  8  9  1  0  0  0  0
M  END
>  <CHROM.1>
28.54209520,63.01918027,174.64587824,-175.54838286,177.42143375,29.38412729
16.04809663,21.26110896,3.07196474,0.58097723,1.99027584

>  <Name>
ligand

>  <RI>
0

>  <Rbt.Current_Directory>
/home/itssahil/PROJECTS/Mol_Feturizer/New_Systems/rnas/3DJ2

>  <Rbt.Executable>
rbdock ($Id: //depot/dev/client3/rdock/2013.1/src/exe/rbdock.cxx#4 $)

>  <Rbt.Library>
libRbt.so (2013.1, Build901 2013/11/27)

>  <Rbt.Parameter_File>
/export/apps/rDock/src/rDock_2013.1_src/data/scripts/dock_solv.prm

>  <Rbt.Receptor>
prm/pocket_docking_6.prm

>  <SCORE>
-7.88398

>  <SCORE.INTER>
-6.80669

>  <SCORE.INTER.CONST>
1

>  <SCORE.INTER.POLAR>
0

>  <SCORE.INTER.ROT>
5

>  <SCORE.INTER.SOLV>
16.0528

>  <SCORE.INTER.VDW>
-16.8221

>  <SCORE.INTER.norm>
-0.680669

>  <SCORE.INTRA>
-1.07729

>  <SCORE.INTRA.DIHEDRAL>
-2.55035

>  <SCORE.INTRA.DIHEDRAL.0>
4.28128

>  <SCORE.INTRA.POLAR>
0

>  <SCORE.INTRA.POLAR.0>
0

>  <SCORE.INTRA.REPUL>
0

>  <SCORE.INTRA.REPUL.0>
0

>  <SCORE.INTRA.SOLV>
-0.51809

>  <SCORE.INTRA.SOLV.lig_0>
-32.3374

>  <SCORE.INTRA.VDW>
0.45693

>  <SCORE.INTRA.VDW.0>
-0.659551

>  <SCORE.INTRA.norm>
-0.107729

>  <SCORE.RESTR>
0

>  <SCORE.RESTR.CAVITY>
0

>  <SCORE.RESTR.norm>
0

>  <SCORE.SYSTEM>
0

>  <SCORE.SYSTEM.CONST>
0

>  <SCORE.SYSTEM.DIHEDRAL>
0

>  <SCORE.SYSTEM.SOLV>
0

>  <SCORE.SYSTEM.norm>
0

>  <SCORE.heavy>
10

>  <SCORE.norm>
-0.788398

>  <RMSD>
5.275

$$$$
ligand
 OpenBabel11021811473D
libRbt.so/2013.1/901 2013/11/27
 10  9  0  0  0  0  0  0  0  0999 V2000
   25.9221   15.1105   20.7892 N   0  0  0  0  0  0  0  0  0  0  0  0
   27.3380   15.5708   20.7364 C   0  0  2  0  0  0  0  0  0  0  0  0
   27.8295   15.7598   19.3012 C   0  0  0  0  0  0  0  0  0  0  0  0
   28.5017   16.7399   18.9644 O   0  0  0  0  0  0  0  0  0  0  0  0
   28.2500   14.6158   21.5110 C   0  0  0  0  0  0  0  0  0  0  0  0
   29.7334   14.9441   21.4052 C   0  0  0  0  0  0  0  0  0  0  0  0
   30.0515   16.2785   22.0792 C   0  0  0  0  0  0  0  0  0  0  0  0
   31.5299   16.6327   21.9641 C   0  0  0  0  0  0  0  0  0  0  0  0
   31.8481   17.9746   22.5345 N   0  0  0  0  0  0  0  0  0  0  0  0
   27.5839   14.9166   18.4411 O   0  0  0  0  0  0  0  0  0  0  0  0
  2  1  1  6  0  0  0
  2  3  1  0  0  0  0
  2  5  1  0  0  0  0
  3  4  1  0  0  0  0
  3 10  1  0  0  0  0
  5  6  1  0  0  0  0
  6  7  1  0  0  0  0
  7  8  1  0  0  0  0
  8  9  1  0  0  0  0
M  END
>  <CHROM.1>
136.75476679,174.85015826,66.03884226,-179.13971452,176.14268780,28.86154153
15.85678762,20.73576742,2.77618334,-0.53801145,-1.23259748

>  <Name>
ligand

>  <RI>
0

>  <Rbt.Current_Directory>
/home/itssahil/PROJECTS/Mol_Feturizer/New_Systems/rnas/3DJ2

>  <Rbt.Executable>
rbdock ($Id: //depot/dev/client3/rdock/2013.1/src/exe/rbdock.cxx#4 $)

>  <Rbt.Library>
libRbt.so (2013.1, Build901 2013/11/27)

>  <Rbt.Parameter_File>
/export/apps/rDock/src/rDock_2013.1_src/data/scripts/dock_solv.prm

>  <Rbt.Receptor>
prm/pocket_docking_7.prm

>  <SCORE>
-9.28872

>  <SCORE.INTER>
-7.60666

>  <SCORE.INTER.CONST>
1

>  <SCORE.INTER.POLAR>
0

>  <SCORE.INTER.ROT>
5

>  <SCORE.INTER.SOLV>
18.663

>  <SCORE.INTER.VDW>
-18.2254

>  <SCORE.INTER.norm>
-0.760666

>  <SCORE.INTRA>
-1.68206

>  <SCORE.INTRA.DIHEDRAL>
-2.46468

>  <SCORE.INTRA.DIHEDRAL.0>
4.28128

>  <SCORE.INTRA.POLAR>
0

>  <SCORE.INTRA.POLAR.0>
0

>  <SCORE.INTRA.REPUL>
0

>  <SCORE.INTRA.REPUL.0>
0

>  <SCORE.INTRA.SOLV>
-1.14664

>  <SCORE.INTRA.SOLV.lig_0>
-32.3374

>  <SCORE.INTRA.VDW>
0.123599

>  <SCORE.INTRA.VDW.0>
-0.659551

>  <SCORE.INTRA.norm>
-0.168206

>  <SCORE.RESTR>
0

>  <SCORE.RESTR.CAVITY>
0

>  <SCORE.RESTR.norm>
0

>  <SCORE.SYSTEM>
0

>  <SCORE.SYSTEM.CONST>
0

>  <SCORE.SYSTEM.DIHEDRAL>
0

>  <SCORE.SYSTEM.SOLV>
0

>  <SCORE.SYSTEM.norm>
0

>  <SCORE.heavy>
10

>  <SCORE.norm>
-0.928872

>  <RMSD>
5.277

$$$$
ligand
 OpenBabel11021811473D
libRbt.so/2013.1/901 2013/11/27
 10  9  0  0  0  0  0  0  0  0999 V2000
   25.9580   15.1171   20.8075 N   0  0  0  0  0  0  0  0  0  0  0  0
   27.3794   15.5545   20.7193 C   0  0  2  0  0  0  0  0  0  0  0  0
   27.8409   15.7263   19.2720 C   0  0  0  0  0  0  0  0  0  0  0  0
   27.6015   14.8796   18.4050 O   0  0  0  0  0  0  0  0  0  0  0  0
   28.2937   14.5903   21.4796 C   0  0  0  0  0  0  0  0  0  0  0  0
   29.7787   14.9008   21.3468 C   0  0  0  0  0  0  0  0  0  0  0  0
   30.1272   16.2249   22.0261 C   0  0  0  0  0  0  0  0  0  0  0  0
   31.6021   16.5746   21.8619 C   0  0  0  0  0  0  0  0  0  0  0  0
   31.9488   17.9034   22.4461 N   0  0  0  0  0  0  0  0  0  0  0  0
   28.4493   16.7369   18.9266 O   0  0  0  0  0  0  0  0  0  0  0  0
  2  1  1  6  0  0  0
  2  3  1  0  0  0  0
  2  5  1  0  0  0  0
  3  4  1  0  0  0  0
  3 10  1  0  0  0  0
  5  6  1  0  0  0  0
  6  7  1  0  0  0  0
  7  8  1  0  0  0  0
  8  9  1  0  0  0  0
M  END
>  <CHROM.1>
-46.20255789,175.31349545,66.67869811,-178.06926534,176.53607833,28.89950265
15.82353905,20.69203577,2.79000282,-0.52296273,-1.21949199

>  <Name>
ligand

>  <RI>
0

>  <Rbt.Current_Directory>
/home/itssahil/PROJECTS/Mol_Feturizer/New_Systems/rnas/3DJ2

>  <Rbt.Executable>
rbdock ($Id: //depot/dev/client3/rdock/2013.1/src/exe/rbdock.cxx#4 $)

>  <Rbt.Library>
libRbt.so (2013.1, Build901 2013/11/27)

>  <Rbt.Parameter_File>
/export/apps/rDock/src/rDock_2013.1_src/data/scripts/dock_solv.prm

>  <Rbt.Receptor>
prm/pocket_docking_3.prm

>  <SCORE>
-9.24665

>  <SCORE.INTER>
-7.56078

>  <SCORE.INTER.CONST>
1

>  <SCORE.INTER.POLAR>
0

>  <SCORE.INTER.ROT>
5

>  <SCORE.INTER.SOLV>
18.2989

>  <SCORE.INTER.VDW>
-18.0735

>  <SCORE.INTER.norm>
-0.756078

>  <SCORE.INTRA>
-1.68587

>  <SCORE.INTRA.DIHEDRAL>
-2.38405

>  <SCORE.INTRA.DIHEDRAL.0>
4.28128

>  <SCORE.INTRA.POLAR>
0

>  <SCORE.INTRA.POLAR.0>
0

>  <SCORE.INTRA.REPUL>
0

>  <SCORE.INTRA.REPUL.0>
0

>  <SCORE.INTRA.SOLV>
-1.1465

>  <SCORE.INTRA.SOLV.lig_0>
-32.3374

>  <SCORE.INTRA.VDW>
0.0794041

>  <SCORE.INTRA.VDW.0>
-0.659551

>  <SCORE.INTRA.norm>
-0.168587

>  <SCORE.RESTR>
0

>  <SCORE.RESTR.CAVITY>
0

>  <SCORE.RESTR.norm>
0

>  <SCORE.SYSTEM>
0

>  <SCORE.SYSTEM.CONST>
0

>  <SCORE.SYSTEM.DIHEDRAL>
0

>  <SCORE.SYSTEM.SOLV>
0

>  <SCORE.SYSTEM.norm>
0

>  <SCORE.heavy>
10

>  <SCORE.norm>
-0.924665

>  <RMSD>
5.278

$$$$
ligand
 OpenBabel11021811473D
libRbt.so/2013.1/901 2013/11/27
 10  9  0  0  0  0  0  0  0  0999 V2000
   26.3495   14.9338   21.5505 N   0  0  0  0  0  0  0  0  0  0  0  0
   27.6747   15.5075   21.1846 C   0  0  2  0  0  0  0  0  0  0  0  0
   27.7600   15.8602   19.6995 C   0  0  0  0  0  0  0  0  0  0  0  0
   28.2296   16.9339   19.3087 O   0  0  0  0  0  0  0  0  0  0  0  0
   28.8083   14.5634   21.5938 C   0  0  0  0  0  0  0  0  0  0  0  0
   30.1977   15.0466   21.1997 C   0  0  0  0  0  0  0  0  0  0  0  0
   30.5981   16.2847   22.0016 C   0  0  0  0  0  0  0  0  0  0  0  0
   31.9923   16.7752   21.6274 C   0  0  0  0  0  0  0  0  0  0  0  0
   32.4219   17.9591   22.4280 N   0  0  0  0  0  0  0  0  0  0  0  0
   27.3796   15.0621   18.8455 O   0  0  0  0  0  0  0  0  0  0  0  0
  2  1  1  6  0  0  0
  2  3  1  0  0  0  0
  2  5  1  0  0  0  0
  3  4  1  0  0  0  0
  3 10  1  0  0  0  0
  5  6  1  0  0  0  0
  6  7  1  0  0  0  0
  7  8  1  0  0  0  0
  8  9  1  0  0  0  0
M  END
>  <CHROM.1>
134.52161492,177.42239220,68.38711365,179.52705390,-178.23575293,29.13394795
15.89866411,20.90750641,3.00006305,-0.49494082,-1.01657544

>  <Name>
ligand

>  <RI>
0

>  <Rbt.Current_Directory>
/home/itssahil/PROJECTS/Mol_Feturizer/New_Systems/rnas/3DJ2

>  <Rbt.Executable>
rbdock ($Id: //depot/dev/client3/rdock/2013.1/src/exe/rbdock.cxx#4 $)

>  <Rbt.Library>
libRbt.so (2013.1, Build901 2013/11/27)

>  <Rbt.Parameter_File>
/export/apps/rDock/src/rDock_2013.1_src/data/scripts/dock_solv.prm

>  <Rbt.Receptor>
prm/pocket_docking_8.prm

>  <SCORE>
-9.1148

>  <SCORE.INTER>
-7.34192

>  <SCORE.INTER.CONST>
1

>  <SCORE.INTER.POLAR>
0

>  <SCORE.INTER.ROT>
5

>  <SCORE.INTER.SOLV>
18.8534

>  <SCORE.INTER.VDW>
-18.1124

>  <SCORE.INTER.norm>
-0.734192

>  <SCORE.INTRA>
-1.77288

>  <SCORE.INTRA.DIHEDRAL>
-2.45222

>  <SCORE.INTRA.DIHEDRAL.0>
4.28128

>  <SCORE.INTRA.POLAR>
0

>  <SCORE.INTRA.POLAR.0>
0

>  <SCORE.INTRA.REPUL>
0

>  <SCORE.INTRA.REPUL.0>
0

>  <SCORE.INTRA.SOLV>
-1.15086

>  <SCORE.INTRA.SOLV.lig_0>
-32.3374

>  <SCORE.INTRA.VDW>
0.0286624

>  <SCORE.INTRA.VDW.0>
-0.659551

>  <SCORE.INTRA.norm>
-0.177288

>  <SCORE.RESTR>
0

>  <SCORE.RESTR.CAVITY>
0

>  <SCORE.RESTR.norm>
0

>  <SCORE.SYSTEM>
0

>  <SCORE.SYSTEM.CONST>
0

>  <SCORE.SYSTEM.DIHEDRAL>
0

>  <SCORE.SYSTEM.SOLV>
0

>  <SCORE.SYSTEM.norm>
0

>  <SCORE.heavy>
10

>  <SCORE.norm>
-0.91148

>  <RMSD>
5.279

$$$$
ligand
 OpenBabel11021811473D
libRbt.so/2013.1/901 2013/11/27
 10  9  0  0  0  0  0  0  0  0999 V2000
   29.1165   16.3757   20.2471 N   0  0  0  0  0  0  0  0  0  0  0  0
   27.9146   15.7053   19.6766 C   0  0  2  0  0  0  0  0  0  0  0  0
   26.9214   15.2835   20.7596 C   0  0  0  0  0  0  0  0  0  0  0  0
   27.2818   15.0278   21.9130 O   0  0  0  0  0  0  0  0  0  0  0  0
   28.3186   14.5142   18.8038 C   0  0  0  0  0  0  0  0  0  0  0  0
   27.1488   13.8004   18.1394 C   0  0  0  0  0  0  0  0  0  0  0  0
   27.5781   12.4458   17.5766 C   0  0  0  0  0  0  0  0  0  0  0  0
   26.3790   11.5893   17.1856 C   0  0  0  0  0  0  0  0  0  0  0  0
   26.7387   10.1573   16.9684 N   0  0  0  0  0  0  0  0  0  0  0  0
   25.7199   15.2108   20.5105 O   0  0  0  0  0  0  0  0  0  0  0  0
  2  1  1  1  0  0  0
  2  3  1  0  0  0  0
  2  5  1  0  0  0  0
  3  4  1  0  0  0  0
  3 10  1  0  0  0  0
  5  6  1  0  0  0  0
  6  7  1  0  0  0  0
  7  8  1  0  0  0  0
  8  9  1  0  0  0  0
M  END
>  <CHROM.1>
-27.16250920,-177.91892869,-166.10525818,167.47853668,-165.27429172,27.29016034
14.01193816,19.20893690,-1.41437988,-0.56383985,-2.36835932

>  <Name>
ligand

>  <RI>
0

>  <Rbt.Current_Directory>
/home/itssahil/PROJECTS/Mol_Feturizer/New_Systems/rnas/3DJ2

>  <Rbt.Executable>
rbdock ($Id: //depot/dev/client3/rdock/2013.1/src/exe/rbdock.cxx#4 $)

>  <Rbt.Library>
libRbt.so (2013.1, Build901 2013/11/27)

>  <Rbt.Parameter_File>
/export/apps/rDock/src/rDock_2013.1_src/data/scripts/dock_solv.prm

>  <Rbt.Receptor>
prm/blind_docking_60.prm

>  <SCORE>
-11.3237

>  <SCORE.INTER>
-10.3111

>  <SCORE.INTER.CONST>
1

>  <SCORE.INTER.POLAR>
0

>  <SCORE.INTER.ROT>
5

>  <SCORE.INTER.SOLV>
14.9024

>  <SCORE.INTER.VDW>
-18.7749

>  <SCORE.INTER.norm>
-1.03111

>  <SCORE.INTRA>
-1.01256

>  <SCORE.INTRA.DIHEDRAL>
-0.507562

>  <SCORE.INTRA.DIHEDRAL.0>
4.28128

>  <SCORE.INTRA.POLAR>
0

>  <SCORE.INTRA.POLAR.0>
0

>  <SCORE.INTRA.REPUL>
0

>  <SCORE.INTRA.REPUL.0>
0

>  <SCORE.INTRA.SOLV>
-1.31974

>  <SCORE.INTRA.SOLV.lig_0>
-32.3374

>  <SCORE.INTRA.VDW>
-0.0989114

>  <SCORE.INTRA.VDW.0>
-0.659551

>  <SCORE.INTRA.norm>
-0.101256

>  <SCORE.RESTR>
0

>  <SCORE.RESTR.CAVITY>
0

>  <SCORE.RESTR.norm>
0

>  <SCORE.SYSTEM>
0

>  <SCORE.SYSTEM.CONST>
0

>  <SCORE.SYSTEM.DIHEDRAL>
0

>  <SCORE.SYSTEM.SOLV>
0

>  <SCORE.SYSTEM.norm>
0

>  <SCORE.heavy>
10

>  <SCORE.norm>
-1.13237

>  <RMSD>
5.282

$$$$
ligand
 OpenBabel11021811473D
libRbt.so/2013.1/901 2013/11/27
 10  9  0  0  0  0  0  0  0  0999 V2000
   29.0880   16.3805   20.3092 N   0  0  0  0  0  0  0  0  0  0  0  0
   27.8919   15.7062   19.7312 C   0  0  2  0  0  0  0  0  0  0  0  0
   26.8885   15.2904   20.8070 C   0  0  0  0  0  0  0  0  0  0  0  0
   25.6837   15.1665   20.5640 O   0  0  0  0  0  0  0  0  0  0  0  0
   28.3047   14.5102   18.8694 C   0  0  0  0  0  0  0  0  0  0  0  0
   27.1500   13.8372   18.1391 C   0  0  0  0  0  0  0  0  0  0  0  0
   27.5636   12.4691   17.5975 C   0  0  0  0  0  0  0  0  0  0  0  0
   26.3572   11.6421   17.1674 C   0  0  0  0  0  0  0  0  0  0  0  0
   26.6848   10.1985   16.9782 N   0  0  0  0  0  0  0  0  0  0  0  0
   27.2658   15.0427   21.9503 O   0  0  0  0  0  0  0  0  0  0  0  0
  2  1  1  1  0  0  0
  2  3  1  0  0  0  0
  2  5  1  0  0  0  0
  3  4  1  0  0  0  0
  3 10  1  0  0  0  0
  5  6  1  0  0  0  0
  6  7  1  0  0  0  0
  7  8  1  0  0  0  0
  8  9  1  0  0  0  0
M  END
>  <CHROM.1>
153.81097694,-174.83854006,-165.59640476,166.19832968,-164.86891089,27.26632620
14.02465842,19.24218144,-1.41219077,-0.55890622,-2.35539447

>  <Name>
ligand

>  <RI>
0

>  <Rbt.Current_Directory>
/home/itssahil/PROJECTS/Mol_Feturizer/New_Systems/rnas/3DJ2

>  <Rbt.Executable>
rbdock ($Id: //depot/dev/client3/rdock/2013.1/src/exe/rbdock.cxx#4 $)

>  <Rbt.Library>
libRbt.so (2013.1, Build901 2013/11/27)

>  <Rbt.Parameter_File>
/export/apps/rDock/src/rDock_2013.1_src/data/scripts/dock_solv.prm

>  <Rbt.Receptor>
prm/pocket_docking_6.prm

>  <SCORE>
-11.4288

>  <SCORE.INTER>
-10.4672

>  <SCORE.INTER.CONST>
1

>  <SCORE.INTER.POLAR>
0

>  <SCORE.INTER.ROT>
5

>  <SCORE.INTER.SOLV>
14.9378

>  <SCORE.INTER.VDW>
-18.8908

>  <SCORE.INTER.norm>
-1.04672

>  <SCORE.INTRA>
-0.961548

>  <SCORE.INTRA.DIHEDRAL>
-0.298921

>  <SCORE.INTRA.DIHEDRAL.0>
4.28128

>  <SCORE.INTRA.POLAR>
0

>  <SCORE.INTRA.POLAR.0>
0

>  <SCORE.INTRA.REPUL>
0

>  <SCORE.INTRA.REPUL.0>
0

>  <SCORE.INTRA.SOLV>
-1.31544

>  <SCORE.INTRA.SOLV.lig_0>
-32.3374

>  <SCORE.INTRA.VDW>
-0.154367

>  <SCORE.INTRA.VDW.0>
-0.659551

>  <SCORE.INTRA.norm>
-0.0961548

>  <SCORE.RESTR>
0

>  <SCORE.RESTR.CAVITY>
0

>  <SCORE.RESTR.norm>
0

>  <SCORE.SYSTEM>
0

>  <SCORE.SYSTEM.CONST>
0

>  <SCORE.SYSTEM.DIHEDRAL>
0

>  <SCORE.SYSTEM.SOLV>
0

>  <SCORE.SYSTEM.norm>
0

>  <SCORE.heavy>
10

>  <SCORE.norm>
-1.14288

>  <RMSD>
5.282

$$$$
ligand
 OpenBabel11021811473D
libRbt.so/2013.1/901 2013/11/27
 10  9  0  0  0  0  0  0  0  0999 V2000
   27.7594   14.0474   18.5277 N   0  0  0  0  0  0  0  0  0  0  0  0
   27.9182   14.6420   19.8844 C   0  0  2  0  0  0  0  0  0  0  0  0
   26.5718   14.9342   20.5470 C   0  0  0  0  0  0  0  0  0  0  0  0
   26.3297   14.5983   21.7108 O   0  0  0  0  0  0  0  0  0  0  0  0
   28.7905   15.8989   19.8291 C   0  0  0  0  0  0  0  0  0  0  0  0
   29.0132   16.5657   21.1801 C   0  0  0  0  0  0  0  0  0  0  0  0
   29.8756   15.6915   22.0901 C   0  0  0  0  0  0  0  0  0  0  0  0
   31.3633   15.9512   21.8807 C   0  0  0  0  0  0  0  0  0  0  0  0
   31.8118   15.6493   20.4896 N   0  0  0  0  0  0  0  0  0  0  0  0
   25.6939   15.5401   19.9361 O   0  0  0  0  0  0  0  0  0  0  0  0
  2  1  1  6  0  0  0
  2  3  1  0  0  0  0
  2  5  1  0  0  0  0
  3  4  1  0  0  0  0
  3 10  1  0  0  0  0
  5  6  1  0  0  0  0
  6  7  1  0  0  0  0
  7  8  1  0  0  0  0
  8  9  1  0  0  0  0
M  END
>  <CHROM.1>
132.31408947,-179.55247767,68.08104570,87.46015703,-61.13923952,28.47441577
15.35513704,20.61992979,-2.85664070,0.13068848,1.25913434

>  <Name>
ligand

>  <RI>
0

>  <Rbt.Current_Directory>
/home/itssahil/PROJECTS/Mol_Feturizer/New_Systems/rnas/3DJ2

>  <Rbt.Executable>
rbdock ($Id: //depot/dev/client3/rdock/2013.1/src/exe/rbdock.cxx#4 $)

>  <Rbt.Library>
libRbt.so (2013.1, Build901 2013/11/27)

>  <Rbt.Parameter_File>
/export/apps/rDock/src/rDock_2013.1_src/data/scripts/dock_solv.prm

>  <Rbt.Receptor>
prm/pocket_docking_3.prm

>  <SCORE>
-7.47908

>  <SCORE.INTER>
-8.42912

>  <SCORE.INTER.CONST>
1

>  <SCORE.INTER.POLAR>
0

>  <SCORE.INTER.ROT>
5

>  <SCORE.INTER.SOLV>
15.4191

>  <SCORE.INTER.VDW>
-17.6925

>  <SCORE.INTER.norm>
-0.842912

>  <SCORE.INTRA>
0.950046

>  <SCORE.INTRA.DIHEDRAL>
0.145157

>  <SCORE.INTRA.DIHEDRAL.0>
4.28128

>  <SCORE.INTRA.POLAR>
0

>  <SCORE.INTRA.POLAR.0>
0

>  <SCORE.INTRA.REPUL>
0

>  <SCORE.INTRA.REPUL.0>
0

>  <SCORE.INTRA.SOLV>
1.21784

>  <SCORE.INTRA.SOLV.lig_0>
-32.3374

>  <SCORE.INTRA.VDW>
0.268548

>  <SCORE.INTRA.VDW.0>
-0.659551

>  <SCORE.INTRA.norm>
0.0950046

>  <SCORE.RESTR>
0

>  <SCORE.RESTR.CAVITY>
0

>  <SCORE.RESTR.norm>
0

>  <SCORE.SYSTEM>
0

>  <SCORE.SYSTEM.CONST>
0

>  <SCORE.SYSTEM.DIHEDRAL>
0

>  <SCORE.SYSTEM.SOLV>
0

>  <SCORE.SYSTEM.norm>
0

>  <SCORE.heavy>
10

>  <SCORE.norm>
-0.747908

>  <RMSD>
5.283

$$$$
ligand
 OpenBabel11021811473D
libRbt.so/2013.1/901 2013/11/27
 10  9  0  0  0  0  0  0  0  0999 V2000
   29.0979   16.3510   20.3276 N   0  0  0  0  0  0  0  0  0  0  0  0
   27.8987   15.6829   19.7492 C   0  0  2  0  0  0  0  0  0  0  0  0
   26.8967   15.2643   20.8253 C   0  0  0  0  0  0  0  0  0  0  0  0
   27.2423   15.0486   21.9915 O   0  0  0  0  0  0  0  0  0  0  0  0
   28.3062   14.4900   18.8804 C   0  0  0  0  0  0  0  0  0  0  0  0
   27.1466   13.8172   18.1581 C   0  0  0  0  0  0  0  0  0  0  0  0
   27.5611   12.4563   17.5992 C   0  0  0  0  0  0  0  0  0  0  0  0
   26.3537   11.6228   17.1846 C   0  0  0  0  0  0  0  0  0  0  0  0
   26.6824   10.1775   17.0100 N   0  0  0  0  0  0  0  0  0  0  0  0
   25.7022   15.1541   20.5571 O   0  0  0  0  0  0  0  0  0  0  0  0
  2  1  1  1  0  0  0
  2  3  1  0  0  0  0
  2  5  1  0  0  0  0
  3  4  1  0  0  0  0
  3 10  1  0  0  0  0
  5  6  1  0  0  0  0
  6  7  1  0  0  0  0
  7  8  1  0  0  0  0
  8  9  1  0  0  0  0
M  END
>  <CHROM.1>
-24.90111510,-175.28124788,-166.05630394,165.82728700,-163.53128175,27.26703564
14.00735282,19.25912398,-1.41127701,-0.56133614,-2.35383768

>  <Name>
ligand

>  <RI>
0

>  <Rbt.Current_Directory>
/home/itssahil/PROJECTS/Mol_Feturizer/New_Systems/rnas/3DJ2

>  <Rbt.Executable>
rbdock ($Id: //depot/dev/client3/rdock/2013.1/src/exe/rbdock.cxx#4 $)

>  <Rbt.Library>
libRbt.so (2013.1, Build901 2013/11/27)

>  <Rbt.Parameter_File>
/export/apps/rDock/src/rDock_2013.1_src/data/scripts/dock_solv.prm

>  <Rbt.Receptor>
prm/pocket_docking_7.prm

>  <SCORE>
-11.4206

>  <SCORE.INTER>
-10.5834

>  <SCORE.INTER.CONST>
1

>  <SCORE.INTER.POLAR>
0

>  <SCORE.INTER.ROT>
5

>  <SCORE.INTER.SOLV>
14.7087

>  <SCORE.INTER.VDW>
-18.8918

>  <SCORE.INTER.norm>
-1.05834

>  <SCORE.INTRA>
-0.837218

>  <SCORE.INTRA.DIHEDRAL>
-0.0864696

>  <SCORE.INTRA.DIHEDRAL.0>
4.28128

>  <SCORE.INTRA.POLAR>
0

>  <SCORE.INTRA.POLAR.0>
0

>  <SCORE.INTRA.REPUL>
0

>  <SCORE.INTRA.REPUL.0>
0

>  <SCORE.INTRA.SOLV>
-1.31428

>  <SCORE.INTRA.SOLV.lig_0>
-32.3374

>  <SCORE.INTRA.VDW>
-0.136845

>  <SCORE.INTRA.VDW.0>
-0.659551

>  <SCORE.INTRA.norm>
-0.0837218

>  <SCORE.RESTR>
0

>  <SCORE.RESTR.CAVITY>
0

>  <SCORE.RESTR.norm>
0

>  <SCORE.SYSTEM>
0

>  <SCORE.SYSTEM.CONST>
0

>  <SCORE.SYSTEM.DIHEDRAL>
0

>  <SCORE.SYSTEM.SOLV>
0

>  <SCORE.SYSTEM.norm>
0

>  <SCORE.heavy>
10

>  <SCORE.norm>
-1.14206

>  <RMSD>
5.283

$$$$
ligand
 OpenBabel11021811473D
libRbt.so/2013.1/901 2013/11/27
 10  9  0  0  0  0  0  0  0  0999 V2000
   29.2927   15.5472   19.6922 N   0  0  0  0  0  0  0  0  0  0  0  0
   27.8041   15.5021   19.6588 C   0  0  2  0  0  0  0  0  0  0  0  0
   27.2187   14.8550   20.9142 C   0  0  0  0  0  0  0  0  0  0  0  0
   27.9368   14.3838   21.8019 O   0  0  0  0  0  0  0  0  0  0  0  0
   27.3091   14.7980   18.3928 C   0  0  0  0  0  0  0  0  0  0  0  0
   27.9169   13.4203   18.1651 C   0  0  0  0  0  0  0  0  0  0  0  0
   26.9278   12.4916   17.4614 C   0  0  0  0  0  0  0  0  0  0  0  0
   27.4898   11.0836   17.2998 C   0  0  0  0  0  0  0  0  0  0  0  0
   26.4327   10.0690   17.0162 N   0  0  0  0  0  0  0  0  0  0  0  0
   26.0020   14.8090   21.0833 O   0  0  0  0  0  0  0  0  0  0  0  0
  2  1  1  1  0  0  0
  2  3  1  0  0  0  0
  2  5  1  0  0  0  0
  3  4  1  0  0  0  0
  3 10  1  0  0  0  0
  5  6  1  0  0  0  0
  6  7  1  0  0  0  0
  7  8  1  0  0  0  0
  8  9  1  0  0  0  0
M  END
>  <CHROM.1>
-2.96210835,52.89832784,148.02357912,-176.61021709,162.21991912,27.42039283
13.69194090,19.18406640,-1.37887658,-0.84145599,-2.27016961

>  <Name>
ligand

>  <RI>
0

>  <Rbt.Current_Directory>
/home/itssahil/PROJECTS/Mol_Feturizer/New_Systems/rnas/3DJ2

>  <Rbt.Executable>
rbdock ($Id: //depot/dev/client3/rdock/2013.1/src/exe/rbdock.cxx#4 $)

>  <Rbt.Library>
libRbt.so (2013.1, Build901 2013/11/27)

>  <Rbt.Parameter_File>
/export/apps/rDock/src/rDock_2013.1_src/data/scripts/dock_solv.prm

>  <Rbt.Receptor>
prm/blind_docking_40.prm

>  <SCORE>
-9.61473

>  <SCORE.INTER>
-10.3785

>  <SCORE.INTER.CONST>
1

>  <SCORE.INTER.POLAR>
0

>  <SCORE.INTER.ROT>
5

>  <SCORE.INTER.SOLV>
13.8954

>  <SCORE.INTER.VDW>
-18.4842

>  <SCORE.INTER.norm>
-1.03785

>  <SCORE.INTRA>
0.763812

>  <SCORE.INTRA.DIHEDRAL>
2.00365

>  <SCORE.INTRA.DIHEDRAL.0>
4.28128

>  <SCORE.INTRA.POLAR>
0

>  <SCORE.INTRA.POLAR.0>
0

>  <SCORE.INTRA.REPUL>
0

>  <SCORE.INTRA.REPUL.0>
0

>  <SCORE.INTRA.SOLV>
-0.395897

>  <SCORE.INTRA.SOLV.lig_0>
-32.3374

>  <SCORE.INTRA.VDW>
-0.040063

>  <SCORE.INTRA.VDW.0>
-0.659551

>  <SCORE.INTRA.norm>
0.0763812

>  <SCORE.RESTR>
0

>  <SCORE.RESTR.CAVITY>
0

>  <SCORE.RESTR.norm>
0

>  <SCORE.SYSTEM>
0

>  <SCORE.SYSTEM.CONST>
0

>  <SCORE.SYSTEM.DIHEDRAL>
0

>  <SCORE.SYSTEM.SOLV>
0

>  <SCORE.SYSTEM.norm>
0

>  <SCORE.heavy>
10

>  <SCORE.norm>
-0.961473

>  <RMSD>
5.284

$$$$
ligand
 OpenBabel11021811473D
libRbt.so/2013.1/901 2013/11/27
 10  9  0  0  0  0  0  0  0  0999 V2000
   25.9597   15.0914   20.8930 N   0  0  0  0  0  0  0  0  0  0  0  0
   27.3729   15.5488   20.7793 C   0  0  2  0  0  0  0  0  0  0  0  0
   27.7949   15.7610   19.3253 C   0  0  0  0  0  0  0  0  0  0  0  0
   28.4620   16.7397   18.9747 O   0  0  0  0  0  0  0  0  0  0  0  0
   28.3182   14.5783   21.4924 C   0  0  0  0  0  0  0  0  0  0  0  0
   29.7958   14.9038   21.3194 C   0  0  0  0  0  0  0  0  0  0  0  0
   30.1461   16.2388   21.9760 C   0  0  0  0  0  0  0  0  0  0  0  0
   31.6272   16.5699   21.8307 C   0  0  0  0  0  0  0  0  0  0  0  0
   31.9840   17.8923   22.4235 N   0  0  0  0  0  0  0  0  0  0  0  0
   27.4962   14.9384   18.4622 O   0  0  0  0  0  0  0  0  0  0  0  0
  2  1  1  6  0  0  0
  2  3  1  0  0  0  0
  2  5  1  0  0  0  0
  3  4  1  0  0  0  0
  3 10  1  0  0  0  0
  5  6  1  0  0  0  0
  6  7  1  0  0  0  0
  7  8  1  0  0  0  0
  8  9  1  0  0  0  0
M  END
>  <CHROM.1>
137.31461704,174.80750054,64.95786116,179.12049502,178.01590904,28.89666008
15.82933772,20.71075019,2.82307850,-0.51564038,-1.19396055

>  <Name>
ligand

>  <RI>
0

>  <Rbt.Current_Directory>
/home/itssahil/PROJECTS/Mol_Feturizer/New_Systems/rnas/3DJ2

>  <Rbt.Executable>
rbdock ($Id: //depot/dev/client3/rdock/2013.1/src/exe/rbdock.cxx#4 $)

>  <Rbt.Library>
libRbt.so (2013.1, Build901 2013/11/27)

>  <Rbt.Parameter_File>
/export/apps/rDock/src/rDock_2013.1_src/data/scripts/dock_solv.prm

>  <Rbt.Receptor>
prm/blind_docking_60.prm

>  <SCORE>
-9.22961

>  <SCORE.INTER>
-7.53158

>  <SCORE.INTER.CONST>
1

>  <SCORE.INTER.POLAR>
0

>  <SCORE.INTER.ROT>
5

>  <SCORE.INTER.SOLV>
18.3869

>  <SCORE.INTER.VDW>
-18.0834

>  <SCORE.INTER.norm>
-0.753158

>  <SCORE.INTRA>
-1.69803

>  <SCORE.INTRA.DIHEDRAL>
-2.5541

>  <SCORE.INTRA.DIHEDRAL.0>
4.28128

>  <SCORE.INTRA.POLAR>
0

>  <SCORE.INTRA.POLAR.0>
0

>  <SCORE.INTRA.REPUL>
0

>  <SCORE.INTRA.REPUL.0>
0

>  <SCORE.INTRA.SOLV>
-1.14164

>  <SCORE.INTRA.SOLV.lig_0>
-32.3374

>  <SCORE.INTRA.VDW>
0.149839

>  <SCORE.INTRA.VDW.0>
-0.659551

>  <SCORE.INTRA.norm>
-0.169803

>  <SCORE.RESTR>
0

>  <SCORE.RESTR.CAVITY>
0

>  <SCORE.RESTR.norm>
0

>  <SCORE.SYSTEM>
0

>  <SCORE.SYSTEM.CONST>
0

>  <SCORE.SYSTEM.DIHEDRAL>
0

>  <SCORE.SYSTEM.SOLV>
0

>  <SCORE.SYSTEM.norm>
0

>  <SCORE.heavy>
10

>  <SCORE.norm>
-0.922961

>  <RMSD>
5.286

$$$$
ligand
 OpenBabel11021811473D
libRbt.so/2013.1/901 2013/11/27
 10  9  0  0  0  0  0  0  0  0999 V2000
   29.0808   16.3773   20.3119 N   0  0  0  0  0  0  0  0  0  0  0  0
   27.8847   15.7039   19.7329 C   0  0  2  0  0  0  0  0  0  0  0  0
   26.8903   15.2691   20.8097 C   0  0  0  0  0  0  0  0  0  0  0  0
   27.2452   15.0294   21.9683 O   0  0  0  0  0  0  0  0  0  0  0  0
   28.2984   14.5211   18.8534 C   0  0  0  0  0  0  0  0  0  0  0  0
   27.1375   13.8235   18.1570 C   0  0  0  0  0  0  0  0  0  0  0  0
   27.5655   12.4665   17.5987 C   0  0  0  0  0  0  0  0  0  0  0  0
   26.3670   11.6254   17.1740 C   0  0  0  0  0  0  0  0  0  0  0  0
   26.7164   10.1908   16.9569 N   0  0  0  0  0  0  0  0  0  0  0  0
   25.6930   15.1692   20.5500 O   0  0  0  0  0  0  0  0  0  0  0  0
  2  1  1  1  0  0  0
  2  3  1  0  0  0  0
  2  5  1  0  0  0  0
  3  4  1  0  0  0  0
  3 10  1  0  0  0  0
  5  6  1  0  0  0  0
  6  7  1  0  0  0  0
  7  8  1  0  0  0  0
  8  9  1  0  0  0  0
M  END
>  <CHROM.1>
-25.91626543,-176.69133823,-165.50496302,167.48673160,-165.36829460,27.26623443
14.01814633,19.24215643,-1.41698406,-0.56564089,-2.35611218

>  <Name>
ligand

>  <RI>
0

>  <Rbt.Current_Directory>
/home/itssahil/PROJECTS/Mol_Feturizer/New_Systems/rnas/3DJ2

>  <Rbt.Executable>
rbdock ($Id: //depot/dev/client3/rdock/2013.1/src/exe/rbdock.cxx#4 $)

>  <Rbt.Library>
libRbt.so (2013.1, Build901 2013/11/27)

>  <Rbt.Parameter_File>
/export/apps/rDock/src/rDock_2013.1_src/data/scripts/dock_solv.prm

>  <Rbt.Receptor>
prm/blind_docking_100.prm

>  <SCORE>
-11.3837

>  <SCORE.INTER>
-10.3935

>  <SCORE.INTER.CONST>
1

>  <SCORE.INTER.POLAR>
0

>  <SCORE.INTER.ROT>
5

>  <SCORE.INTER.SOLV>
15.0389

>  <SCORE.INTER.VDW>
-18.8753

>  <SCORE.INTER.norm>
-1.03935

>  <SCORE.INTRA>
-0.990172

>  <SCORE.INTRA.DIHEDRAL>
-0.430454

>  <SCORE.INTRA.DIHEDRAL.0>
4.28128

>  <SCORE.INTRA.POLAR>
0

>  <SCORE.INTRA.POLAR.0>
0

>  <SCORE.INTRA.REPUL>
0

>  <SCORE.INTRA.REPUL.0>
0

>  <SCORE.INTRA.SOLV>
-1.31902

>  <SCORE.INTRA.SOLV.lig_0>
-32.3374

>  <SCORE.INTRA.VDW>
-0.115434

>  <SCORE.INTRA.VDW.0>
-0.659551

>  <SCORE.INTRA.norm>
-0.0990172

>  <SCORE.RESTR>
0

>  <SCORE.RESTR.CAVITY>
0

>  <SCORE.RESTR.norm>
0

>  <SCORE.SYSTEM>
0

>  <SCORE.SYSTEM.CONST>
0

>  <SCORE.SYSTEM.DIHEDRAL>
0

>  <SCORE.SYSTEM.SOLV>
0

>  <SCORE.SYSTEM.norm>
0

>  <SCORE.heavy>
10

>  <SCORE.norm>
-1.13837

>  <RMSD>
5.289

$$$$
ligand
 OpenBabel11021811473D
libRbt.so/2013.1/901 2013/11/27
 10  9  0  0  0  0  0  0  0  0999 V2000
   28.8843   14.6046   19.3074 N   0  0  0  0  0  0  0  0  0  0  0  0
   28.0067   14.3248   20.4783 C   0  0  2  0  0  0  0  0  0  0  0  0
   26.7394   15.1797   20.4661 C   0  0  0  0  0  0  0  0  0  0  0  0
   25.7388   14.8743   21.1229 O   0  0  0  0  0  0  0  0  0  0  0  0
   28.7772   14.4984   21.7897 C   0  0  0  0  0  0  0  0  0  0  0  0
   29.5244   15.8204   21.9059 C   0  0  0  0  0  0  0  0  0  0  0  0
   30.7752   15.8249   21.0274 C   0  0  0  0  0  0  0  0  0  0  0  0
   31.5341   17.1432   21.1296 C   0  0  0  0  0  0  0  0  0  0  0  0
   32.1668   17.3429   22.4665 N   0  0  0  0  0  0  0  0  0  0  0  0
   26.6938   16.2191   19.8114 O   0  0  0  0  0  0  0  0  0  0  0  0
  2  1  1  6  0  0  0
  2  3  1  0  0  0  0
  2  5  1  0  0  0  0
  3  4  1  0  0  0  0
  3 10  1  0  0  0  0
  5  6  1  0  0  0  0
  6  7  1  0  0  0  0
  7  8  1  0  0  0  0
  8  9  1  0  0  0  0
M  END
>  <CHROM.1>
160.75155429,50.84367921,-74.44237366,179.88164128,68.68855494,28.84591741
15.59686926,20.94730816,-2.78782201,0.22416072,1.17196489

>  <Name>
ligand

>  <RI>
0

>  <Rbt.Current_Directory>
/home/itssahil/PROJECTS/Mol_Feturizer/New_Systems/rnas/3DJ2

>  <Rbt.Executable>
rbdock ($Id: //depot/dev/client3/rdock/2013.1/src/exe/rbdock.cxx#4 $)

>  <Rbt.Library>
libRbt.so (2013.1, Build901 2013/11/27)

>  <Rbt.Parameter_File>
/export/apps/rDock/src/rDock_2013.1_src/data/scripts/dock_solv.prm

>  <Rbt.Receptor>
prm/pocket_docking_6.prm

>  <SCORE>
-8.84454

>  <SCORE.INTER>
-9.65865

>  <SCORE.INTER.CONST>
1

>  <SCORE.INTER.POLAR>
0

>  <SCORE.INTER.ROT>
5

>  <SCORE.INTER.SOLV>
12.3573

>  <SCORE.INTER.VDW>
-17.4915

>  <SCORE.INTER.norm>
-0.965865

>  <SCORE.INTRA>
0.814115

>  <SCORE.INTRA.DIHEDRAL>
-1.34024

>  <SCORE.INTRA.DIHEDRAL.0>
4.28128

>  <SCORE.INTRA.POLAR>
0

>  <SCORE.INTRA.POLAR.0>
0

>  <SCORE.INTRA.REPUL>
0

>  <SCORE.INTRA.REPUL.0>
0

>  <SCORE.INTRA.SOLV>
2.05851

>  <SCORE.INTRA.SOLV.lig_0>
-32.3374

>  <SCORE.INTRA.VDW>
0.454978

>  <SCORE.INTRA.VDW.0>
-0.659551

>  <SCORE.INTRA.norm>
0.0814115

>  <SCORE.RESTR>
0

>  <SCORE.RESTR.CAVITY>
0

>  <SCORE.RESTR.norm>
0

>  <SCORE.SYSTEM>
0

>  <SCORE.SYSTEM.CONST>
0

>  <SCORE.SYSTEM.DIHEDRAL>
0

>  <SCORE.SYSTEM.SOLV>
0

>  <SCORE.SYSTEM.norm>
0

>  <SCORE.heavy>
10

>  <SCORE.norm>
-0.884454

>  <RMSD>
5.290

$$$$
ligand
 OpenBabel11021811473D
libRbt.so/2013.1/901 2013/11/27
 10  9  0  0  0  0  0  0  0  0999 V2000
   29.2326   15.5908   19.6494 N   0  0  0  0  0  0  0  0  0  0  0  0
   27.7454   15.5059   19.6663 C   0  0  2  0  0  0  0  0  0  0  0  0
   27.2199   14.8503   20.9435 C   0  0  0  0  0  0  0  0  0  0  0  0
   27.9797   14.4109   21.8127 O   0  0  0  0  0  0  0  0  0  0  0  0
   27.2274   14.7820   18.4207 C   0  0  0  0  0  0  0  0  0  0  0  0
   27.8646   13.4201   18.1785 C   0  0  0  0  0  0  0  0  0  0  0  0
   26.9078   12.4890   17.4345 C   0  0  0  0  0  0  0  0  0  0  0  0
   27.4778   11.0814   17.2997 C   0  0  0  0  0  0  0  0  0  0  0  0
   26.4316   10.0617   16.9951 N   0  0  0  0  0  0  0  0  0  0  0  0
   26.0111   14.7650   21.1495 O   0  0  0  0  0  0  0  0  0  0  0  0
  2  1  1  1  0  0  0
  2  3  1  0  0  0  0
  2  5  1  0  0  0  0
  3  4  1  0  0  0  0
  3 10  1  0  0  0  0
  5  6  1  0  0  0  0
  6  7  1  0  0  0  0
  7  8  1  0  0  0  0
  8  9  1  0  0  0  0
M  END
>  <CHROM.1>
-2.48620233,52.86075366,151.56979725,-174.60540419,161.26580492,27.39840797
13.69149368,19.19107398,-1.37226943,-0.87466324,-2.25580856

>  <Name>
ligand

>  <RI>
0

>  <Rbt.Current_Directory>
/home/itssahil/PROJECTS/Mol_Feturizer/New_Systems/rnas/3DJ2

>  <Rbt.Executable>
rbdock ($Id: //depot/dev/client3/rdock/2013.1/src/exe/rbdock.cxx#4 $)

>  <Rbt.Library>
libRbt.so (2013.1, Build901 2013/11/27)

>  <Rbt.Parameter_File>
/export/apps/rDock/src/rDock_2013.1_src/data/scripts/dock_solv.prm

>  <Rbt.Receptor>
prm/blind_docking_40.prm

>  <SCORE>
-9.6037

>  <SCORE.INTER>
-10.1911

>  <SCORE.INTER.CONST>
1

>  <SCORE.INTER.POLAR>
0

>  <SCORE.INTER.ROT>
5

>  <SCORE.INTER.SOLV>
13.8434

>  <SCORE.INTER.VDW>
-18.3419

>  <SCORE.INTER.norm>
-1.01911

>  <SCORE.INTRA>
0.587433

>  <SCORE.INTRA.DIHEDRAL>
1.62308

>  <SCORE.INTRA.DIHEDRAL.0>
4.28128

>  <SCORE.INTRA.POLAR>
0

>  <SCORE.INTRA.POLAR.0>
0

>  <SCORE.INTRA.REPUL>
0

>  <SCORE.INTRA.REPUL.0>
0

>  <SCORE.INTRA.SOLV>
-0.395667

>  <SCORE.INTRA.SOLV.lig_0>
-32.3374

>  <SCORE.INTRA.VDW>
-0.0262712

>  <SCORE.INTRA.VDW.0>
-0.659551

>  <SCORE.INTRA.norm>
0.0587433

>  <SCORE.RESTR>
0

>  <SCORE.RESTR.CAVITY>
0

>  <SCORE.RESTR.norm>
0

>  <SCORE.SYSTEM>
0

>  <SCORE.SYSTEM.CONST>
0

>  <SCORE.SYSTEM.DIHEDRAL>
0

>  <SCORE.SYSTEM.SOLV>
0

>  <SCORE.SYSTEM.norm>
0

>  <SCORE.heavy>
10

>  <SCORE.norm>
-0.96037

>  <RMSD>
5.295

$$$$
ligand
 OpenBabel11021811473D
libRbt.so/2013.1/901 2013/11/27
 10  9  0  0  0  0  0  0  0  0999 V2000
   28.5880   14.3090   19.0118 N   0  0  0  0  0  0  0  0  0  0  0  0
   27.8760   14.2879   20.3202 C   0  0  2  0  0  0  0  0  0  0  0  0
   26.7240   15.2920   20.3658 C   0  0  0  0  0  0  0  0  0  0  0  0
   26.7914   16.3898   19.8035 O   0  0  0  0  0  0  0  0  0  0  0  0
   28.8538   14.5168   21.4757 C   0  0  0  0  0  0  0  0  0  0  0  0
   29.7086   15.7691   21.3330 C   0  0  0  0  0  0  0  0  0  0  0  0
   30.8275   15.7936   22.3739 C   0  0  0  0  0  0  0  0  0  0  0  0
   31.7704   16.9732   22.1640 C   0  0  0  0  0  0  0  0  0  0  0  0
   32.5052   16.9012   20.8670 N   0  0  0  0  0  0  0  0  0  0  0  0
   25.6790   15.0169   20.9517 O   0  0  0  0  0  0  0  0  0  0  0  0
  2  1  1  6  0  0  0
  2  3  1  0  0  0  0
  2  5  1  0  0  0  0
  3  4  1  0  0  0  0
  3 10  1  0  0  0  0
  5  6  1  0  0  0  0
  6  7  1  0  0  0  0
  7  8  1  0  0  0  0
  8  9  1  0  0  0  0
M  END
>  <CHROM.1>
-35.75233956,53.39374246,-169.41276225,174.69524111,-63.95891603,28.89561737
15.54207572,20.86431264,-2.78392139,0.12261096,1.09267162

>  <Name>
ligand

>  <RI>
0

>  <Rbt.Current_Directory>
/home/itssahil/PROJECTS/Mol_Feturizer/New_Systems/rnas/3DJ2

>  <Rbt.Executable>
rbdock ($Id: //depot/dev/client3/rdock/2013.1/src/exe/rbdock.cxx#4 $)

>  <Rbt.Library>
libRbt.so (2013.1, Build901 2013/11/27)

>  <Rbt.Parameter_File>
/export/apps/rDock/src/rDock_2013.1_src/data/scripts/dock_solv.prm

>  <Rbt.Receptor>
prm/pocket_docking_7.prm

>  <SCORE>
-9.70139

>  <SCORE.INTER>
-8.98851

>  <SCORE.INTER.CONST>
1

>  <SCORE.INTER.POLAR>
0

>  <SCORE.INTER.ROT>
5

>  <SCORE.INTER.SOLV>
13.5733

>  <SCORE.INTER.VDW>
-17.4501

>  <SCORE.INTER.norm>
-0.898851

>  <SCORE.INTRA>
-0.712879

>  <SCORE.INTRA.DIHEDRAL>
-1.89116

>  <SCORE.INTRA.DIHEDRAL.0>
4.28128

>  <SCORE.INTRA.POLAR>
0

>  <SCORE.INTRA.POLAR.0>
0

>  <SCORE.INTRA.REPUL>
0

>  <SCORE.INTRA.REPUL.0>
0

>  <SCORE.INTRA.SOLV>
0.607402

>  <SCORE.INTRA.SOLV.lig_0>
-32.3374

>  <SCORE.INTRA.VDW>
-0.0710004

>  <SCORE.INTRA.VDW.0>
-0.659551

>  <SCORE.INTRA.norm>
-0.0712879

>  <SCORE.RESTR>
0

>  <SCORE.RESTR.CAVITY>
0

>  <SCORE.RESTR.norm>
0

>  <SCORE.SYSTEM>
0

>  <SCORE.SYSTEM.CONST>
0

>  <SCORE.SYSTEM.DIHEDRAL>
0

>  <SCORE.SYSTEM.SOLV>
0

>  <SCORE.SYSTEM.norm>
0

>  <SCORE.heavy>
10

>  <SCORE.norm>
-0.970139

>  <RMSD>
5.297

$$$$
ligand
 OpenBabel11021811473D
libRbt.so/2013.1/901 2013/11/27
 10  9  0  0  0  0  0  0  0  0999 V2000
   28.7022   15.3153   19.2764 N   0  0  0  0  0  0  0  0  0  0  0  0
   28.1399   14.8285   20.5672 C   0  0  2  0  0  0  0  0  0  0  0  0
   26.6339   15.0712   20.6681 C   0  0  0  0  0  0  0  0  0  0  0  0
   25.9583   14.6105   21.5939 O   0  0  0  0  0  0  0  0  0  0  0  0
   28.8803   15.4523   21.7531 C   0  0  0  0  0  0  0  0  0  0  0  0
   30.3157   14.9708   21.9177 C   0  0  0  0  0  0  0  0  0  0  0  0
   31.2438   15.6524   20.9125 C   0  0  0  0  0  0  0  0  0  0  0  0
   31.9188   16.8825   21.5089 C   0  0  0  0  0  0  0  0  0  0  0  0
   30.9403   17.8957   22.0023 N   0  0  0  0  0  0  0  0  0  0  0  0
   26.0553   15.7606   19.8309 O   0  0  0  0  0  0  0  0  0  0  0  0
  2  1  1  6  0  0  0
  2  3  1  0  0  0  0
  2  5  1  0  0  0  0
  3  4  1  0  0  0  0
  3 10  1  0  0  0  0
  5  6  1  0  0  0  0
  6  7  1  0  0  0  0
  7  8  1  0  0  0  0
  8  9  1  0  0  0  0
M  END
>  <CHROM.1>
171.95853795,-69.04521451,77.64443096,94.67963990,-57.78750271,28.83563957
15.64488093,21.00297825,-2.98598722,0.31973882,1.68004952

>  <Name>
ligand

>  <RI>
0

>  <Rbt.Current_Directory>
/home/itssahil/PROJECTS/Mol_Feturizer/New_Systems/rnas/3DJ2

>  <Rbt.Executable>
rbdock ($Id: //depot/dev/client3/rdock/2013.1/src/exe/rbdock.cxx#4 $)

>  <Rbt.Library>
libRbt.so (2013.1, Build901 2013/11/27)

>  <Rbt.Parameter_File>
/export/apps/rDock/src/rDock_2013.1_src/data/scripts/dock_solv.prm

>  <Rbt.Receptor>
prm/pocket_docking_3.prm

>  <SCORE>
-6.94593

>  <SCORE.INTER>
-9.92429

>  <SCORE.INTER.CONST>
1

>  <SCORE.INTER.POLAR>
0

>  <SCORE.INTER.ROT>
5

>  <SCORE.INTER.SOLV>
11.8939

>  <SCORE.INTER.VDW>
-17.5142

>  <SCORE.INTER.norm>
-0.992429

>  <SCORE.INTRA>
2.97836

>  <SCORE.INTRA.DIHEDRAL>
2.5933

>  <SCORE.INTRA.DIHEDRAL.0>
4.28128

>  <SCORE.INTRA.POLAR>
0

>  <SCORE.INTRA.POLAR.0>
0

>  <SCORE.INTRA.REPUL>
0

>  <SCORE.INTRA.REPUL.0>
0

>  <SCORE.INTRA.SOLV>
2.9672

>  <SCORE.INTRA.SOLV.lig_0>
-32.3374

>  <SCORE.INTRA.VDW>
0.198111

>  <SCORE.INTRA.VDW.0>
-0.659551

>  <SCORE.INTRA.norm>
0.297836

>  <SCORE.RESTR>
0

>  <SCORE.RESTR.CAVITY>
0

>  <SCORE.RESTR.norm>
0

>  <SCORE.SYSTEM>
0

>  <SCORE.SYSTEM.CONST>
0

>  <SCORE.SYSTEM.DIHEDRAL>
0

>  <SCORE.SYSTEM.SOLV>
0

>  <SCORE.SYSTEM.norm>
0

>  <SCORE.heavy>
10

>  <SCORE.norm>
-0.694593

>  <RMSD>
5.300

$$$$
ligand
 OpenBabel11021811473D
libRbt.so/2013.1/901 2013/11/27
 10  9  0  0  0  0  0  0  0  0999 V2000
   28.4478   14.2492   19.1482 N   0  0  0  0  0  0  0  0  0  0  0  0
   28.4950   14.7174   20.5616 C   0  0  2  0  0  0  0  0  0  0  0  0
   27.1121   15.1016   21.0882 C   0  0  0  0  0  0  0  0  0  0  0  0
   26.1821   15.3940   20.3296 O   0  0  0  0  0  0  0  0  0  0  0  0
   29.4865   15.8732   20.7193 C   0  0  0  0  0  0  0  0  0  0  0  0
   30.9425   15.4821   20.5038 C   0  0  0  0  0  0  0  0  0  0  0  0
   31.8347   16.7185   20.3971 C   0  0  0  0  0  0  0  0  0  0  0  0
   32.0201   17.4012   21.7476 C   0  0  0  0  0  0  0  0  0  0  0  0
   32.8731   16.6099   22.6822 N   0  0  0  0  0  0  0  0  0  0  0  0
   26.8830   15.1056   22.2958 O   0  0  0  0  0  0  0  0  0  0  0  0
  2  1  1  6  0  0  0
  2  3  1  0  0  0  0
  2  5  1  0  0  0  0
  3  4  1  0  0  0  0
  3 10  1  0  0  0  0
  5  6  1  0  0  0  0
  6  7  1  0  0  0  0
  7  8  1  0  0  0  0
  8  9  1  0  0  0  0
M  END
>  <CHROM.1>
-21.43302052,-67.16842779,168.55022081,72.67604820,70.72668688,29.38613334
15.66852776,20.95831226,-2.88624355,0.24835398,1.20186199

>  <Name>
ligand

>  <RI>
0

>  <Rbt.Current_Directory>
/home/itssahil/PROJECTS/Mol_Feturizer/New_Systems/rnas/3DJ2

>  <Rbt.Executable>
rbdock ($Id: //depot/dev/client3/rdock/2013.1/src/exe/rbdock.cxx#4 $)

>  <Rbt.Library>
libRbt.so (2013.1, Build901 2013/11/27)

>  <Rbt.Parameter_File>
/export/apps/rDock/src/rDock_2013.1_src/data/scripts/dock_solv.prm

>  <Rbt.Receptor>
prm/blind_docking_100.prm

>  <SCORE>
-7.51114

>  <SCORE.INTER>
-7.7203

>  <SCORE.INTER.CONST>
1

>  <SCORE.INTER.POLAR>
0

>  <SCORE.INTER.ROT>
5

>  <SCORE.INTER.SOLV>
15.6106

>  <SCORE.INTER.VDW>
-17.2837

>  <SCORE.INTER.norm>
-0.77203

>  <SCORE.INTRA>
0.209166

>  <SCORE.INTRA.DIHEDRAL>
-0.887417

>  <SCORE.INTRA.DIHEDRAL.0>
4.28128

>  <SCORE.INTRA.POLAR>
0

>  <SCORE.INTRA.POLAR.0>
0

>  <SCORE.INTRA.REPUL>
0

>  <SCORE.INTRA.REPUL.0>
0

>  <SCORE.INTRA.SOLV>
0.73497

>  <SCORE.INTRA.SOLV.lig_0>
-32.3374

>  <SCORE.INTRA.VDW>
0.285389

>  <SCORE.INTRA.VDW.0>
-0.659551

>  <SCORE.INTRA.norm>
0.0209166

>  <SCORE.RESTR>
0

>  <SCORE.RESTR.CAVITY>
0

>  <SCORE.RESTR.norm>
0

>  <SCORE.SYSTEM>
0

>  <SCORE.SYSTEM.CONST>
0

>  <SCORE.SYSTEM.DIHEDRAL>
0

>  <SCORE.SYSTEM.SOLV>
0

>  <SCORE.SYSTEM.norm>
0

>  <SCORE.heavy>
10

>  <SCORE.norm>
-0.751114

>  <RMSD>
5.301

$$$$
ligand
 OpenBabel11021811473D
libRbt.so/2013.1/901 2013/11/27
 10  9  0  0  0  0  0  0  0  0999 V2000
   28.7038   14.9128   19.3772 N   0  0  0  0  0  0  0  0  0  0  0  0
   28.0771   14.7091   20.7132 C   0  0  2  0  0  0  0  0  0  0  0  0
   26.5848   15.0411   20.7065 C   0  0  0  0  0  0  0  0  0  0  0  0
   25.8188   14.6247   21.5816 O   0  0  0  0  0  0  0  0  0  0  0  0
   28.8159   15.5098   21.7888 C   0  0  0  0  0  0  0  0  0  0  0  0
   30.2500   15.0576   22.0305 C   0  0  0  0  0  0  0  0  0  0  0  0
   31.1815   15.5707   20.9326 C   0  0  0  0  0  0  0  0  0  0  0  0
   31.8496   16.8838   21.3249 C   0  0  0  0  0  0  0  0  0  0  0  0
   30.8683   17.9315   21.7330 N   0  0  0  0  0  0  0  0  0  0  0  0
   26.1092   15.7604   19.8305 O   0  0  0  0  0  0  0  0  0  0  0  0
  2  1  1  6  0  0  0
  2  3  1  0  0  0  0
  2  5  1  0  0  0  0
  3  4  1  0  0  0  0
  3 10  1  0  0  0  0
  5  6  1  0  0  0  0
  6  7  1  0  0  0  0
  7  8  1  0  0  0  0
  8  9  1  0  0  0  0
M  END
>  <CHROM.1>
160.92714626,-65.06624721,77.58280960,94.23951698,-53.84442818,28.78298297
15.60287851,21.00002574,-2.82792121,0.15443702,0.91785510

>  <Name>
ligand

>  <RI>
0

>  <Rbt.Current_Directory>
/home/itssahil/PROJECTS/Mol_Feturizer/New_Systems/rnas/3DJ2

>  <Rbt.Executable>
rbdock ($Id: //depot/dev/client3/rdock/2013.1/src/exe/rbdock.cxx#4 $)

>  <Rbt.Library>
libRbt.so (2013.1, Build901 2013/11/27)

>  <Rbt.Parameter_File>
/export/apps/rDock/src/rDock_2013.1_src/data/scripts/dock_solv.prm

>  <Rbt.Receptor>
prm/pocket_docking_3.prm

>  <SCORE>
-6.98506

>  <SCORE.INTER>
-9.98124

>  <SCORE.INTER.CONST>
1

>  <SCORE.INTER.POLAR>
0

>  <SCORE.INTER.ROT>
5

>  <SCORE.INTER.SOLV>
12.5002

>  <SCORE.INTER.VDW>
-17.7542

>  <SCORE.INTER.norm>
-0.998124

>  <SCORE.INTRA>
2.99618

>  <SCORE.INTRA.DIHEDRAL>
2.39662

>  <SCORE.INTRA.DIHEDRAL.0>
4.28128

>  <SCORE.INTRA.POLAR>
0

>  <SCORE.INTRA.POLAR.0>
0

>  <SCORE.INTRA.REPUL>
0

>  <SCORE.INTRA.REPUL.0>
0

>  <SCORE.INTRA.SOLV>
3.0705

>  <SCORE.INTRA.SOLV.lig_0>
-32.3374

>  <SCORE.INTRA.VDW>
0.262625

>  <SCORE.INTRA.VDW.0>
-0.659551

>  <SCORE.INTRA.norm>
0.299618

>  <SCORE.RESTR>
0

>  <SCORE.RESTR.CAVITY>
0

>  <SCORE.RESTR.norm>
0

>  <SCORE.SYSTEM>
0

>  <SCORE.SYSTEM.CONST>
0

>  <SCORE.SYSTEM.DIHEDRAL>
0

>  <SCORE.SYSTEM.SOLV>
0

>  <SCORE.SYSTEM.norm>
0

>  <SCORE.heavy>
10

>  <SCORE.norm>
-0.698506

>  <RMSD>
5.303

$$$$
ligand
 OpenBabel11021811473D
libRbt.so/2013.1/901 2013/11/27
 10  9  0  0  0  0  0  0  0  0999 V2000
   28.1392   14.2405   18.5697 N   0  0  0  0  0  0  0  0  0  0  0  0
   28.1350   14.4517   20.0444 C   0  0  2  0  0  0  0  0  0  0  0  0
   26.9092   15.2373   20.5108 C   0  0  0  0  0  0  0  0  0  0  0  0
   26.2746   14.9186   21.5215 O   0  0  0  0  0  0  0  0  0  0  0  0
   29.4305   15.1277   20.5011 C   0  0  0  0  0  0  0  0  0  0  0  0
   29.5550   15.2857   22.0107 C   0  0  0  0  0  0  0  0  0  0  0  0
   30.9236   15.8477   22.3944 C   0  0  0  0  0  0  0  0  0  0  0  0
   31.0737   17.3065   21.9776 C   0  0  0  0  0  0  0  0  0  0  0  0
   32.4255   17.8588   22.2858 N   0  0  0  0  0  0  0  0  0  0  0  0
   26.5348   16.2333   19.8953 O   0  0  0  0  0  0  0  0  0  0  0  0
  2  1  1  6  0  0  0
  2  3  1  0  0  0  0
  2  5  1  0  0  0  0
  3  4  1  0  0  0  0
  3 10  1  0  0  0  0
  5  6  1  0  0  0  0
  6  7  1  0  0  0  0
  7  8  1  0  0  0  0
  8  9  1  0  0  0  0
M  END
>  <CHROM.1>
137.05689582,-175.59587309,174.75937720,69.91067430,-177.35901617,28.90358817
15.66304464,20.97712247,-2.58293757,0.11359939,0.98822503

>  <Name>
ligand

>  <RI>
0

>  <Rbt.Current_Directory>
/home/itssahil/PROJECTS/Mol_Feturizer/New_Systems/rnas/3DJ2

>  <Rbt.Executable>
rbdock ($Id: //depot/dev/client3/rdock/2013.1/src/exe/rbdock.cxx#4 $)

>  <Rbt.Library>
libRbt.so (2013.1, Build901 2013/11/27)

>  <Rbt.Parameter_File>
/export/apps/rDock/src/rDock_2013.1_src/data/scripts/dock_solv.prm

>  <Rbt.Receptor>
prm/pocket_docking_5.prm

>  <SCORE>
-10.2522

>  <SCORE.INTER>
-8.94341

>  <SCORE.INTER.CONST>
1

>  <SCORE.INTER.POLAR>
0

>  <SCORE.INTER.ROT>
5

>  <SCORE.INTER.SOLV>
14.1362

>  <SCORE.INTER.VDW>
-17.6077

>  <SCORE.INTER.norm>
-0.894341

>  <SCORE.INTRA>
-1.30882

>  <SCORE.INTRA.DIHEDRAL>
-2.185

>  <SCORE.INTRA.DIHEDRAL.0>
4.28128

>  <SCORE.INTRA.POLAR>
0

>  <SCORE.INTRA.POLAR.0>
0

>  <SCORE.INTRA.REPUL>
0

>  <SCORE.INTRA.REPUL.0>
0

>  <SCORE.INTRA.SOLV>
-1.10954

>  <SCORE.INTRA.SOLV.lig_0>
-32.3374

>  <SCORE.INTRA.VDW>
0.338448

>  <SCORE.INTRA.VDW.0>
-0.659551

>  <SCORE.INTRA.norm>
-0.130882

>  <SCORE.RESTR>
0

>  <SCORE.RESTR.CAVITY>
0

>  <SCORE.RESTR.norm>
0

>  <SCORE.SYSTEM>
0

>  <SCORE.SYSTEM.CONST>
0

>  <SCORE.SYSTEM.DIHEDRAL>
0

>  <SCORE.SYSTEM.SOLV>
0

>  <SCORE.SYSTEM.norm>
0

>  <SCORE.heavy>
10

>  <SCORE.norm>
-1.02522

>  <RMSD>
5.303

$$$$
ligand
 OpenBabel11021811473D
libRbt.so/2013.1/901 2013/11/27
 10  9  0  0  0  0  0  0  0  0999 V2000
   28.1784   14.2857   18.5904 N   0  0  0  0  0  0  0  0  0  0  0  0
   28.1650   14.4806   20.0673 C   0  0  2  0  0  0  0  0  0  0  0  0
   26.9227   15.2374   20.5376 C   0  0  0  0  0  0  0  0  0  0  0  0
   26.5307   16.2643   19.9739 O   0  0  0  0  0  0  0  0  0  0  0  0
   29.4456   15.1762   20.5361 C   0  0  0  0  0  0  0  0  0  0  0  0
   29.5544   15.3340   22.0470 C   0  0  0  0  0  0  0  0  0  0  0  0
   30.9150   15.9058   22.4443 C   0  0  0  0  0  0  0  0  0  0  0  0
   31.0807   17.3482   21.9791 C   0  0  0  0  0  0  0  0  0  0  0  0
   32.4336   17.9007   22.2819 N   0  0  0  0  0  0  0  0  0  0  0  0
   26.2612   14.8226   21.4870 O   0  0  0  0  0  0  0  0  0  0  0  0
  2  1  1  6  0  0  0
  2  3  1  0  0  0  0
  2  5  1  0  0  0  0
  3  4  1  0  0  0  0
  3 10  1  0  0  0  0
  5  6  1  0  0  0  0
  6  7  1  0  0  0  0
  7  8  1  0  0  0  0
  8  9  1  0  0  0  0
M  END
>  <CHROM.1>
-46.57945534,-176.25070009,174.27736799,67.55558659,-176.46587730,28.91151329
15.68652191,21.00038505,-2.58682427,0.14021754,1.00999424

>  <Name>
ligand

>  <RI>
0

>  <Rbt.Current_Directory>
/home/itssahil/PROJECTS/Mol_Feturizer/New_Systems/rnas/3DJ2

>  <Rbt.Executable>
rbdock ($Id: //depot/dev/client3/rdock/2013.1/src/exe/rbdock.cxx#4 $)

>  <Rbt.Library>
libRbt.so (2013.1, Build901 2013/11/27)

>  <Rbt.Parameter_File>
/export/apps/rDock/src/rDock_2013.1_src/data/scripts/dock_solv.prm

>  <Rbt.Receptor>
prm/pocket_docking_7.prm

>  <SCORE>
-10.0417

>  <SCORE.INTER>
-8.78277

>  <SCORE.INTER.CONST>
1

>  <SCORE.INTER.POLAR>
0

>  <SCORE.INTER.ROT>
5

>  <SCORE.INTER.SOLV>
14.1063

>  <SCORE.INTER.VDW>
-17.4906

>  <SCORE.INTER.norm>
-0.878277

>  <SCORE.INTRA>
-1.25891

>  <SCORE.INTRA.DIHEDRAL>
-2.26389

>  <SCORE.INTRA.DIHEDRAL.0>
4.28128

>  <SCORE.INTRA.POLAR>
0

>  <SCORE.INTRA.POLAR.0>
0

>  <SCORE.INTRA.REPUL>
0

>  <SCORE.INTRA.REPUL.0>
0

>  <SCORE.INTRA.SOLV>
-1.08805

>  <SCORE.INTRA.SOLV.lig_0>
-32.3374

>  <SCORE.INTRA.VDW>
0.417055

>  <SCORE.INTRA.VDW.0>
-0.659551

>  <SCORE.INTRA.norm>
-0.125891

>  <SCORE.RESTR>
0

>  <SCORE.RESTR.CAVITY>
0

>  <SCORE.RESTR.norm>
0

>  <SCORE.SYSTEM>
0

>  <SCORE.SYSTEM.CONST>
0

>  <SCORE.SYSTEM.DIHEDRAL>
0

>  <SCORE.SYSTEM.SOLV>
0

>  <SCORE.SYSTEM.norm>
0

>  <SCORE.heavy>
10

>  <SCORE.norm>
-1.00417

>  <RMSD>
5.304

$$$$
ligand
 OpenBabel11021811473D
libRbt.so/2013.1/901 2013/11/27
 10  9  0  0  0  0  0  0  0  0999 V2000
   29.2594   15.5547   19.7714 N   0  0  0  0  0  0  0  0  0  0  0  0
   27.7721   15.5230   19.6940 C   0  0  2  0  0  0  0  0  0  0  0  0
   27.1446   14.8692   20.9253 C   0  0  0  0  0  0  0  0  0  0  0  0
   27.8321   14.4077   21.8420 O   0  0  0  0  0  0  0  0  0  0  0  0
   27.3086   14.8352   18.4072 C   0  0  0  0  0  0  0  0  0  0  0  0
   27.8785   13.4375   18.2049 C   0  0  0  0  0  0  0  0  0  0  0  0
   26.8987   12.5490   17.4388 C   0  0  0  0  0  0  0  0  0  0  0  0
   27.4121   11.1192   17.3109 C   0  0  0  0  0  0  0  0  0  0  0  0
   26.3211   10.1354   17.0476 N   0  0  0  0  0  0  0  0  0  0  0  0
   25.9228   14.8076   21.0451 O   0  0  0  0  0  0  0  0  0  0  0  0
  2  1  1  1  0  0  0
  2  3  1  0  0  0  0
  2  5  1  0  0  0  0
  3  4  1  0  0  0  0
  3 10  1  0  0  0  0
  5  6  1  0  0  0  0
  6  7  1  0  0  0  0
  7  8  1  0  0  0  0
  8  9  1  0  0  0  0
M  END
>  <CHROM.1>
-1.45162733,54.64190446,148.93077084,-176.07716113,158.48202863,27.36143549
13.71959424,19.20370346,-1.37391374,-0.81917348,-2.26389065

>  <Name>
ligand

>  <RI>
0

>  <Rbt.Current_Directory>
/home/itssahil/PROJECTS/Mol_Feturizer/New_Systems/rnas/3DJ2

>  <Rbt.Executable>
rbdock ($Id: //depot/dev/client3/rdock/2013.1/src/exe/rbdock.cxx#4 $)

>  <Rbt.Library>
libRbt.so (2013.1, Build901 2013/11/27)

>  <Rbt.Parameter_File>
/export/apps/rDock/src/rDock_2013.1_src/data/scripts/dock_solv.prm

>  <Rbt.Receptor>
prm/blind_docking_40.prm

>  <SCORE>
-9.58471

>  <SCORE.INTER>
-10.4659

>  <SCORE.INTER.CONST>
1

>  <SCORE.INTER.POLAR>
0

>  <SCORE.INTER.ROT>
5

>  <SCORE.INTER.SOLV>
13.5887

>  <SCORE.INTER.VDW>
-18.4402

>  <SCORE.INTER.norm>
-1.04659

>  <SCORE.INTRA>
0.881199

>  <SCORE.INTRA.DIHEDRAL>
2.24539

>  <SCORE.INTRA.DIHEDRAL.0>
4.28128

>  <SCORE.INTRA.POLAR>
0

>  <SCORE.INTRA.POLAR.0>
0

>  <SCORE.INTRA.REPUL>
0

>  <SCORE.INTRA.REPUL.0>
0

>  <SCORE.INTRA.SOLV>
-0.411558

>  <SCORE.INTRA.SOLV.lig_0>
-32.3374

>  <SCORE.INTRA.VDW>
-0.0357174

>  <SCORE.INTRA.VDW.0>
-0.659551

>  <SCORE.INTRA.norm>
0.0881199

>  <SCORE.RESTR>
0

>  <SCORE.RESTR.CAVITY>
0

>  <SCORE.RESTR.norm>
0

>  <SCORE.SYSTEM>
0

>  <SCORE.SYSTEM.CONST>
0

>  <SCORE.SYSTEM.DIHEDRAL>
0

>  <SCORE.SYSTEM.SOLV>
0

>  <SCORE.SYSTEM.norm>
0

>  <SCORE.heavy>
10

>  <SCORE.norm>
-0.958471

>  <RMSD>
5.305

$$$$
ligand
 OpenBabel11021811473D
libRbt.so/2013.1/901 2013/11/27
 10  9  0  0  0  0  0  0  0  0999 V2000
   28.6356   14.3875   19.1121 N   0  0  0  0  0  0  0  0  0  0  0  0
   27.9299   14.2816   20.4199 C   0  0  2  0  0  0  0  0  0  0  0  0
   26.7074   15.1968   20.4910 C   0  0  0  0  0  0  0  0  0  0  0  0
   26.6509   16.2613   19.8669 O   0  0  0  0  0  0  0  0  0  0  0  0
   28.8908   14.5528   21.5804 C   0  0  0  0  0  0  0  0  0  0  0  0
   29.7019   15.8335   21.4346 C   0  0  0  0  0  0  0  0  0  0  0  0
   30.8182   15.8999   22.4764 C   0  0  0  0  0  0  0  0  0  0  0  0
   31.7957   17.0337   22.1875 C   0  0  0  0  0  0  0  0  0  0  0  0
   32.4850   16.8807   20.8727 N   0  0  0  0  0  0  0  0  0  0  0  0
   25.7278   14.8789   21.1620 O   0  0  0  0  0  0  0  0  0  0  0  0
  2  1  1  6  0  0  0
  2  3  1  0  0  0  0
  2  5  1  0  0  0  0
  3  4  1  0  0  0  0
  3 10  1  0  0  0  0
  5  6  1  0  0  0  0
  6  7  1  0  0  0  0
  7  8  1  0  0  0  0
  8  9  1  0  0  0  0
M  END
>  <CHROM.1>
-29.72600832,50.49927443,-168.99370978,169.33993491,-61.29337882,28.89608622
15.53549865,20.95872313,-2.82969544,0.21731871,1.29815483

>  <Name>
ligand

>  <RI>
0

>  <Rbt.Current_Directory>
/home/itssahil/PROJECTS/Mol_Feturizer/New_Systems/rnas/3DJ2

>  <Rbt.Executable>
rbdock ($Id: //depot/dev/client3/rdock/2013.1/src/exe/rbdock.cxx#4 $)

>  <Rbt.Library>
libRbt.so (2013.1, Build901 2013/11/27)

>  <Rbt.Parameter_File>
/export/apps/rDock/src/rDock_2013.1_src/data/scripts/dock_solv.prm

>  <Rbt.Receptor>
prm/pocket_docking_3.prm

>  <SCORE>
-9.48809

>  <SCORE.INTER>
-9.12587

>  <SCORE.INTER.CONST>
1

>  <SCORE.INTER.POLAR>
0

>  <SCORE.INTER.ROT>
5

>  <SCORE.INTER.SOLV>
13.4287

>  <SCORE.INTER.VDW>
-17.4935

>  <SCORE.INTER.norm>
-0.912587

>  <SCORE.INTRA>
-0.362222

>  <SCORE.INTRA.DIHEDRAL>
-1.37354

>  <SCORE.INTRA.DIHEDRAL.0>
4.28128

>  <SCORE.INTRA.POLAR>
0

>  <SCORE.INTRA.POLAR.0>
0

>  <SCORE.INTRA.REPUL>
0

>  <SCORE.INTRA.REPUL.0>
0

>  <SCORE.INTRA.SOLV>
0.714909

>  <SCORE.INTRA.SOLV.lig_0>
-32.3374

>  <SCORE.INTRA.VDW>
-0.0329043

>  <SCORE.INTRA.VDW.0>
-0.659551

>  <SCORE.INTRA.norm>
-0.0362222

>  <SCORE.RESTR>
0

>  <SCORE.RESTR.CAVITY>
0

>  <SCORE.RESTR.norm>
0

>  <SCORE.SYSTEM>
0

>  <SCORE.SYSTEM.CONST>
0

>  <SCORE.SYSTEM.DIHEDRAL>
0

>  <SCORE.SYSTEM.SOLV>
0

>  <SCORE.SYSTEM.norm>
0

>  <SCORE.heavy>
10

>  <SCORE.norm>
-0.948809

>  <RMSD>
5.306

$$$$
ligand
 OpenBabel11021811473D
libRbt.so/2013.1/901 2013/11/27
 10  9  0  0  0  0  0  0  0  0999 V2000
   28.1962   14.1587   18.6227 N   0  0  0  0  0  0  0  0  0  0  0  0
   28.1594   14.4352   20.0861 C   0  0  2  0  0  0  0  0  0  0  0  0
   26.9206   15.2344   20.4908 C   0  0  0  0  0  0  0  0  0  0  0  0
   26.5746   16.2544   19.8860 O   0  0  0  0  0  0  0  0  0  0  0  0
   29.4419   15.1376   20.5397 C   0  0  0  0  0  0  0  0  0  0  0  0
   29.5510   15.3285   22.0467 C   0  0  0  0  0  0  0  0  0  0  0  0
   30.9173   15.8945   22.4326 C   0  0  0  0  0  0  0  0  0  0  0  0
   31.0868   17.3348   21.9624 C   0  0  0  0  0  0  0  0  0  0  0  0
   32.4517   17.8739   22.2341 N   0  0  0  0  0  0  0  0  0  0  0  0
   26.2157   14.8621   21.4264 O   0  0  0  0  0  0  0  0  0  0  0  0
  2  1  1  6  0  0  0
  2  3  1  0  0  0  0
  2  5  1  0  0  0  0
  3  4  1  0  0  0  0
  3 10  1  0  0  0  0
  5  6  1  0  0  0  0
  6  7  1  0  0  0  0
  7  8  1  0  0  0  0
  8  9  1  0  0  0  0
M  END
>  <CHROM.1>
-48.56002139,-173.98170392,173.80907962,68.84550792,-175.53911664,28.91433134
15.66333371,20.97727588,-2.57765312,0.09500844,0.93650840

>  <Name>
ligand

>  <RI>
0

>  <Rbt.Current_Directory>
/home/itssahil/PROJECTS/Mol_Feturizer/New_Systems/rnas/3DJ2

>  <Rbt.Executable>
rbdock ($Id: //depot/dev/client3/rdock/2013.1/src/exe/rbdock.cxx#4 $)

>  <Rbt.Library>
libRbt.so (2013.1, Build901 2013/11/27)

>  <Rbt.Parameter_File>
/export/apps/rDock/src/rDock_2013.1_src/data/scripts/dock_solv.prm

>  <Rbt.Receptor>
prm/pocket_docking_5.prm

>  <SCORE>
-10.0971

>  <SCORE.INTER>
-8.8569

>  <SCORE.INTER.CONST>
1

>  <SCORE.INTER.POLAR>
0

>  <SCORE.INTER.ROT>
5

>  <SCORE.INTER.SOLV>
14.2042

>  <SCORE.INTER.VDW>
-17.5727

>  <SCORE.INTER.norm>
-0.88569

>  <SCORE.INTRA>
-1.2402

>  <SCORE.INTRA.DIHEDRAL>
-2.05126

>  <SCORE.INTRA.DIHEDRAL.0>
4.28128

>  <SCORE.INTRA.POLAR>
0

>  <SCORE.INTRA.POLAR.0>
0

>  <SCORE.INTRA.REPUL>
0

>  <SCORE.INTRA.REPUL.0>
0

>  <SCORE.INTRA.SOLV>
-1.08892

>  <SCORE.INTRA.SOLV.lig_0>
-32.3374

>  <SCORE.INTRA.VDW>
0.329889

>  <SCORE.INTRA.VDW.0>
-0.659551

>  <SCORE.INTRA.norm>
-0.12402

>  <SCORE.RESTR>
0

>  <SCORE.RESTR.CAVITY>
0

>  <SCORE.RESTR.norm>
0

>  <SCORE.SYSTEM>
0

>  <SCORE.SYSTEM.CONST>
0

>  <SCORE.SYSTEM.DIHEDRAL>
0

>  <SCORE.SYSTEM.SOLV>
0

>  <SCORE.SYSTEM.norm>
0

>  <SCORE.heavy>
10

>  <SCORE.norm>
-1.00971

>  <RMSD>
5.308

$$$$
ligand
 OpenBabel11021811473D
libRbt.so/2013.1/901 2013/11/27
 10  9  0  0  0  0  0  0  0  0999 V2000
   28.8343   14.5208   19.3664 N   0  0  0  0  0  0  0  0  0  0  0  0
   27.9334   14.3015   20.5324 C   0  0  2  0  0  0  0  0  0  0  0  0
   26.6922   15.1923   20.4775 C   0  0  0  0  0  0  0  0  0  0  0  0
   26.6741   16.2492   19.8383 O   0  0  0  0  0  0  0  0  0  0  0  0
   28.6912   14.4913   21.8490 C   0  0  0  0  0  0  0  0  0  0  0  0
   29.5328   15.7591   21.9091 C   0  0  0  0  0  0  0  0  0  0  0  0
   30.7670   15.6436   21.0150 C   0  0  0  0  0  0  0  0  0  0  0  0
   31.5982   16.9217   21.0293 C   0  0  0  0  0  0  0  0  0  0  0  0
   32.2812   17.1515   22.3362 N   0  0  0  0  0  0  0  0  0  0  0  0
   25.6600   14.8613   21.0572 O   0  0  0  0  0  0  0  0  0  0  0  0
  2  1  1  6  0  0  0
  2  3  1  0  0  0  0
  2  5  1  0  0  0  0
  3  4  1  0  0  0  0
  3 10  1  0  0  0  0
  5  6  1  0  0  0  0
  6  7  1  0  0  0  0
  7  8  1  0  0  0  0
  8  9  1  0  0  0  0
M  END
>  <CHROM.1>
-23.34801158,47.85398495,-72.15360929,178.20420786,69.63449820,28.82821041
15.52357893,20.93682625,-2.90367005,0.28528136,1.50763855

>  <Name>
ligand

>  <RI>
0

>  <Rbt.Current_Directory>
/home/itssahil/PROJECTS/Mol_Feturizer/New_Systems/rnas/3DJ2

>  <Rbt.Executable>
rbdock ($Id: //depot/dev/client3/rdock/2013.1/src/exe/rbdock.cxx#4 $)

>  <Rbt.Library>
libRbt.so (2013.1, Build901 2013/11/27)

>  <Rbt.Parameter_File>
/export/apps/rDock/src/rDock_2013.1_src/data/scripts/dock_solv.prm

>  <Rbt.Receptor>
prm/pocket_docking_7.prm

>  <SCORE>
-8.59582

>  <SCORE.INTER>
-9.78431

>  <SCORE.INTER.CONST>
1

>  <SCORE.INTER.POLAR>
0

>  <SCORE.INTER.ROT>
5

>  <SCORE.INTER.SOLV>
12.7519

>  <SCORE.INTER.VDW>
-17.7068

>  <SCORE.INTER.norm>
-0.978431

>  <SCORE.INTRA>
1.18849

>  <SCORE.INTRA.DIHEDRAL>
-1.16585

>  <SCORE.INTRA.DIHEDRAL.0>
4.28128

>  <SCORE.INTRA.POLAR>
0

>  <SCORE.INTRA.POLAR.0>
0

>  <SCORE.INTRA.REPUL>
0

>  <SCORE.INTRA.REPUL.0>
0

>  <SCORE.INTRA.SOLV>
2.14708

>  <SCORE.INTRA.SOLV.lig_0>
-32.3374

>  <SCORE.INTRA.VDW>
0.697874

>  <SCORE.INTRA.VDW.0>
-0.659551

>  <SCORE.INTRA.norm>
0.118849

>  <SCORE.RESTR>
0

>  <SCORE.RESTR.CAVITY>
0

>  <SCORE.RESTR.norm>
0

>  <SCORE.SYSTEM>
0

>  <SCORE.SYSTEM.CONST>
0

>  <SCORE.SYSTEM.DIHEDRAL>
0

>  <SCORE.SYSTEM.SOLV>
0

>  <SCORE.SYSTEM.norm>
0

>  <SCORE.heavy>
10

>  <SCORE.norm>
-0.859582

>  <RMSD>
5.312

$$$$
ligand
 OpenBabel11021811473D
libRbt.so/2013.1/901 2013/11/27
 10  9  0  0  0  0  0  0  0  0999 V2000
   28.1048   15.4768   19.0574 N   0  0  0  0  0  0  0  0  0  0  0  0
   28.0772   14.6635   20.3052 C   0  0  2  0  0  0  0  0  0  0  0  0
   26.8845   15.0137   21.1952 C   0  0  0  0  0  0  0  0  0  0  0  0
   27.0083   15.2009   22.4099 O   0  0  0  0  0  0  0  0  0  0  0  0
   29.3958   14.7973   21.0714 C   0  0  0  0  0  0  0  0  0  0  0  0
   29.8430   16.2349   21.3005 C   0  0  0  0  0  0  0  0  0  0  0  0
   31.2399   16.2852   21.9188 C   0  0  0  0  0  0  0  0  0  0  0  0
   31.7958   17.7046   21.9472 C   0  0  0  0  0  0  0  0  0  0  0  0
   31.0432   18.6009   22.8733 N   0  0  0  0  0  0  0  0  0  0  0  0
   25.7616   15.1425   20.7121 O   0  0  0  0  0  0  0  0  0  0  0  0
  2  1  1  6  0  0  0
  2  3  1  0  0  0  0
  2  5  1  0  0  0  0
  3  4  1  0  0  0  0
  3 10  1  0  0  0  0
  5  6  1  0  0  0  0
  6  7  1  0  0  0  0
  7  8  1  0  0  0  0
  8  9  1  0  0  0  0
M  END
>  <CHROM.1>
-133.35913875,50.61158886,-173.20553362,170.76727657,67.05920990,28.87946471
15.91274406,21.29524535,-2.64815608,0.30681617,1.02537955

>  <Name>
ligand

>  <RI>
0

>  <Rbt.Current_Directory>
/home/itssahil/PROJECTS/Mol_Feturizer/New_Systems/rnas/3DJ2

>  <Rbt.Executable>
rbdock ($Id: //depot/dev/client3/rdock/2013.1/src/exe/rbdock.cxx#4 $)

>  <Rbt.Library>
libRbt.so (2013.1, Build901 2013/11/27)

>  <Rbt.Parameter_File>
/export/apps/rDock/src/rDock_2013.1_src/data/scripts/dock_solv.prm

>  <Rbt.Receptor>
prm/pocket_docking_8.prm

>  <SCORE>
-8.4984

>  <SCORE.INTER>
-8.58053

>  <SCORE.INTER.CONST>
1

>  <SCORE.INTER.POLAR>
0

>  <SCORE.INTER.ROT>
5

>  <SCORE.INTER.SOLV>
14.8043

>  <SCORE.INTER.VDW>
-17.5884

>  <SCORE.INTER.norm>
-0.858053

>  <SCORE.INTRA>
0.0821279

>  <SCORE.INTRA.DIHEDRAL>
-1.63259

>  <SCORE.INTRA.DIHEDRAL.0>
4.28128

>  <SCORE.INTRA.POLAR>
0

>  <SCORE.INTRA.POLAR.0>
0

>  <SCORE.INTRA.REPUL>
0

>  <SCORE.INTRA.REPUL.0>
0

>  <SCORE.INTRA.SOLV>
0.502656

>  <SCORE.INTRA.SOLV.lig_0>
-32.3374

>  <SCORE.INTRA.VDW>
0.647093

>  <SCORE.INTRA.VDW.0>
-0.659551

>  <SCORE.INTRA.norm>
0.00821279

>  <SCORE.RESTR>
0

>  <SCORE.RESTR.CAVITY>
0

>  <SCORE.RESTR.norm>
0

>  <SCORE.SYSTEM>
0

>  <SCORE.SYSTEM.CONST>
0

>  <SCORE.SYSTEM.DIHEDRAL>
0

>  <SCORE.SYSTEM.SOLV>
0

>  <SCORE.SYSTEM.norm>
0

>  <SCORE.heavy>
10

>  <SCORE.norm>
-0.84984

>  <RMSD>
5.325

$$$$
ligand
 OpenBabel11021811473D
libRbt.so/2013.1/901 2013/11/27
 10  9  0  0  0  0  0  0  0  0999 V2000
   25.7842   15.4602   20.0830 N   0  0  0  0  0  0  0  0  0  0  0  0
   27.2662   15.3336   20.1663 C   0  0  2  0  0  0  0  0  0  0  0  0
   27.8427   14.5317   18.9994 C   0  0  0  0  0  0  0  0  0  0  0  0
   29.0329   14.6094   18.6780 O   0  0  0  0  0  0  0  0  0  0  0  0
   27.6864   14.7327   21.5102 C   0  0  0  0  0  0  0  0  0  0  0  0
   29.1841   14.7909   21.7804 C   0  0  0  0  0  0  0  0  0  0  0  0
   29.6591   16.2349   21.9398 C   0  0  0  0  0  0  0  0  0  0  0  0
   31.1718   16.3177   22.1109 C   0  0  0  0  0  0  0  0  0  0  0  0
   31.9141   15.9531   20.8685 N   0  0  0  0  0  0  0  0  0  0  0  0
   27.1304   13.7613   18.3590 O   0  0  0  0  0  0  0  0  0  0  0  0
  2  1  1  6  0  0  0
  2  3  1  0  0  0  0
  2  5  1  0  0  0  0
  3  4  1  0  0  0  0
  3 10  1  0  0  0  0
  5  6  1  0  0  0  0
  6  7  1  0  0  0  0
  7  8  1  0  0  0  0
  8  9  1  0  0  0  0
M  END
>  <CHROM.1>
160.12014596,-169.88551008,66.30044966,-175.89505964,69.01062169,28.67256533
15.15280525,20.41829253,2.53077275,-0.10626039,-1.95493053

>  <Name>
ligand

>  <RI>
0

>  <Rbt.Current_Directory>
/home/itssahil/PROJECTS/Mol_Feturizer/New_Systems/rnas/3DJ2

>  <Rbt.Executable>
rbdock ($Id: //depot/dev/client3/rdock/2013.1/src/exe/rbdock.cxx#4 $)

>  <Rbt.Library>
libRbt.so (2013.1, Build901 2013/11/27)

>  <Rbt.Parameter_File>
/export/apps/rDock/src/rDock_2013.1_src/data/scripts/dock_solv.prm

>  <Rbt.Receptor>
prm/pocket_docking_6.prm

>  <SCORE>
-9.09451

>  <SCORE.INTER>
-8.03215

>  <SCORE.INTER.CONST>
1

>  <SCORE.INTER.POLAR>
0

>  <SCORE.INTER.ROT>
5

>  <SCORE.INTER.SOLV>
18.0213

>  <SCORE.INTER.VDW>
-18.2952

>  <SCORE.INTER.norm>
-0.803215

>  <SCORE.INTRA>
-1.06236

>  <SCORE.INTRA.DIHEDRAL>
-1.89828

>  <SCORE.INTRA.DIHEDRAL.0>
4.28128

>  <SCORE.INTRA.POLAR>
0

>  <SCORE.INTRA.POLAR.0>
0

>  <SCORE.INTRA.REPUL>
0

>  <SCORE.INTRA.REPUL.0>
0

>  <SCORE.INTRA.SOLV>
-0.108565

>  <SCORE.INTRA.SOLV.lig_0>
-32.3374

>  <SCORE.INTRA.VDW>
-0.0589375

>  <SCORE.INTRA.VDW.0>
-0.659551

>  <SCORE.INTRA.norm>
-0.106236

>  <SCORE.RESTR>
0

>  <SCORE.RESTR.CAVITY>
0

>  <SCORE.RESTR.norm>
0

>  <SCORE.SYSTEM>
0

>  <SCORE.SYSTEM.CONST>
0

>  <SCORE.SYSTEM.DIHEDRAL>
0

>  <SCORE.SYSTEM.SOLV>
0

>  <SCORE.SYSTEM.norm>
0

>  <SCORE.heavy>
10

>  <SCORE.norm>
-0.909451

>  <RMSD>
5.326

$$$$
ligand
 OpenBabel11021811473D
libRbt.so/2013.1/901 2013/11/27
 10  9  0  0  0  0  0  0  0  0999 V2000
   27.0660   13.6319   18.3352 N   0  0  0  0  0  0  0  0  0  0  0  0
   27.7141   14.2105   19.5454 C   0  0  2  0  0  0  0  0  0  0  0  0
   26.7640   15.1137   20.3320 C   0  0  0  0  0  0  0  0  0  0  0  0
   26.4262   16.2267   19.9159 O   0  0  0  0  0  0  0  0  0  0  0  0
   28.9995   14.9534   19.1720 C   0  0  0  0  0  0  0  0  0  0  0  0
   29.9540   15.1766   20.3375 C   0  0  0  0  0  0  0  0  0  0  0  0
   29.4312   16.2630   21.2770 C   0  0  0  0  0  0  0  0  0  0  0  0
   30.4031   16.5403   22.4184 C   0  0  0  0  0  0  0  0  0  0  0  0
   31.7252   17.0426   21.9418 N   0  0  0  0  0  0  0  0  0  0  0  0
   26.2880   14.7384   21.4013 O   0  0  0  0  0  0  0  0  0  0  0  0
  2  1  1  6  0  0  0
  2  3  1  0  0  0  0
  2  5  1  0  0  0  0
  3  4  1  0  0  0  0
  3 10  1  0  0  0  0
  5  6  1  0  0  0  0
  6  7  1  0  0  0  0
  7  8  1  0  0  0  0
  8  9  1  0  0  0  0
M  END
>  <CHROM.1>
-72.05999139,-160.89854922,-73.60148833,-177.62244915,61.86962171,28.44751144
15.40468704,20.48161635,-2.51979500,0.09983569,0.97522451

>  <Name>
ligand

>  <RI>
0

>  <Rbt.Current_Directory>
/home/itssahil/PROJECTS/Mol_Feturizer/New_Systems/rnas/3DJ2

>  <Rbt.Executable>
rbdock ($Id: //depot/dev/client3/rdock/2013.1/src/exe/rbdock.cxx#4 $)

>  <Rbt.Library>
libRbt.so (2013.1, Build901 2013/11/27)

>  <Rbt.Parameter_File>
/export/apps/rDock/src/rDock_2013.1_src/data/scripts/dock_solv.prm

>  <Rbt.Receptor>
prm/pocket_docking_6.prm

>  <SCORE>
-7.23667

>  <SCORE.INTER>
-6.71442

>  <SCORE.INTER.CONST>
1

>  <SCORE.INTER.POLAR>
0

>  <SCORE.INTER.ROT>
5

>  <SCORE.INTER.SOLV>
15.2846

>  <SCORE.INTER.VDW>
-16.5045

>  <SCORE.INTER.norm>
-0.671442

>  <SCORE.INTRA>
-0.52226

>  <SCORE.INTRA.DIHEDRAL>
-0.7374

>  <SCORE.INTRA.DIHEDRAL.0>
4.28128

>  <SCORE.INTRA.POLAR>
0

>  <SCORE.INTRA.POLAR.0>
0

>  <SCORE.INTRA.REPUL>
0

>  <SCORE.INTRA.REPUL.0>
0

>  <SCORE.INTRA.SOLV>
-0.297682

>  <SCORE.INTRA.SOLV.lig_0>
-32.3374

>  <SCORE.INTRA.VDW>
-0.00471884

>  <SCORE.INTRA.VDW.0>
-0.659551

>  <SCORE.INTRA.norm>
-0.052226

>  <SCORE.RESTR>
0

>  <SCORE.RESTR.CAVITY>
0

>  <SCORE.RESTR.norm>
0

>  <SCORE.SYSTEM>
0

>  <SCORE.SYSTEM.CONST>
0

>  <SCORE.SYSTEM.DIHEDRAL>
0

>  <SCORE.SYSTEM.SOLV>
0

>  <SCORE.SYSTEM.norm>
0

>  <SCORE.heavy>
10

>  <SCORE.norm>
-0.723667

>  <RMSD>
5.328

$$$$
ligand
 OpenBabel11021811473D
libRbt.so/2013.1/901 2013/11/27
 10  9  0  0  0  0  0  0  0  0999 V2000
   27.2199   15.8856   19.5214 N   0  0  0  0  0  0  0  0  0  0  0  0
   28.3842   15.4846   20.3598 C   0  0  2  0  0  0  0  0  0  0  0  0
   27.9530   14.7748   21.6434 C   0  0  0  0  0  0  0  0  0  0  0  0
   28.7325   14.0724   22.2952 O   0  0  0  0  0  0  0  0  0  0  0  0
   29.2739   16.6916   20.6687 C   0  0  0  0  0  0  0  0  0  0  0  0
   30.5798   16.3427   21.3704 C   0  0  0  0  0  0  0  0  0  0  0  0
   31.3775   17.6022   21.7071 C   0  0  0  0  0  0  0  0  0  0  0  0
   32.7332   17.2672   22.3188 C   0  0  0  0  0  0  0  0  0  0  0  0
   33.4924   18.4811   22.7398 N   0  0  0  0  0  0  0  0  0  0  0  0
   26.8102   14.9074   22.0763 O   0  0  0  0  0  0  0  0  0  0  0  0
  2  1  1  1  0  0  0
  2  3  1  0  0  0  0
  2  5  1  0  0  0  0
  3  4  1  0  0  0  0
  3 10  1  0  0  0  0
  5  6  1  0  0  0  0
  6  7  1  0  0  0  0
  7  8  1  0  0  0  0
  8  9  1  0  0  0  0
M  END
>  <CHROM.1>
161.13523063,-172.59213686,-177.12534102,-175.87067077,-176.16583389,29.63619729
16.12864877,21.49562283,2.99391470,0.51008909,2.25516286

>  <Name>
ligand

>  <RI>
0

>  <Rbt.Current_Directory>
/home/itssahil/PROJECTS/Mol_Feturizer/New_Systems/rnas/3DJ2

>  <Rbt.Executable>
rbdock ($Id: //depot/dev/client3/rdock/2013.1/src/exe/rbdock.cxx#4 $)

>  <Rbt.Library>
libRbt.so (2013.1, Build901 2013/11/27)

>  <Rbt.Parameter_File>
/export/apps/rDock/src/rDock_2013.1_src/data/scripts/dock_solv.prm

>  <Rbt.Receptor>
prm/pocket_docking_3.prm

>  <SCORE>
-8.97831

>  <SCORE.INTER>
-7.04368

>  <SCORE.INTER.CONST>
1

>  <SCORE.INTER.POLAR>
0

>  <SCORE.INTER.ROT>
5

>  <SCORE.INTER.SOLV>
16.1679

>  <SCORE.INTER.VDW>
-17.0184

>  <SCORE.INTER.norm>
-0.704368

>  <SCORE.INTRA>
-1.93463

>  <SCORE.INTRA.DIHEDRAL>
-2.44542

>  <SCORE.INTRA.DIHEDRAL.0>
4.28128

>  <SCORE.INTRA.POLAR>
0

>  <SCORE.INTRA.POLAR.0>
0

>  <SCORE.INTRA.REPUL>
0

>  <SCORE.INTRA.REPUL.0>
0

>  <SCORE.INTRA.SOLV>
-1.32415

>  <SCORE.INTRA.SOLV.lig_0>
-32.3374

>  <SCORE.INTRA.VDW>
-0.0498421

>  <SCORE.INTRA.VDW.0>
-0.659551

>  <SCORE.INTRA.norm>
-0.193463

>  <SCORE.RESTR>
0

>  <SCORE.RESTR.CAVITY>
0

>  <SCORE.RESTR.norm>
0

>  <SCORE.SYSTEM>
0

>  <SCORE.SYSTEM.CONST>
0

>  <SCORE.SYSTEM.DIHEDRAL>
0

>  <SCORE.SYSTEM.SOLV>
0

>  <SCORE.SYSTEM.norm>
0

>  <SCORE.heavy>
10

>  <SCORE.norm>
-0.897831

>  <RMSD>
5.329

$$$$
ligand
 OpenBabel11021811473D
libRbt.so/2013.1/901 2013/11/27
 10  9  0  0  0  0  0  0  0  0999 V2000
   28.6800   16.9898   19.7955 N   0  0  0  0  0  0  0  0  0  0  0  0
   28.5668   15.5198   20.0089 C   0  0  2  0  0  0  0  0  0  0  0  0
   27.1724   14.9935   19.6684 C   0  0  0  0  0  0  0  0  0  0  0  0
   27.0041   14.0253   18.9201 O   0  0  0  0  0  0  0  0  0  0  0  0
   28.9642   15.1452   21.4391 C   0  0  0  0  0  0  0  0  0  0  0  0
   30.4371   15.3661   21.7572 C   0  0  0  0  0  0  0  0  0  0  0  0
   30.7546   16.8553   21.8895 C   0  0  0  0  0  0  0  0  0  0  0  0
   32.2462   17.1009   22.0872 C   0  0  0  0  0  0  0  0  0  0  0  0
   33.0439   16.8316   20.8550 N   0  0  0  0  0  0  0  0  0  0  0  0
   26.1721   15.5143   20.1574 O   0  0  0  0  0  0  0  0  0  0  0  0
  2  1  1  1  0  0  0
  2  3  1  0  0  0  0
  2  5  1  0  0  0  0
  3  4  1  0  0  0  0
  3 10  1  0  0  0  0
  5  6  1  0  0  0  0
  6  7  1  0  0  0  0
  7  8  1  0  0  0  0
  8  9  1  0  0  0  0
M  END
>  <CHROM.1>
129.27690200,-67.02438039,72.80185621,-175.03200067,70.91408215,29.26348262
15.81837290,20.64540777,3.11110793,0.48308908,2.46126238

>  <Name>
ligand

>  <RI>
0

>  <Rbt.Current_Directory>
/home/itssahil/PROJECTS/Mol_Feturizer/New_Systems/rnas/3DJ2

>  <Rbt.Executable>
rbdock ($Id: //depot/dev/client3/rdock/2013.1/src/exe/rbdock.cxx#4 $)

>  <Rbt.Library>
libRbt.so (2013.1, Build901 2013/11/27)

>  <Rbt.Parameter_File>
/export/apps/rDock/src/rDock_2013.1_src/data/scripts/dock_solv.prm

>  <Rbt.Receptor>
prm/pocket_docking_6.prm

>  <SCORE>
-7.93046

>  <SCORE.INTER>
-8.17474

>  <SCORE.INTER.CONST>
1

>  <SCORE.INTER.POLAR>
0

>  <SCORE.INTER.ROT>
5

>  <SCORE.INTER.SOLV>
14.4836

>  <SCORE.INTER.VDW>
-17.211

>  <SCORE.INTER.norm>
-0.817474

>  <SCORE.INTRA>
0.244275

>  <SCORE.INTRA.DIHEDRAL>
-1.36397

>  <SCORE.INTRA.DIHEDRAL.0>
4.28128

>  <SCORE.INTRA.POLAR>
0

>  <SCORE.INTRA.POLAR.0>
0

>  <SCORE.INTRA.REPUL>
0

>  <SCORE.INTRA.REPUL.0>
0

>  <SCORE.INTRA.SOLV>
1.74716

>  <SCORE.INTRA.SOLV.lig_0>
-32.3374

>  <SCORE.INTRA.VDW>
0.0526798

>  <SCORE.INTRA.VDW.0>
-0.659551

>  <SCORE.INTRA.norm>
0.0244275

>  <SCORE.RESTR>
0

>  <SCORE.RESTR.CAVITY>
0

>  <SCORE.RESTR.norm>
0

>  <SCORE.SYSTEM>
0

>  <SCORE.SYSTEM.CONST>
0

>  <SCORE.SYSTEM.DIHEDRAL>
0

>  <SCORE.SYSTEM.SOLV>
0

>  <SCORE.SYSTEM.norm>
0

>  <SCORE.heavy>
10

>  <SCORE.norm>
-0.793046

>  <RMSD>
5.330

$$$$
ligand
 OpenBabel11021811473D
libRbt.so/2013.1/901 2013/11/27
 10  9  0  0  0  0  0  0  0  0999 V2000
   25.7879   15.4923   20.0365 N   0  0  0  0  0  0  0  0  0  0  0  0
   27.2668   15.3386   20.1295 C   0  0  2  0  0  0  0  0  0  0  0  0
   27.8350   14.5180   18.9715 C   0  0  0  0  0  0  0  0  0  0  0  0
   29.0244   14.5851   18.6449 O   0  0  0  0  0  0  0  0  0  0  0  0
   27.6678   14.7391   21.4799 C   0  0  0  0  0  0  0  0  0  0  0  0
   29.1646   14.7718   21.7590 C   0  0  0  0  0  0  0  0  0  0  0  0
   29.6593   16.2064   21.9419 C   0  0  0  0  0  0  0  0  0  0  0  0
   31.1749   16.2673   22.0961 C   0  0  0  0  0  0  0  0  0  0  0  0
   31.8981   15.8761   20.8506 N   0  0  0  0  0  0  0  0  0  0  0  0
   27.1164   13.7428   18.3441 O   0  0  0  0  0  0  0  0  0  0  0  0
  2  1  1  6  0  0  0
  2  3  1  0  0  0  0
  2  5  1  0  0  0  0
  3  4  1  0  0  0  0
  3 10  1  0  0  0  0
  5  6  1  0  0  0  0
  6  7  1  0  0  0  0
  7  8  1  0  0  0  0
  8  9  1  0  0  0  0
M  END
>  <CHROM.1>
159.09778847,-169.84949831,67.52853346,-174.82227032,67.13332033,28.66472264
15.13368753,20.39431623,2.52785722,-0.08836614,-1.96065358

>  <Name>
ligand

>  <RI>
0

>  <Rbt.Current_Directory>
/home/itssahil/PROJECTS/Mol_Feturizer/New_Systems/rnas/3DJ2

>  <Rbt.Executable>
rbdock ($Id: //depot/dev/client3/rdock/2013.1/src/exe/rbdock.cxx#4 $)

>  <Rbt.Library>
libRbt.so (2013.1, Build901 2013/11/27)

>  <Rbt.Parameter_File>
/export/apps/rDock/src/rDock_2013.1_src/data/scripts/dock_solv.prm

>  <Rbt.Receptor>
prm/pocket_docking_4.prm

>  <SCORE>
-9.16188

>  <SCORE.INTER>
-8.09431

>  <SCORE.INTER.CONST>
1

>  <SCORE.INTER.POLAR>
0

>  <SCORE.INTER.ROT>
5

>  <SCORE.INTER.SOLV>
18.2795

>  <SCORE.INTER.VDW>
-18.4227

>  <SCORE.INTER.norm>
-0.809431

>  <SCORE.INTRA>
-1.06757

>  <SCORE.INTRA.DIHEDRAL>
-1.89692

>  <SCORE.INTRA.DIHEDRAL.0>
4.28128

>  <SCORE.INTRA.POLAR>
0

>  <SCORE.INTRA.POLAR.0>
0

>  <SCORE.INTRA.REPUL>
0

>  <SCORE.INTRA.REPUL.0>
0

>  <SCORE.INTRA.SOLV>
-0.0725789

>  <SCORE.INTRA.SOLV.lig_0>
-32.3374

>  <SCORE.INTRA.VDW>
-0.0828211

>  <SCORE.INTRA.VDW.0>
-0.659551

>  <SCORE.INTRA.norm>
-0.106757

>  <SCORE.RESTR>
0

>  <SCORE.RESTR.CAVITY>
0

>  <SCORE.RESTR.norm>
0

>  <SCORE.SYSTEM>
0

>  <SCORE.SYSTEM.CONST>
0

>  <SCORE.SYSTEM.DIHEDRAL>
0

>  <SCORE.SYSTEM.SOLV>
0

>  <SCORE.SYSTEM.norm>
0

>  <SCORE.heavy>
10

>  <SCORE.norm>
-0.916188

>  <RMSD>
5.331

$$$$
ligand
 OpenBabel11021811473D
libRbt.so/2013.1/901 2013/11/27
 10  9  0  0  0  0  0  0  0  0999 V2000
   27.3364   13.9251   18.7226 N   0  0  0  0  0  0  0  0  0  0  0  0
   28.0088   14.3080   19.9956 C   0  0  2  0  0  0  0  0  0  0  0  0
   27.0446   14.9689   20.9808 C   0  0  0  0  0  0  0  0  0  0  0  0
   27.3455   15.1553   22.1642 O   0  0  0  0  0  0  0  0  0  0  0  0
   29.2200   15.2039   19.7233 C   0  0  0  0  0  0  0  0  0  0  0  0
   30.0799   15.4826   20.9489 C   0  0  0  0  0  0  0  0  0  0  0  0
   31.3759   16.1945   20.5618 C   0  0  0  0  0  0  0  0  0  0  0  0
   32.1698   16.6316   21.7878 C   0  0  0  0  0  0  0  0  0  0  0  0
   31.4896   17.7119   22.5609 N   0  0  0  0  0  0  0  0  0  0  0  0
   25.9399   15.3577   20.6074 O   0  0  0  0  0  0  0  0  0  0  0  0
  2  1  1  6  0  0  0
  2  3  1  0  0  0  0
  2  5  1  0  0  0  0
  3  4  1  0  0  0  0
  3 10  1  0  0  0  0
  5  6  1  0  0  0  0
  6  7  1  0  0  0  0
  7  8  1  0  0  0  0
  8  9  1  0  0  0  0
M  END
>  <CHROM.1>
167.70187126,-171.84955073,171.16241944,173.09853238,-67.75179149,28.97001022
15.50317929,20.82487457,-2.69626098,0.22502342,1.04217468

>  <Name>
ligand

>  <RI>
0

>  <Rbt.Current_Directory>
/home/itssahil/PROJECTS/Mol_Feturizer/New_Systems/rnas/3DJ2

>  <Rbt.Executable>
rbdock ($Id: //depot/dev/client3/rdock/2013.1/src/exe/rbdock.cxx#4 $)

>  <Rbt.Library>
libRbt.so (2013.1, Build901 2013/11/27)

>  <Rbt.Parameter_File>
/export/apps/rDock/src/rDock_2013.1_src/data/scripts/dock_solv.prm

>  <Rbt.Receptor>
prm/pocket_docking_3.prm

>  <SCORE>
-8.91683

>  <SCORE.INTER>
-7.87715

>  <SCORE.INTER.CONST>
1

>  <SCORE.INTER.POLAR>
0

>  <SCORE.INTER.ROT>
5

>  <SCORE.INTER.SOLV>
15.3512

>  <SCORE.INTER.VDW>
-17.3018

>  <SCORE.INTER.norm>
-0.787715

>  <SCORE.INTRA>
-1.03969

>  <SCORE.INTRA.DIHEDRAL>
-1.81038

>  <SCORE.INTRA.DIHEDRAL.0>
4.28128

>  <SCORE.INTRA.POLAR>
0

>  <SCORE.INTRA.POLAR.0>
0

>  <SCORE.INTRA.REPUL>
0

>  <SCORE.INTRA.REPUL.0>
0

>  <SCORE.INTRA.SOLV>
-0.442401

>  <SCORE.INTRA.SOLV.lig_0>
-32.3374

>  <SCORE.INTRA.VDW>
0.0867056

>  <SCORE.INTRA.VDW.0>
-0.659551

>  <SCORE.INTRA.norm>
-0.103969

>  <SCORE.RESTR>
0

>  <SCORE.RESTR.CAVITY>
0

>  <SCORE.RESTR.norm>
0

>  <SCORE.SYSTEM>
0

>  <SCORE.SYSTEM.CONST>
0

>  <SCORE.SYSTEM.DIHEDRAL>
0

>  <SCORE.SYSTEM.SOLV>
0

>  <SCORE.SYSTEM.norm>
0

>  <SCORE.heavy>
10

>  <SCORE.norm>
-0.891683

>  <RMSD>
5.339

$$$$
ligand
 OpenBabel11021811473D
libRbt.so/2013.1/901 2013/11/27
 10  9  0  0  0  0  0  0  0  0999 V2000
   25.8090   15.5010   20.0296 N   0  0  0  0  0  0  0  0  0  0  0  0
   27.2848   15.3171   20.1149 C   0  0  2  0  0  0  0  0  0  0  0  0
   27.8320   14.4963   18.9469 C   0  0  0  0  0  0  0  0  0  0  0  0
   29.0193   14.5498   18.6102 O   0  0  0  0  0  0  0  0  0  0  0  0
   27.6793   14.6971   21.4579 C   0  0  0  0  0  0  0  0  0  0  0  0
   29.1730   14.7401   21.7520 C   0  0  0  0  0  0  0  0  0  0  0  0
   29.6573   16.1784   21.9332 C   0  0  0  0  0  0  0  0  0  0  0  0
   31.1714   16.2498   22.0963 C   0  0  0  0  0  0  0  0  0  0  0  0
   31.9041   15.8986   20.8445 N   0  0  0  0  0  0  0  0  0  0  0  0
   27.0977   13.7347   18.3211 O   0  0  0  0  0  0  0  0  0  0  0  0
  2  1  1  6  0  0  0
  2  3  1  0  0  0  0
  2  5  1  0  0  0  0
  3  4  1  0  0  0  0
  3 10  1  0  0  0  0
  5  6  1  0  0  0  0
  6  7  1  0  0  0  0
  7  8  1  0  0  0  0
  8  9  1  0  0  0  0
M  END
>  <CHROM.1>
158.60101316,-167.87885449,66.18704260,-174.57205637,68.84610881,28.66753719
15.11617804,20.37930277,2.52170303,-0.09171157,-1.95629533

>  <Name>
ligand

>  <RI>
0

>  <Rbt.Current_Directory>
/home/itssahil/PROJECTS/Mol_Feturizer/New_Systems/rnas/3DJ2

>  <Rbt.Executable>
rbdock ($Id: //depot/dev/client3/rdock/2013.1/src/exe/rbdock.cxx#4 $)

>  <Rbt.Library>
libRbt.so (2013.1, Build901 2013/11/27)

>  <Rbt.Parameter_File>
/export/apps/rDock/src/rDock_2013.1_src/data/scripts/dock_solv.prm

>  <Rbt.Receptor>
prm/pocket_docking_7.prm

>  <SCORE>
-9.12574

>  <SCORE.INTER>
-8.12163

>  <SCORE.INTER.CONST>
1

>  <SCORE.INTER.POLAR>
0

>  <SCORE.INTER.ROT>
5

>  <SCORE.INTER.SOLV>
18.2386

>  <SCORE.INTER.VDW>
-18.4273

>  <SCORE.INTER.norm>
-0.812163

>  <SCORE.INTRA>
-1.00411

>  <SCORE.INTRA.DIHEDRAL>
-1.70356

>  <SCORE.INTRA.DIHEDRAL.0>
4.28128

>  <SCORE.INTRA.POLAR>
0

>  <SCORE.INTRA.POLAR.0>
0

>  <SCORE.INTRA.REPUL>
0

>  <SCORE.INTRA.REPUL.0>
0

>  <SCORE.INTRA.SOLV>
-0.0990014

>  <SCORE.INTRA.SOLV.lig_0>
-32.3374

>  <SCORE.INTRA.VDW>
-0.102828

>  <SCORE.INTRA.VDW.0>
-0.659551

>  <SCORE.INTRA.norm>
-0.100411

>  <SCORE.RESTR>
0

>  <SCORE.RESTR.CAVITY>
0

>  <SCORE.RESTR.norm>
0

>  <SCORE.SYSTEM>
0

>  <SCORE.SYSTEM.CONST>
0

>  <SCORE.SYSTEM.DIHEDRAL>
0

>  <SCORE.SYSTEM.SOLV>
0

>  <SCORE.SYSTEM.norm>
0

>  <SCORE.heavy>
10

>  <SCORE.norm>
-0.912574

>  <RMSD>
5.339

$$$$
ligand
 OpenBabel11021811473D
libRbt.so/2013.1/901 2013/11/27
 10  9  0  0  0  0  0  0  0  0999 V2000
   27.0591   13.9952   18.6911 N   0  0  0  0  0  0  0  0  0  0  0  0
   27.7255   14.7731   19.7727 C   0  0  2  0  0  0  0  0  0  0  0  0
   26.8374   14.9198   21.0084 C   0  0  0  0  0  0  0  0  0  0  0  0
   27.3109   15.0492   22.1419 O   0  0  0  0  0  0  0  0  0  0  0  0
   28.1840   16.1397   19.2571 C   0  0  0  0  0  0  0  0  0  0  0  0
   29.1111   16.8875   20.2061 C   0  0  0  0  0  0  0  0  0  0  0  0
   30.4120   16.1159   20.4267 C   0  0  0  0  0  0  0  0  0  0  0  0
   31.4194   16.9244   21.2366 C   0  0  0  0  0  0  0  0  0  0  0  0
   30.9221   17.2652   22.6018 N   0  0  0  0  0  0  0  0  0  0  0  0
   25.6132   14.9365   20.8988 O   0  0  0  0  0  0  0  0  0  0  0  0
  2  1  1  6  0  0  0
  2  3  1  0  0  0  0
  2  5  1  0  0  0  0
  3  4  1  0  0  0  0
  3 10  1  0  0  0  0
  5  6  1  0  0  0  0
  6  7  1  0  0  0  0
  7  8  1  0  0  0  0
  8  9  1  0  0  0  0
M  END
>  <CHROM.1>
151.85082977,-168.52791184,62.53525651,173.09368381,61.35515428,28.43187787
15.69866081,20.64976778,-2.81221342,0.43453982,1.38522934

>  <Name>
ligand

>  <RI>
0

>  <Rbt.Current_Directory>
/home/itssahil/PROJECTS/Mol_Feturizer/New_Systems/rnas/3DJ2

>  <Rbt.Executable>
rbdock ($Id: //depot/dev/client3/rdock/2013.1/src/exe/rbdock.cxx#4 $)

>  <Rbt.Library>
libRbt.so (2013.1, Build901 2013/11/27)

>  <Rbt.Parameter_File>
/export/apps/rDock/src/rDock_2013.1_src/data/scripts/dock_solv.prm

>  <Rbt.Receptor>
prm/blind_docking_60.prm

>  <SCORE>
-10.0773

>  <SCORE.INTER>
-9.00805

>  <SCORE.INTER.CONST>
1

>  <SCORE.INTER.POLAR>
0

>  <SCORE.INTER.ROT>
5

>  <SCORE.INTER.SOLV>
15.5412

>  <SCORE.INTER.VDW>
-18.1191

>  <SCORE.INTER.norm>
-0.900805

>  <SCORE.INTRA>
-1.06927

>  <SCORE.INTRA.DIHEDRAL>
-2.1027

>  <SCORE.INTRA.DIHEDRAL.0>
4.28128

>  <SCORE.INTRA.POLAR>
0

>  <SCORE.INTRA.POLAR.0>
0

>  <SCORE.INTRA.REPUL>
0

>  <SCORE.INTRA.REPUL.0>
0

>  <SCORE.INTRA.SOLV>
-0.120254

>  <SCORE.INTRA.SOLV.lig_0>
-32.3374

>  <SCORE.INTRA.VDW>
0.0422036

>  <SCORE.INTRA.VDW.0>
-0.659551

>  <SCORE.INTRA.norm>
-0.106927

>  <SCORE.RESTR>
0

>  <SCORE.RESTR.CAVITY>
0

>  <SCORE.RESTR.norm>
0

>  <SCORE.SYSTEM>
0

>  <SCORE.SYSTEM.CONST>
0

>  <SCORE.SYSTEM.DIHEDRAL>
0

>  <SCORE.SYSTEM.SOLV>
0

>  <SCORE.SYSTEM.norm>
0

>  <SCORE.heavy>
10

>  <SCORE.norm>
-1.00773

>  <RMSD>
5.341

$$$$
ligand
 OpenBabel11021811473D
libRbt.so/2013.1/901 2013/11/27
 10  9  0  0  0  0  0  0  0  0999 V2000
   27.0508   14.0342   18.6667 N   0  0  0  0  0  0  0  0  0  0  0  0
   27.7402   14.7710   19.7626 C   0  0  2  0  0  0  0  0  0  0  0  0
   26.8411   14.9604   20.9845 C   0  0  0  0  0  0  0  0  0  0  0  0
   27.3046   15.1336   22.1163 O   0  0  0  0  0  0  0  0  0  0  0  0
   28.2797   16.1131   19.2609 C   0  0  0  0  0  0  0  0  0  0  0  0
   29.2390   16.8007   20.2233 C   0  0  0  0  0  0  0  0  0  0  0  0
   30.4969   15.9602   20.4413 C   0  0  0  0  0  0  0  0  0  0  0  0
   31.5745   16.7373   21.1891 C   0  0  0  0  0  0  0  0  0  0  0  0
   31.1321   17.1795   22.5441 N   0  0  0  0  0  0  0  0  0  0  0  0
   25.6178   14.9685   20.8641 O   0  0  0  0  0  0  0  0  0  0  0  0
  2  1  1  6  0  0  0
  2  3  1  0  0  0  0
  2  5  1  0  0  0  0
  3  4  1  0  0  0  0
  3 10  1  0  0  0  0
  5  6  1  0  0  0  0
  6  7  1  0  0  0  0
  7  8  1  0  0  0  0
  8  9  1  0  0  0  0
M  END
>  <CHROM.1>
155.92567651,-168.04056670,62.95474136,169.47180450,60.54540162,28.49946729
15.66515448,20.63061548,-2.81947442,0.38137428,1.36436633

>  <Name>
ligand

>  <RI>
0

>  <Rbt.Current_Directory>
/home/itssahil/PROJECTS/Mol_Feturizer/New_Systems/rnas/3DJ2

>  <Rbt.Executable>
rbdock ($Id: //depot/dev/client3/rdock/2013.1/src/exe/rbdock.cxx#4 $)

>  <Rbt.Library>
libRbt.so (2013.1, Build901 2013/11/27)

>  <Rbt.Parameter_File>
/export/apps/rDock/src/rDock_2013.1_src/data/scripts/dock_solv.prm

>  <Rbt.Receptor>
prm/pocket_docking_7.prm

>  <SCORE>
-10.2036

>  <SCORE.INTER>
-9.32228

>  <SCORE.INTER.CONST>
1

>  <SCORE.INTER.POLAR>
0

>  <SCORE.INTER.ROT>
5

>  <SCORE.INTER.SOLV>
14.8782

>  <SCORE.INTER.VDW>
-18.1076

>  <SCORE.INTER.norm>
-0.932228

>  <SCORE.INTRA>
-0.88127

>  <SCORE.INTRA.DIHEDRAL>
-1.80128

>  <SCORE.INTRA.DIHEDRAL.0>
4.28128

>  <SCORE.INTRA.POLAR>
0

>  <SCORE.INTRA.POLAR.0>
0

>  <SCORE.INTRA.REPUL>
0

>  <SCORE.INTRA.REPUL.0>
0

>  <SCORE.INTRA.SOLV>
-0.118213

>  <SCORE.INTRA.SOLV.lig_0>
-32.3374

>  <SCORE.INTRA.VDW>
0.0784777

>  <SCORE.INTRA.VDW.0>
-0.659551

>  <SCORE.INTRA.norm>
-0.088127

>  <SCORE.RESTR>
0

>  <SCORE.RESTR.CAVITY>
0

>  <SCORE.RESTR.norm>
0

>  <SCORE.SYSTEM>
0

>  <SCORE.SYSTEM.CONST>
0

>  <SCORE.SYSTEM.DIHEDRAL>
0

>  <SCORE.SYSTEM.SOLV>
0

>  <SCORE.SYSTEM.norm>
0

>  <SCORE.heavy>
10

>  <SCORE.norm>
-1.02036

>  <RMSD>
5.341

$$$$
ligand
 OpenBabel11021811473D
libRbt.so/2013.1/901 2013/11/27
 10  9  0  0  0  0  0  0  0  0999 V2000
   28.0526   14.2938   18.3492 N   0  0  0  0  0  0  0  0  0  0  0  0
   28.0426   14.4248   19.8331 C   0  0  2  0  0  0  0  0  0  0  0  0
   26.8207   15.1940   20.3357 C   0  0  0  0  0  0  0  0  0  0  0  0
   26.4725   16.2676   19.8338 O   0  0  0  0  0  0  0  0  0  0  0  0
   29.3410   15.0644   20.3318 C   0  0  0  0  0  0  0  0  0  0  0  0
   29.4364   15.1866   21.8468 C   0  0  0  0  0  0  0  0  0  0  0  0
   30.8010   15.7292   22.2706 C   0  0  0  0  0  0  0  0  0  0  0  0
   30.9929   17.1788   21.8390 C   0  0  0  0  0  0  0  0  0  0  0  0
   32.3299   17.7221   22.2191 N   0  0  0  0  0  0  0  0  0  0  0  0
   26.1319   14.7438   21.2488 O   0  0  0  0  0  0  0  0  0  0  0  0
  2  1  1  6  0  0  0
  2  3  1  0  0  0  0
  2  5  1  0  0  0  0
  3  4  1  0  0  0  0
  3 10  1  0  0  0  0
  5  6  1  0  0  0  0
  6  7  1  0  0  0  0
  7  8  1  0  0  0  0
  8  9  1  0  0  0  0
M  END
>  <CHROM.1>
-48.00789939,-177.75762362,175.47634265,67.51139247,-178.88430142,28.80535748
15.59207252,20.81718824,-2.58562211,0.11580124,1.02673272

>  <Name>
ligand

>  <RI>
0

>  <Rbt.Current_Directory>
/home/itssahil/PROJECTS/Mol_Feturizer/New_Systems/rnas/3DJ2

>  <Rbt.Executable>
rbdock ($Id: //depot/dev/client3/rdock/2013.1/src/exe/rbdock.cxx#4 $)

>  <Rbt.Library>
libRbt.so (2013.1, Build901 2013/11/27)

>  <Rbt.Parameter_File>
/export/apps/rDock/src/rDock_2013.1_src/data/scripts/dock_solv.prm

>  <Rbt.Receptor>
prm/pocket_docking_3.prm

>  <SCORE>
-10.0232

>  <SCORE.INTER>
-8.7193

>  <SCORE.INTER.CONST>
1

>  <SCORE.INTER.POLAR>
0

>  <SCORE.INTER.ROT>
5

>  <SCORE.INTER.SOLV>
14.0287

>  <SCORE.INTER.VDW>
-17.4224

>  <SCORE.INTER.norm>
-0.87193

>  <SCORE.INTRA>
-1.30393

>  <SCORE.INTRA.DIHEDRAL>
-2.39421

>  <SCORE.INTRA.DIHEDRAL.0>
4.28128

>  <SCORE.INTRA.POLAR>
0

>  <SCORE.INTRA.POLAR.0>
0

>  <SCORE.INTRA.REPUL>
0

>  <SCORE.INTRA.REPUL.0>
0

>  <SCORE.INTRA.SOLV>
-1.10401

>  <SCORE.INTRA.SOLV.lig_0>
-32.3374

>  <SCORE.INTRA.VDW>
0.445179

>  <SCORE.INTRA.VDW.0>
-0.659551

>  <SCORE.INTRA.norm>
-0.130393

>  <SCORE.RESTR>
0

>  <SCORE.RESTR.CAVITY>
0

>  <SCORE.RESTR.norm>
0

>  <SCORE.SYSTEM>
0

>  <SCORE.SYSTEM.CONST>
0

>  <SCORE.SYSTEM.DIHEDRAL>
0

>  <SCORE.SYSTEM.SOLV>
0

>  <SCORE.SYSTEM.norm>
0

>  <SCORE.heavy>
10

>  <SCORE.norm>
-1.00232

>  <RMSD>
5.342

$$$$
ligand
 OpenBabel11021811473D
libRbt.so/2013.1/901 2013/11/27
 10  9  0  0  0  0  0  0  0  0999 V2000
   27.0911   14.0488   18.6737 N   0  0  0  0  0  0  0  0  0  0  0  0
   27.7567   14.7866   19.7837 C   0  0  2  0  0  0  0  0  0  0  0  0
   26.8368   14.9623   20.9921 C   0  0  0  0  0  0  0  0  0  0  0  0
   25.6064   14.9489   20.8841 O   0  0  0  0  0  0  0  0  0  0  0  0
   28.2919   16.1357   19.2965 C   0  0  0  0  0  0  0  0  0  0  0  0
   29.2457   16.8179   20.2681 C   0  0  0  0  0  0  0  0  0  0  0  0
   30.5200   15.9954   20.4577 C   0  0  0  0  0  0  0  0  0  0  0  0
   31.5897   16.7748   21.2144 C   0  0  0  0  0  0  0  0  0  0  0  0
   31.1570   17.1633   22.5889 N   0  0  0  0  0  0  0  0  0  0  0  0
   27.3068   15.0994   22.1196 O   0  0  0  0  0  0  0  0  0  0  0  0
  2  1  1  6  0  0  0
  2  3  1  0  0  0  0
  2  5  1  0  0  0  0
  3  4  1  0  0  0  0
  3 10  1  0  0  0  0
  5  6  1  0  0  0  0
  6  7  1  0  0  0  0
  7  8  1  0  0  0  0
  8  9  1  0  0  0  0
M  END
>  <CHROM.1>
-24.54590871,-167.19449155,64.20201973,169.39439162,61.29851732,28.51172221
15.67166693,20.65315386,-2.82391389,0.38635367,1.37455753

>  <Name>
ligand

>  <RI>
0

>  <Rbt.Current_Directory>
/home/itssahil/PROJECTS/Mol_Feturizer/New_Systems/rnas/3DJ2

>  <Rbt.Executable>
rbdock ($Id: //depot/dev/client3/rdock/2013.1/src/exe/rbdock.cxx#4 $)

>  <Rbt.Library>
libRbt.so (2013.1, Build901 2013/11/27)

>  <Rbt.Parameter_File>
/export/apps/rDock/src/rDock_2013.1_src/data/scripts/dock_solv.prm

>  <Rbt.Receptor>
prm/pocket_docking_3.prm

>  <SCORE>
-10.0893

>  <SCORE.INTER>
-9.25481

>  <SCORE.INTER.CONST>
1

>  <SCORE.INTER.POLAR>
0

>  <SCORE.INTER.ROT>
5

>  <SCORE.INTER.SOLV>
14.8209

>  <SCORE.INTER.VDW>
-18.0435

>  <SCORE.INTER.norm>
-0.925481

>  <SCORE.INTRA>
-0.834507

>  <SCORE.INTRA.DIHEDRAL>
-1.58277

>  <SCORE.INTRA.DIHEDRAL.0>
4.28128

>  <SCORE.INTRA.POLAR>
0

>  <SCORE.INTRA.POLAR.0>
0

>  <SCORE.INTRA.REPUL>
0

>  <SCORE.INTRA.REPUL.0>
0

>  <SCORE.INTRA.SOLV>
-0.130026

>  <SCORE.INTRA.SOLV.lig_0>
-32.3374

>  <SCORE.INTRA.VDW>
0.0218933

>  <SCORE.INTRA.VDW.0>
-0.659551

>  <SCORE.INTRA.norm>
-0.0834507

>  <SCORE.RESTR>
0

>  <SCORE.RESTR.CAVITY>
0

>  <SCORE.RESTR.norm>
0

>  <SCORE.SYSTEM>
0

>  <SCORE.SYSTEM.CONST>
0

>  <SCORE.SYSTEM.DIHEDRAL>
0

>  <SCORE.SYSTEM.SOLV>
0

>  <SCORE.SYSTEM.norm>
0

>  <SCORE.heavy>
10

>  <SCORE.norm>
-1.00893

>  <RMSD>
5.343

$$$$
ligand
 OpenBabel11021811473D
libRbt.so/2013.1/901 2013/11/27
 10  9  0  0  0  0  0  0  0  0999 V2000
   28.5464   16.8303   19.9309 N   0  0  0  0  0  0  0  0  0  0  0  0
   28.4901   15.3805   20.2685 C   0  0  2  0  0  0  0  0  0  0  0  0
   27.1099   14.7796   20.0015 C   0  0  0  0  0  0  0  0  0  0  0  0
   26.9171   13.9624   19.0954 O   0  0  0  0  0  0  0  0  0  0  0  0
   28.9255   15.1415   21.7166 C   0  0  0  0  0  0  0  0  0  0  0  0
   30.3966   15.4317   21.9834 C   0  0  0  0  0  0  0  0  0  0  0  0
   30.6839   16.9312   21.9110 C   0  0  0  0  0  0  0  0  0  0  0  0
   32.1721   17.2300   22.0532 C   0  0  0  0  0  0  0  0  0  0  0  0
   32.9777   16.7071   20.9108 N   0  0  0  0  0  0  0  0  0  0  0  0
   26.1503   15.0819   20.7076 O   0  0  0  0  0  0  0  0  0  0  0  0
  2  1  1  1  0  0  0
  2  3  1  0  0  0  0
  2  5  1  0  0  0  0
  3  4  1  0  0  0  0
  3 10  1  0  0  0  0
  5  6  1  0  0  0  0
  6  7  1  0  0  0  0
  7  8  1  0  0  0  0
  8  9  1  0  0  0  0
M  END
>  <CHROM.1>
111.18613726,-67.34263627,69.89289622,-174.95872444,65.89601657,29.19667753
15.72951276,20.84772086,-2.81753756,0.36225970,1.49372831

>  <Name>
ligand

>  <RI>
0

>  <Rbt.Current_Directory>
/home/itssahil/PROJECTS/Mol_Feturizer/New_Systems/rnas/3DJ2

>  <Rbt.Executable>
rbdock ($Id: //depot/dev/client3/rdock/2013.1/src/exe/rbdock.cxx#4 $)

>  <Rbt.Library>
libRbt.so (2013.1, Build901 2013/11/27)

>  <Rbt.Parameter_File>
/export/apps/rDock/src/rDock_2013.1_src/data/scripts/dock_solv.prm

>  <Rbt.Receptor>
prm/pocket_docking_3.prm

>  <SCORE>
-8.29619

>  <SCORE.INTER>
-8.60554

>  <SCORE.INTER.CONST>
1

>  <SCORE.INTER.POLAR>
0

>  <SCORE.INTER.ROT>
5

>  <SCORE.INTER.SOLV>
14.4869

>  <SCORE.INTER.VDW>
-17.4993

>  <SCORE.INTER.norm>
-0.860554

>  <SCORE.INTRA>
0.309347

>  <SCORE.INTRA.DIHEDRAL>
-1.86708

>  <SCORE.INTRA.DIHEDRAL.0>
4.28128

>  <SCORE.INTRA.POLAR>
0

>  <SCORE.INTRA.POLAR.0>
0

>  <SCORE.INTRA.REPUL>
0

>  <SCORE.INTRA.REPUL.0>
0

>  <SCORE.INTRA.SOLV>
1.84965

>  <SCORE.INTRA.SOLV.lig_0>
-32.3374

>  <SCORE.INTRA.VDW>
0.318066

>  <SCORE.INTRA.VDW.0>
-0.659551

>  <SCORE.INTRA.norm>
0.0309347

>  <SCORE.RESTR>
0

>  <SCORE.RESTR.CAVITY>
0

>  <SCORE.RESTR.norm>
0

>  <SCORE.SYSTEM>
0

>  <SCORE.SYSTEM.CONST>
0

>  <SCORE.SYSTEM.DIHEDRAL>
0

>  <SCORE.SYSTEM.SOLV>
0

>  <SCORE.SYSTEM.norm>
0

>  <SCORE.heavy>
10

>  <SCORE.norm>
-0.829619

>  <RMSD>
5.344

$$$$
ligand
 OpenBabel11021811473D
libRbt.so/2013.1/901 2013/11/27
 10  9  0  0  0  0  0  0  0  0999 V2000
   27.0544   14.0245   18.6438 N   0  0  0  0  0  0  0  0  0  0  0  0
   27.7409   14.7546   19.7460 C   0  0  2  0  0  0  0  0  0  0  0  0
   26.8412   14.9294   20.9696 C   0  0  0  0  0  0  0  0  0  0  0  0
   27.3041   15.0709   22.1061 O   0  0  0  0  0  0  0  0  0  0  0  0
   28.2744   16.1033   19.2559 C   0  0  0  0  0  0  0  0  0  0  0  0
   29.2286   16.7881   20.2254 C   0  0  0  0  0  0  0  0  0  0  0  0
   30.5013   15.9642   20.4196 C   0  0  0  0  0  0  0  0  0  0  0  0
   31.5674   16.7408   21.1841 C   0  0  0  0  0  0  0  0  0  0  0  0
   31.1133   17.1602   22.5425 N   0  0  0  0  0  0  0  0  0  0  0  0
   25.6185   14.9575   20.8466 O   0  0  0  0  0  0  0  0  0  0  0  0
  2  1  1  6  0  0  0
  2  3  1  0  0  0  0
  2  5  1  0  0  0  0
  3  4  1  0  0  0  0
  3 10  1  0  0  0  0
  5  6  1  0  0  0  0
  6  7  1  0  0  0  0
  7  8  1  0  0  0  0
  8  9  1  0  0  0  0
M  END
>  <CHROM.1>
154.60655011,-168.16644844,63.96504134,169.87409330,59.63744042,28.49621418
15.64828410,20.61930641,-2.82094538,0.38746562,1.37361641

>  <Name>
ligand

>  <RI>
0

>  <Rbt.Current_Directory>
/home/itssahil/PROJECTS/Mol_Feturizer/New_Systems/rnas/3DJ2

>  <Rbt.Executable>
rbdock ($Id: //depot/dev/client3/rdock/2013.1/src/exe/rbdock.cxx#4 $)

>  <Rbt.Library>
libRbt.so (2013.1, Build901 2013/11/27)

>  <Rbt.Parameter_File>
/export/apps/rDock/src/rDock_2013.1_src/data/scripts/dock_solv.prm

>  <Rbt.Receptor>
prm/pocket_docking_3.prm

>  <SCORE>
-10.1486

>  <SCORE.INTER>
-9.24221

>  <SCORE.INTER.CONST>
1

>  <SCORE.INTER.POLAR>
0

>  <SCORE.INTER.ROT>
5

>  <SCORE.INTER.SOLV>
14.9186

>  <SCORE.INTER.VDW>
-18.0677

>  <SCORE.INTER.norm>
-0.924221

>  <SCORE.INTRA>
-0.906424

>  <SCORE.INTRA.DIHEDRAL>
-1.81731

>  <SCORE.INTRA.DIHEDRAL.0>
4.28128

>  <SCORE.INTRA.POLAR>
0

>  <SCORE.INTRA.POLAR.0>
0

>  <SCORE.INTRA.REPUL>
0

>  <SCORE.INTRA.REPUL.0>
0

>  <SCORE.INTRA.SOLV>
-0.110843

>  <SCORE.INTRA.SOLV.lig_0>
-32.3374

>  <SCORE.INTRA.VDW>
0.0576512

>  <SCORE.INTRA.VDW.0>
-0.659551

>  <SCORE.INTRA.norm>
-0.0906424

>  <SCORE.RESTR>
0

>  <SCORE.RESTR.CAVITY>
0

>  <SCORE.RESTR.norm>
0

>  <SCORE.SYSTEM>
0

>  <SCORE.SYSTEM.CONST>
0

>  <SCORE.SYSTEM.DIHEDRAL>
0

>  <SCORE.SYSTEM.SOLV>
0

>  <SCORE.SYSTEM.norm>
0

>  <SCORE.heavy>
10

>  <SCORE.norm>
-1.01486

>  <RMSD>
5.345

$$$$
ligand
 OpenBabel11021811473D
libRbt.so/2013.1/901 2013/11/27
 10  9  0  0  0  0  0  0  0  0999 V2000
   28.0635   14.8041   18.9385 N   0  0  0  0  0  0  0  0  0  0  0  0
   28.1362   14.5147   20.3981 C   0  0  2  0  0  0  0  0  0  0  0  0
   26.8930   14.9990   21.1444 C   0  0  0  0  0  0  0  0  0  0  0  0
   25.8280   15.2263   20.5614 O   0  0  0  0  0  0  0  0  0  0  0  0
   29.4107   15.1050   21.0072 C   0  0  0  0  0  0  0  0  0  0  0  0
   29.5470   16.6119   20.8338 C   0  0  0  0  0  0  0  0  0  0  0  0
   30.8600   17.1183   21.4302 C   0  0  0  0  0  0  0  0  0  0  0  0
   32.0662   16.6470   20.6257 C   0  0  0  0  0  0  0  0  0  0  0  0
   33.3600   17.1404   21.1826 N   0  0  0  0  0  0  0  0  0  0  0  0
   26.9174   15.1533   22.3637 O   0  0  0  0  0  0  0  0  0  0  0  0
  2  1  1  6  0  0  0
  2  3  1  0  0  0  0
  2  5  1  0  0  0  0
  3  4  1  0  0  0  0
  3 10  1  0  0  0  0
  5  6  1  0  0  0  0
  6  7  1  0  0  0  0
  7  8  1  0  0  0  0
  8  9  1  0  0  0  0
M  END
>  <CHROM.1>
19.75673405,58.48821361,-178.33273322,69.11579330,179.46148306,29.06985665
15.73593967,20.86492505,-2.99236535,0.30921073,1.20345249

>  <Name>
ligand

>  <RI>
0

>  <Rbt.Current_Directory>
/home/itssahil/PROJECTS/Mol_Feturizer/New_Systems/rnas/3DJ2

>  <Rbt.Executable>
rbdock ($Id: //depot/dev/client3/rdock/2013.1/src/exe/rbdock.cxx#4 $)

>  <Rbt.Library>
libRbt.so (2013.1, Build901 2013/11/27)

>  <Rbt.Parameter_File>
/export/apps/rDock/src/rDock_2013.1_src/data/scripts/dock_solv.prm

>  <Rbt.Receptor>
prm/pocket_docking_4.prm

>  <SCORE>
-9.93945

>  <SCORE.INTER>
-9.49588

>  <SCORE.INTER.CONST>
1

>  <SCORE.INTER.POLAR>
0

>  <SCORE.INTER.ROT>
5

>  <SCORE.INTER.SOLV>
13.5056

>  <SCORE.INTER.VDW>
-17.7658

>  <SCORE.INTER.norm>
-0.949588

>  <SCORE.INTRA>
-0.443571

>  <SCORE.INTRA.DIHEDRAL>
-2.42941

>  <SCORE.INTRA.DIHEDRAL.0>
4.28128

>  <SCORE.INTRA.POLAR>
0

>  <SCORE.INTRA.POLAR.0>
0

>  <SCORE.INTRA.REPUL>
0

>  <SCORE.INTRA.REPUL.0>
0

>  <SCORE.INTRA.SOLV>
-0.205398

>  <SCORE.INTRA.SOLV.lig_0>
-32.3374

>  <SCORE.INTRA.VDW>
0.873833

>  <SCORE.INTRA.VDW.0>
-0.659551

>  <SCORE.INTRA.norm>
-0.0443571

>  <SCORE.RESTR>
0

>  <SCORE.RESTR.CAVITY>
0

>  <SCORE.RESTR.norm>
0

>  <SCORE.SYSTEM>
0

>  <SCORE.SYSTEM.CONST>
0

>  <SCORE.SYSTEM.DIHEDRAL>
0

>  <SCORE.SYSTEM.SOLV>
0

>  <SCORE.SYSTEM.norm>
0

>  <SCORE.heavy>
10

>  <SCORE.norm>
-0.993945

>  <RMSD>
5.348

$$$$
ligand
 OpenBabel11021811473D
libRbt.so/2013.1/901 2013/11/27
 10  9  0  0  0  0  0  0  0  0999 V2000
   27.2328   14.2427   18.6181 N   0  0  0  0  0  0  0  0  0  0  0  0
   27.8426   14.7727   19.8697 C   0  0  2  0  0  0  0  0  0  0  0  0
   26.8095   14.9558   20.9816 C   0  0  0  0  0  0  0  0  0  0  0  0
   27.1359   15.0345   22.1704 O   0  0  0  0  0  0  0  0  0  0  0  0
   28.5978   16.0763   19.5976 C   0  0  0  0  0  0  0  0  0  0  0  0
   29.4079   16.5886   20.7811 C   0  0  0  0  0  0  0  0  0  0  0  0
   30.4946   15.5899   21.1780 C   0  0  0  0  0  0  0  0  0  0  0  0
   31.3012   16.0774   22.3765 C   0  0  0  0  0  0  0  0  0  0  0  0
   32.0641   17.3274   22.0890 N   0  0  0  0  0  0  0  0  0  0  0  0
   25.6141   15.0545   20.7130 O   0  0  0  0  0  0  0  0  0  0  0  0
  2  1  1  6  0  0  0
  2  3  1  0  0  0  0
  2  5  1  0  0  0  0
  3  4  1  0  0  0  0
  3 10  1  0  0  0  0
  5  6  1  0  0  0  0
  6  7  1  0  0  0  0
  7  8  1  0  0  0  0
  8  9  1  0  0  0  0
M  END
>  <CHROM.1>
160.27521278,-172.18938710,61.96353729,-179.07901332,-63.83919001,28.61821912
15.57167918,20.85936351,-2.78147400,0.31292203,1.42393413

>  <Name>
ligand

>  <RI>
0

>  <Rbt.Current_Directory>
/home/itssahil/PROJECTS/Mol_Feturizer/New_Systems/rnas/3DJ2

>  <Rbt.Executable>
rbdock ($Id: //depot/dev/client3/rdock/2013.1/src/exe/rbdock.cxx#4 $)

>  <Rbt.Library>
libRbt.so (2013.1, Build901 2013/11/27)

>  <Rbt.Parameter_File>
/export/apps/rDock/src/rDock_2013.1_src/data/scripts/dock_solv.prm

>  <Rbt.Receptor>
prm/pocket_docking_8.prm

>  <SCORE>
-10.9729

>  <SCORE.INTER>
-9.84492

>  <SCORE.INTER.CONST>
1

>  <SCORE.INTER.POLAR>
0

>  <SCORE.INTER.ROT>
5

>  <SCORE.INTER.SOLV>
14.1367

>  <SCORE.INTER.VDW>
-18.2088

>  <SCORE.INTER.norm>
-0.984492

>  <SCORE.INTRA>
-1.128

>  <SCORE.INTRA.DIHEDRAL>
-2.51004

>  <SCORE.INTRA.DIHEDRAL.0>
4.28128

>  <SCORE.INTRA.POLAR>
0

>  <SCORE.INTRA.POLAR.0>
0

>  <SCORE.INTRA.REPUL>
0

>  <SCORE.INTRA.REPUL.0>
0

>  <SCORE.INTRA.SOLV>
-0.149143

>  <SCORE.INTRA.SOLV.lig_0>
-32.3374

>  <SCORE.INTRA.VDW>
0.201593

>  <SCORE.INTRA.VDW.0>
-0.659551

>  <SCORE.INTRA.norm>
-0.1128

>  <SCORE.RESTR>
0

>  <SCORE.RESTR.CAVITY>
0

>  <SCORE.RESTR.norm>
0

>  <SCORE.SYSTEM>
0

>  <SCORE.SYSTEM.CONST>
0

>  <SCORE.SYSTEM.DIHEDRAL>
0

>  <SCORE.SYSTEM.SOLV>
0

>  <SCORE.SYSTEM.norm>
0

>  <SCORE.heavy>
10

>  <SCORE.norm>
-1.09729

>  <RMSD>
5.349

$$$$
ligand
 OpenBabel11021811473D
libRbt.so/2013.1/901 2013/11/27
 10  9  0  0  0  0  0  0  0  0999 V2000
   27.3577   14.2244   18.5757 N   0  0  0  0  0  0  0  0  0  0  0  0
   27.9111   14.7622   19.8501 C   0  0  2  0  0  0  0  0  0  0  0  0
   26.8326   14.9339   20.9198 C   0  0  0  0  0  0  0  0  0  0  0  0
   27.0936   14.8777   22.1259 O   0  0  0  0  0  0  0  0  0  0  0  0
   28.6614   16.0743   19.6069 C   0  0  0  0  0  0  0  0  0  0  0  0
   29.4435   16.5801   20.8117 C   0  0  0  0  0  0  0  0  0  0  0  0
   30.5920   15.6334   21.1596 C   0  0  0  0  0  0  0  0  0  0  0  0
   31.3809   16.1210   22.3697 C   0  0  0  0  0  0  0  0  0  0  0  0
   32.0315   17.4443   22.1397 N   0  0  0  0  0  0  0  0  0  0  0  0
   25.6670   15.1590   20.6007 O   0  0  0  0  0  0  0  0  0  0  0  0
  2  1  1  6  0  0  0
  2  3  1  0  0  0  0
  2  5  1  0  0  0  0
  3  4  1  0  0  0  0
  3 10  1  0  0  0  0
  5  6  1  0  0  0  0
  6  7  1  0  0  0  0
  7  8  1  0  0  0  0
  8  9  1  0  0  0  0
M  END
>  <CHROM.1>
152.59736251,-170.87050395,65.94164635,-179.65840889,-62.12269937,28.66432297
15.58031114,20.83682669,-2.76661608,0.31978718,1.41167164

>  <Name>
ligand

>  <RI>
0

>  <Rbt.Current_Directory>
/home/itssahil/PROJECTS/Mol_Feturizer/New_Systems/rnas/3DJ2

>  <Rbt.Executable>
rbdock ($Id: //depot/dev/client3/rdock/2013.1/src/exe/rbdock.cxx#4 $)

>  <Rbt.Library>
libRbt.so (2013.1, Build901 2013/11/27)

>  <Rbt.Parameter_File>
/export/apps/rDock/src/rDock_2013.1_src/data/scripts/dock_solv.prm

>  <Rbt.Receptor>
prm/pocket_docking_6.prm

>  <SCORE>
-11.0058

>  <SCORE.INTER>
-9.80349

>  <SCORE.INTER.CONST>
1

>  <SCORE.INTER.POLAR>
0

>  <SCORE.INTER.ROT>
5

>  <SCORE.INTER.SOLV>
13.9995

>  <SCORE.INTER.VDW>
-18.1355

>  <SCORE.INTER.norm>
-0.980349

>  <SCORE.INTRA>
-1.20232

>  <SCORE.INTRA.DIHEDRAL>
-2.34447

>  <SCORE.INTRA.DIHEDRAL.0>
4.28128

>  <SCORE.INTRA.POLAR>
0

>  <SCORE.INTRA.POLAR.0>
0

>  <SCORE.INTRA.REPUL>
0

>  <SCORE.INTRA.REPUL.0>
0

>  <SCORE.INTRA.SOLV>
-0.136036

>  <SCORE.INTRA.SOLV.lig_0>
-32.3374

>  <SCORE.INTRA.VDW>
0.037935

>  <SCORE.INTRA.VDW.0>
-0.659551

>  <SCORE.INTRA.norm>
-0.120232

>  <SCORE.RESTR>
0

>  <SCORE.RESTR.CAVITY>
0

>  <SCORE.RESTR.norm>
0

>  <SCORE.SYSTEM>
0

>  <SCORE.SYSTEM.CONST>
0

>  <SCORE.SYSTEM.DIHEDRAL>
0

>  <SCORE.SYSTEM.SOLV>
0

>  <SCORE.SYSTEM.norm>
0

>  <SCORE.heavy>
10

>  <SCORE.norm>
-1.10058

>  <RMSD>
5.351

$$$$
ligand
 OpenBabel11021811473D
libRbt.so/2013.1/901 2013/11/27
 10  9  0  0  0  0  0  0  0  0999 V2000
   28.6405   14.5750   19.2844 N   0  0  0  0  0  0  0  0  0  0  0  0
   28.2500   15.2486   20.5545 C   0  0  2  0  0  0  0  0  0  0  0  0
   26.7535   15.1196   20.8389 C   0  0  0  0  0  0  0  0  0  0  0  0
   26.3268   14.7415   21.9347 O   0  0  0  0  0  0  0  0  0  0  0  0
   28.6864   16.7161   20.5487 C   0  0  0  0  0  0  0  0  0  0  0  0
   30.1956   16.9197   20.5405 C   0  0  0  0  0  0  0  0  0  0  0  0
   30.8267   16.4125   21.8369 C   0  0  0  0  0  0  0  0  0  0  0  0
   32.3018   16.7860   21.9325 C   0  0  0  0  0  0  0  0  0  0  0  0
   33.0966   16.3026   20.7655 N   0  0  0  0  0  0  0  0  0  0  0  0
   25.9268   15.4163   19.9789 O   0  0  0  0  0  0  0  0  0  0  0  0
  2  1  1  6  0  0  0
  2  3  1  0  0  0  0
  2  5  1  0  0  0  0
  3  4  1  0  0  0  0
  3 10  1  0  0  0  0
  5  6  1  0  0  0  0
  6  7  1  0  0  0  0
  7  8  1  0  0  0  0
  8  9  1  0  0  0  0
M  END
>  <CHROM.1>
130.35411136,-65.75831049,-65.58885351,-171.86488620,-55.94450850,29.05642860
15.81724269,20.82721701,-2.98008929,0.23354874,1.34343360

>  <Name>
ligand

>  <RI>
0

>  <Rbt.Current_Directory>
/home/itssahil/PROJECTS/Mol_Feturizer/New_Systems/rnas/3DJ2

>  <Rbt.Executable>
rbdock ($Id: //depot/dev/client3/rdock/2013.1/src/exe/rbdock.cxx#4 $)

>  <Rbt.Library>
libRbt.so (2013.1, Build901 2013/11/27)

>  <Rbt.Parameter_File>
/export/apps/rDock/src/rDock_2013.1_src/data/scripts/dock_solv.prm

>  <Rbt.Receptor>
prm/pocket_docking_3.prm

>  <SCORE>
-9.04706

>  <SCORE.INTER>
-8.57758

>  <SCORE.INTER.CONST>
1

>  <SCORE.INTER.POLAR>
0

>  <SCORE.INTER.ROT>
5

>  <SCORE.INTER.SOLV>
13.6145

>  <SCORE.INTER.VDW>
-17.1899

>  <SCORE.INTER.norm>
-0.857758

>  <SCORE.INTRA>
-0.46947

>  <SCORE.INTRA.DIHEDRAL>
-2.16983

>  <SCORE.INTRA.DIHEDRAL.0>
4.28128

>  <SCORE.INTRA.POLAR>
0

>  <SCORE.INTRA.POLAR.0>
0

>  <SCORE.INTRA.REPUL>
0

>  <SCORE.INTRA.REPUL.0>
0

>  <SCORE.INTRA.SOLV>
0.929883

>  <SCORE.INTRA.SOLV.lig_0>
-32.3374

>  <SCORE.INTRA.VDW>
0.150505

>  <SCORE.INTRA.VDW.0>
-0.659551

>  <SCORE.INTRA.norm>
-0.046947

>  <SCORE.RESTR>
0

>  <SCORE.RESTR.CAVITY>
0

>  <SCORE.RESTR.norm>
0

>  <SCORE.SYSTEM>
0

>  <SCORE.SYSTEM.CONST>
0

>  <SCORE.SYSTEM.DIHEDRAL>
0

>  <SCORE.SYSTEM.SOLV>
0

>  <SCORE.SYSTEM.norm>
0

>  <SCORE.heavy>
10

>  <SCORE.norm>
-0.904706

>  <RMSD>
5.355

$$$$
ligand
 OpenBabel11021811473D
libRbt.so/2013.1/901 2013/11/27
 10  9  0  0  0  0  0  0  0  0999 V2000
   26.0976   14.9259   20.6978 N   0  0  0  0  0  0  0  0  0  0  0  0
   27.0576   15.7310   19.8919 C   0  0  2  0  0  0  0  0  0  0  0  0
   27.5406   14.9796   18.6512 C   0  0  0  0  0  0  0  0  0  0  0  0
   28.2129   15.5310   17.7737 O   0  0  0  0  0  0  0  0  0  0  0  0
   28.2372   16.1925   20.7518 C   0  0  0  0  0  0  0  0  0  0  0  0
   29.0758   15.0573   21.3242 C   0  0  0  0  0  0  0  0  0  0  0  0
   30.1467   15.5897   22.2760 C   0  0  0  0  0  0  0  0  0  0  0  0
   31.1579   16.4727   21.5535 C   0  0  0  0  0  0  0  0  0  0  0  0
   31.9012   15.7434   20.4844 N   0  0  0  0  0  0  0  0  0  0  0  0
   27.2879   13.7853   18.5068 O   0  0  0  0  0  0  0  0  0  0  0  0
  2  1  1  1  0  0  0
  2  3  1  0  0  0  0
  2  5  1  0  0  0  0
  3  4  1  0  0  0  0
  3 10  1  0  0  0  0
  5  6  1  0  0  0  0
  6  7  1  0  0  0  0
  7  8  1  0  0  0  0
  8  9  1  0  0  0  0
M  END
>  <CHROM.1>
171.21291869,62.21530865,-174.50930846,-64.09973648,-61.31472278,28.67336956
15.38375520,20.15780785,2.55510654,-0.17924934,-1.73255792

>  <Name>
ligand

>  <RI>
0

>  <Rbt.Current_Directory>
/home/itssahil/PROJECTS/Mol_Feturizer/New_Systems/rnas/3DJ2

>  <Rbt.Executable>
rbdock ($Id: //depot/dev/client3/rdock/2013.1/src/exe/rbdock.cxx#4 $)

>  <Rbt.Library>
libRbt.so (2013.1, Build901 2013/11/27)

>  <Rbt.Parameter_File>
/export/apps/rDock/src/rDock_2013.1_src/data/scripts/dock_solv.prm

>  <Rbt.Receptor>
prm/pocket_docking_5.prm

>  <SCORE>
-8.6213

>  <SCORE.INTER>
-8.59646

>  <SCORE.INTER.CONST>
1

>  <SCORE.INTER.POLAR>
0

>  <SCORE.INTER.ROT>
5

>  <SCORE.INTER.SOLV>
17.8391

>  <SCORE.INTER.VDW>
-18.6107

>  <SCORE.INTER.norm>
-0.859646

>  <SCORE.INTRA>
-0.0248412

>  <SCORE.INTRA.DIHEDRAL>
-2.56639

>  <SCORE.INTRA.DIHEDRAL.0>
4.28128

>  <SCORE.INTRA.POLAR>
0

>  <SCORE.INTRA.POLAR.0>
0

>  <SCORE.INTRA.REPUL>
0

>  <SCORE.INTRA.REPUL.0>
0

>  <SCORE.INTRA.SOLV>
1.06294

>  <SCORE.INTRA.SOLV.lig_0>
-32.3374

>  <SCORE.INTRA.VDW>
0.726882

>  <SCORE.INTRA.VDW.0>
-0.659551

>  <SCORE.INTRA.norm>
-0.00248412

>  <SCORE.RESTR>
0

>  <SCORE.RESTR.CAVITY>
0

>  <SCORE.RESTR.norm>
0

>  <SCORE.SYSTEM>
0

>  <SCORE.SYSTEM.CONST>
0

>  <SCORE.SYSTEM.DIHEDRAL>
0

>  <SCORE.SYSTEM.SOLV>
0

>  <SCORE.SYSTEM.norm>
0

>  <SCORE.heavy>
10

>  <SCORE.norm>
-0.86213

>  <RMSD>
5.356

$$$$
ligand
 OpenBabel11021811473D
libRbt.so/2013.1/901 2013/11/27
 10  9  0  0  0  0  0  0  0  0999 V2000
   27.9847   14.8866   18.9124 N   0  0  0  0  0  0  0  0  0  0  0  0
   28.0931   14.5299   20.3547 C   0  0  2  0  0  0  0  0  0  0  0  0
   26.8626   14.9659   21.1504 C   0  0  0  0  0  0  0  0  0  0  0  0
   25.7648   15.1414   20.6121 O   0  0  0  0  0  0  0  0  0  0  0  0
   29.3755   15.1040   20.9625 C   0  0  0  0  0  0  0  0  0  0  0  0
   29.5012   16.6171   20.8434 C   0  0  0  0  0  0  0  0  0  0  0  0
   30.8357   17.1048   21.4067 C   0  0  0  0  0  0  0  0  0  0  0  0
   32.0129   16.6399   20.5568 C   0  0  0  0  0  0  0  0  0  0  0  0
   33.3268   17.1160   21.0805 N   0  0  0  0  0  0  0  0  0  0  0  0
   26.9321   15.1315   22.3664 O   0  0  0  0  0  0  0  0  0  0  0  0
  2  1  1  6  0  0  0
  2  3  1  0  0  0  0
  2  5  1  0  0  0  0
  3  4  1  0  0  0  0
  3 10  1  0  0  0  0
  5  6  1  0  0  0  0
  6  7  1  0  0  0  0
  7  8  1  0  0  0  0
  8  9  1  0  0  0  0
M  END
>  <CHROM.1>
23.62622172,57.83843707,-177.08213433,67.64567923,179.42913060,29.03090343
15.72655438,20.84211423,-3.01617561,0.32022090,1.24069158

>  <Name>
ligand

>  <RI>
0

>  <Rbt.Current_Directory>
/home/itssahil/PROJECTS/Mol_Feturizer/New_Systems/rnas/3DJ2

>  <Rbt.Executable>
rbdock ($Id: //depot/dev/client3/rdock/2013.1/src/exe/rbdock.cxx#4 $)

>  <Rbt.Library>
libRbt.so (2013.1, Build901 2013/11/27)

>  <Rbt.Parameter_File>
/export/apps/rDock/src/rDock_2013.1_src/data/scripts/dock_solv.prm

>  <Rbt.Receptor>
prm/pocket_docking_4.prm

>  <SCORE>
-9.90774

>  <SCORE.INTER>
-9.55816

>  <SCORE.INTER.CONST>
1

>  <SCORE.INTER.POLAR>
0

>  <SCORE.INTER.ROT>
5

>  <SCORE.INTER.SOLV>
13.4442

>  <SCORE.INTER.VDW>
-17.7868

>  <SCORE.INTER.norm>
-0.955816

>  <SCORE.INTRA>
-0.349586

>  <SCORE.INTRA.DIHEDRAL>
-2.49911

>  <SCORE.INTRA.DIHEDRAL.0>
4.28128

>  <SCORE.INTRA.POLAR>
0

>  <SCORE.INTRA.POLAR.0>
0

>  <SCORE.INTRA.REPUL>
0

>  <SCORE.INTRA.REPUL.0>
0

>  <SCORE.INTRA.SOLV>
-0.176639

>  <SCORE.INTRA.SOLV.lig_0>
-32.3374

>  <SCORE.INTRA.VDW>
0.988287

>  <SCORE.INTRA.VDW.0>
-0.659551

>  <SCORE.INTRA.norm>
-0.0349586

>  <SCORE.RESTR>
0

>  <SCORE.RESTR.CAVITY>
0

>  <SCORE.RESTR.norm>
0

>  <SCORE.SYSTEM>
0

>  <SCORE.SYSTEM.CONST>
0

>  <SCORE.SYSTEM.DIHEDRAL>
0

>  <SCORE.SYSTEM.SOLV>
0

>  <SCORE.SYSTEM.norm>
0

>  <SCORE.heavy>
10

>  <SCORE.norm>
-0.990774

>  <RMSD>
5.358

$$$$
ligand
 OpenBabel11021811473D
libRbt.so/2013.1/901 2013/11/27
 10  9  0  0  0  0  0  0  0  0999 V2000
   27.1140   14.2725   18.5633 N   0  0  0  0  0  0  0  0  0  0  0  0
   27.7777   14.8069   19.7853 C   0  0  2  0  0  0  0  0  0  0  0  0
   26.8038   14.9482   20.9552 C   0  0  0  0  0  0  0  0  0  0  0  0
   25.5816   15.0041   20.7849 O   0  0  0  0  0  0  0  0  0  0  0  0
   28.4790   16.1347   19.4873 C   0  0  0  0  0  0  0  0  0  0  0  0
   29.3349   16.6607   20.6319 C   0  0  0  0  0  0  0  0  0  0  0  0
   30.4764   15.6967   20.9539 C   0  0  0  0  0  0  0  0  0  0  0  0
   31.2729   16.1492   22.1726 C   0  0  0  0  0  0  0  0  0  0  0  0
   31.9641   17.4544   21.9584 N   0  0  0  0  0  0  0  0  0  0  0  0
   27.2186   14.9863   22.1117 O   0  0  0  0  0  0  0  0  0  0  0  0
  2  1  1  6  0  0  0
  2  3  1  0  0  0  0
  2  5  1  0  0  0  0
  3  4  1  0  0  0  0
  3 10  1  0  0  0  0
  5  6  1  0  0  0  0
  6  7  1  0  0  0  0
  7  8  1  0  0  0  0
  8  9  1  0  0  0  0
M  END
>  <CHROM.1>
-20.30806919,-172.42075890,62.41558147,-175.20502780,-63.68501673,28.57203665
15.60926839,20.76413292,-2.81747421,0.35228811,1.45938350

>  <Name>
ligand

>  <RI>
0

>  <Rbt.Current_Directory>
/home/itssahil/PROJECTS/Mol_Feturizer/New_Systems/rnas/3DJ2

>  <Rbt.Executable>
rbdock ($Id: //depot/dev/client3/rdock/2013.1/src/exe/rbdock.cxx#4 $)

>  <Rbt.Library>
libRbt.so (2013.1, Build901 2013/11/27)

>  <Rbt.Parameter_File>
/export/apps/rDock/src/rDock_2013.1_src/data/scripts/dock_solv.prm

>  <Rbt.Receptor>
prm/pocket_docking_5.prm

>  <SCORE>
-10.8885

>  <SCORE.INTER>
-9.80884

>  <SCORE.INTER.CONST>
1

>  <SCORE.INTER.POLAR>
0

>  <SCORE.INTER.ROT>
5

>  <SCORE.INTER.SOLV>
14.5365

>  <SCORE.INTER.VDW>
-18.3181

>  <SCORE.INTER.norm>
-0.980884

>  <SCORE.INTRA>
-1.07966

>  <SCORE.INTRA.DIHEDRAL>
-2.33901

>  <SCORE.INTRA.DIHEDRAL.0>
4.28128

>  <SCORE.INTRA.POLAR>
0

>  <SCORE.INTRA.POLAR.0>
0

>  <SCORE.INTRA.REPUL>
0

>  <SCORE.INTRA.REPUL.0>
0

>  <SCORE.INTRA.SOLV>
-0.171015

>  <SCORE.INTRA.SOLV.lig_0>
-32.3374

>  <SCORE.INTRA.VDW>
0.17535

>  <SCORE.INTRA.VDW.0>
-0.659551

>  <SCORE.INTRA.norm>
-0.107966

>  <SCORE.RESTR>
0

>  <SCORE.RESTR.CAVITY>
0

>  <SCORE.RESTR.norm>
0

>  <SCORE.SYSTEM>
0

>  <SCORE.SYSTEM.CONST>
0

>  <SCORE.SYSTEM.DIHEDRAL>
0

>  <SCORE.SYSTEM.SOLV>
0

>  <SCORE.SYSTEM.norm>
0

>  <SCORE.heavy>
10

>  <SCORE.norm>
-1.08885

>  <RMSD>
5.358

$$$$
ligand
 OpenBabel11021811473D
libRbt.so/2013.1/901 2013/11/27
 10  9  0  0  0  0  0  0  0  0999 V2000
   27.1030   14.0178   18.6251 N   0  0  0  0  0  0  0  0  0  0  0  0
   27.7368   14.7693   19.7445 C   0  0  2  0  0  0  0  0  0  0  0  0
   26.7871   14.9487   20.9290 C   0  0  0  0  0  0  0  0  0  0  0  0
   25.5606   14.9763   20.7848 O   0  0  0  0  0  0  0  0  0  0  0  0
   28.2746   16.1179   19.2589 C   0  0  0  0  0  0  0  0  0  0  0  0
   29.2204   16.8028   20.2366 C   0  0  0  0  0  0  0  0  0  0  0  0
   30.4906   15.9781   20.4431 C   0  0  0  0  0  0  0  0  0  0  0  0
   31.5432   16.7477   21.2331 C   0  0  0  0  0  0  0  0  0  0  0  0
   31.0776   17.1248   22.6000 N   0  0  0  0  0  0  0  0  0  0  0  0
   27.2271   15.0474   22.0725 O   0  0  0  0  0  0  0  0  0  0  0  0
  2  1  1  6  0  0  0
  2  3  1  0  0  0  0
  2  5  1  0  0  0  0
  3  4  1  0  0  0  0
  3 10  1  0  0  0  0
  5  6  1  0  0  0  0
  6  7  1  0  0  0  0
  7  8  1  0  0  0  0
  8  9  1  0  0  0  0
M  END
>  <CHROM.1>
-27.31848165,-166.13390631,63.90182277,170.64898670,60.97056293,28.47297451
15.65155430,20.61738201,-2.80953488,0.37973069,1.36865276

>  <Name>
ligand

>  <RI>
0

>  <Rbt.Current_Directory>
/home/itssahil/PROJECTS/Mol_Feturizer/New_Systems/rnas/3DJ2

>  <Rbt.Executable>
rbdock ($Id: //depot/dev/client3/rdock/2013.1/src/exe/rbdock.cxx#4 $)

>  <Rbt.Library>
libRbt.so (2013.1, Build901 2013/11/27)

>  <Rbt.Parameter_File>
/export/apps/rDock/src/rDock_2013.1_src/data/scripts/dock_solv.prm

>  <Rbt.Receptor>
prm/pocket_docking_7.prm

>  <SCORE>
-10.1041

>  <SCORE.INTER>
-9.24757

>  <SCORE.INTER.CONST>
1

>  <SCORE.INTER.POLAR>
0

>  <SCORE.INTER.ROT>
5

>  <SCORE.INTER.SOLV>
14.938

>  <SCORE.INTER.VDW>
-18.0777

>  <SCORE.INTER.norm>
-0.924757

>  <SCORE.INTRA>
-0.856528

>  <SCORE.INTRA.DIHEDRAL>
-1.59524

>  <SCORE.INTRA.DIHEDRAL.0>
4.28128

>  <SCORE.INTRA.POLAR>
0

>  <SCORE.INTRA.POLAR.0>
0

>  <SCORE.INTRA.REPUL>
0

>  <SCORE.INTRA.REPUL.0>
0

>  <SCORE.INTRA.SOLV>
-0.110413

>  <SCORE.INTRA.SOLV.lig_0>
-32.3374

>  <SCORE.INTRA.VDW>
-0.00370247

>  <SCORE.INTRA.VDW.0>
-0.659551

>  <SCORE.INTRA.norm>
-0.0856528

>  <SCORE.RESTR>
0

>  <SCORE.RESTR.CAVITY>
0

>  <SCORE.RESTR.norm>
0

>  <SCORE.SYSTEM>
0

>  <SCORE.SYSTEM.CONST>
0

>  <SCORE.SYSTEM.DIHEDRAL>
0

>  <SCORE.SYSTEM.SOLV>
0

>  <SCORE.SYSTEM.norm>
0

>  <SCORE.heavy>
10

>  <SCORE.norm>
-1.01041

>  <RMSD>
5.363

$$$$
ligand
 OpenBabel11021811473D
libRbt.so/2013.1/901 2013/11/27
 10  9  0  0  0  0  0  0  0  0999 V2000
   25.9864   14.7673   21.1099 N   0  0  0  0  0  0  0  0  0  0  0  0
   27.3238   15.3228   20.7606 C   0  0  2  0  0  0  0  0  0  0  0  0
   27.5714   15.3240   19.2520 C   0  0  0  0  0  0  0  0  0  0  0  0
   28.2569   16.1928   18.7031 O   0  0  0  0  0  0  0  0  0  0  0  0
   28.4346   14.5740   21.5018 C   0  0  0  0  0  0  0  0  0  0  0  0
   29.8330   15.1238   21.2534 C   0  0  0  0  0  0  0  0  0  0  0  0
   29.9819   16.5310   21.8310 C   0  0  0  0  0  0  0  0  0  0  0  0
   31.3106   17.1669   21.4375 C   0  0  0  0  0  0  0  0  0  0  0  0
   32.4886   16.3875   21.9193 N   0  0  0  0  0  0  0  0  0  0  0  0
   27.1072   14.4341   18.5425 O   0  0  0  0  0  0  0  0  0  0  0  0
  2  1  1  6  0  0  0
  2  3  1  0  0  0  0
  2  5  1  0  0  0  0
  3  4  1  0  0  0  0
  3 10  1  0  0  0  0
  5  6  1  0  0  0  0
  6  7  1  0  0  0  0
  7  8  1  0  0  0  0
  8  9  1  0  0  0  0
M  END
>  <CHROM.1>
147.80194276,-177.16670173,66.09787634,-172.65901913,-60.19464752,28.82594941
15.58044512,20.59348253,2.80294877,-0.41564311,-1.37381649

>  <Name>
ligand

>  <RI>
0

>  <Rbt.Current_Directory>
/home/itssahil/PROJECTS/Mol_Feturizer/New_Systems/rnas/3DJ2

>  <Rbt.Executable>
rbdock ($Id: //depot/dev/client3/rdock/2013.1/src/exe/rbdock.cxx#4 $)

>  <Rbt.Library>
libRbt.so (2013.1, Build901 2013/11/27)

>  <Rbt.Parameter_File>
/export/apps/rDock/src/rDock_2013.1_src/data/scripts/dock_solv.prm

>  <Rbt.Receptor>
prm/blind_docking_100.prm

>  <SCORE>
-8.30028

>  <SCORE.INTER>
-7.10763

>  <SCORE.INTER.CONST>
1

>  <SCORE.INTER.POLAR>
0

>  <SCORE.INTER.ROT>
5

>  <SCORE.INTER.SOLV>
19.0568

>  <SCORE.INTER.VDW>
-18.024

>  <SCORE.INTER.norm>
-0.710763

>  <SCORE.INTRA>
-1.19265

>  <SCORE.INTRA.DIHEDRAL>
-2.40304

>  <SCORE.INTRA.DIHEDRAL.0>
4.28128

>  <SCORE.INTRA.POLAR>
0

>  <SCORE.INTRA.POLAR.0>
0

>  <SCORE.INTRA.REPUL>
0

>  <SCORE.INTRA.REPUL.0>
0

>  <SCORE.INTRA.SOLV>
-0.186666

>  <SCORE.INTRA.SOLV.lig_0>
-32.3374

>  <SCORE.INTRA.VDW>
0.102202

>  <SCORE.INTRA.VDW.0>
-0.659551

>  <SCORE.INTRA.norm>
-0.119265

>  <SCORE.RESTR>
0

>  <SCORE.RESTR.CAVITY>
0

>  <SCORE.RESTR.norm>
0

>  <SCORE.SYSTEM>
0

>  <SCORE.SYSTEM.CONST>
0

>  <SCORE.SYSTEM.DIHEDRAL>
0

>  <SCORE.SYSTEM.SOLV>
0

>  <SCORE.SYSTEM.norm>
0

>  <SCORE.heavy>
10

>  <SCORE.norm>
-0.830028

>  <RMSD>
5.364

$$$$
ligand
 OpenBabel11021811473D
libRbt.so/2013.1/901 2013/11/27
 10  9  0  0  0  0  0  0  0  0999 V2000
   27.9333   15.0804   18.9082 N   0  0  0  0  0  0  0  0  0  0  0  0
   28.0624   14.6036   20.3137 C   0  0  2  0  0  0  0  0  0  0  0  0
   26.8487   14.9797   21.1638 C   0  0  0  0  0  0  0  0  0  0  0  0
   25.7273   15.1343   20.6694 O   0  0  0  0  0  0  0  0  0  0  0  0
   29.3592   15.1163   20.9454 C   0  0  0  0  0  0  0  0  0  0  0  0
   29.5347   16.6275   20.8744 C   0  0  0  0  0  0  0  0  0  0  0  0
   30.8914   17.0513   21.4364 C   0  0  0  0  0  0  0  0  0  0  0  0
   32.0378   16.6385   20.5201 C   0  0  0  0  0  0  0  0  0  0  0  0
   33.3694   17.0863   21.0238 N   0  0  0  0  0  0  0  0  0  0  0  0
   26.9569   15.1159   22.3806 O   0  0  0  0  0  0  0  0  0  0  0  0
  2  1  1  6  0  0  0
  2  3  1  0  0  0  0
  2  5  1  0  0  0  0
  3  4  1  0  0  0  0
  3 10  1  0  0  0  0
  5  6  1  0  0  0  0
  6  7  1  0  0  0  0
  7  8  1  0  0  0  0
  8  9  1  0  0  0  0
M  END
>  <CHROM.1>
27.72502028,54.27482846,-176.06777571,70.59440858,177.87867459,29.03432209
15.74504028,20.84222081,-3.05440323,0.31938953,1.32302718

>  <Name>
ligand

>  <RI>
0

>  <Rbt.Current_Directory>
/home/itssahil/PROJECTS/Mol_Feturizer/New_Systems/rnas/3DJ2

>  <Rbt.Executable>
rbdock ($Id: //depot/dev/client3/rdock/2013.1/src/exe/rbdock.cxx#4 $)

>  <Rbt.Library>
libRbt.so (2013.1, Build901 2013/11/27)

>  <Rbt.Parameter_File>
/export/apps/rDock/src/rDock_2013.1_src/data/scripts/dock_solv.prm

>  <Rbt.Receptor>
prm/pocket_docking_4.prm

>  <SCORE>
-9.88802

>  <SCORE.INTER>
-9.70474

>  <SCORE.INTER.CONST>
1

>  <SCORE.INTER.POLAR>
0

>  <SCORE.INTER.ROT>
5

>  <SCORE.INTER.SOLV>
13.4704

>  <SCORE.INTER.VDW>
-17.8933

>  <SCORE.INTER.norm>
-0.970474

>  <SCORE.INTRA>
-0.183277

>  <SCORE.INTRA.DIHEDRAL>
-2.12225

>  <SCORE.INTRA.DIHEDRAL.0>
4.28128

>  <SCORE.INTRA.POLAR>
0

>  <SCORE.INTRA.POLAR.0>
0

>  <SCORE.INTRA.REPUL>
0

>  <SCORE.INTRA.REPUL.0>
0

>  <SCORE.INTRA.SOLV>
-0.146762

>  <SCORE.INTRA.SOLV.lig_0>
-32.3374

>  <SCORE.INTRA.VDW>
0.951229

>  <SCORE.INTRA.VDW.0>
-0.659551

>  <SCORE.INTRA.norm>
-0.0183277

>  <SCORE.RESTR>
0

>  <SCORE.RESTR.CAVITY>
0

>  <SCORE.RESTR.norm>
0

>  <SCORE.SYSTEM>
0

>  <SCORE.SYSTEM.CONST>
0

>  <SCORE.SYSTEM.DIHEDRAL>
0

>  <SCORE.SYSTEM.SOLV>
0

>  <SCORE.SYSTEM.norm>
0

>  <SCORE.heavy>
10

>  <SCORE.norm>
-0.988802

>  <RMSD>
5.365

$$$$
ligand
 OpenBabel11021811473D
libRbt.so/2013.1/901 2013/11/27
 10  9  0  0  0  0  0  0  0  0999 V2000
   27.0722   13.9449   18.6713 N   0  0  0  0  0  0  0  0  0  0  0  0
   27.7026   14.7427   19.7601 C   0  0  2  0  0  0  0  0  0  0  0  0
   26.7662   14.9296   20.9540 C   0  0  0  0  0  0  0  0  0  0  0  0
   25.5375   14.9326   20.8267 O   0  0  0  0  0  0  0  0  0  0  0  0
   28.1974   16.0911   19.2302 C   0  0  0  0  0  0  0  0  0  0  0  0
   29.1237   16.8356   20.1826 C   0  0  0  0  0  0  0  0  0  0  0  0
   30.4262   16.0654   20.3982 C   0  0  0  0  0  0  0  0  0  0  0  0
   31.4103   16.8476   21.2609 C   0  0  0  0  0  0  0  0  0  0  0  0
   30.8834   17.1266   22.6291 N   0  0  0  0  0  0  0  0  0  0  0  0
   27.2201   15.0595   22.0890 O   0  0  0  0  0  0  0  0  0  0  0  0
  2  1  1  6  0  0  0
  2  3  1  0  0  0  0
  2  5  1  0  0  0  0
  3  4  1  0  0  0  0
  3 10  1  0  0  0  0
  5  6  1  0  0  0  0
  6  7  1  0  0  0  0
  7  8  1  0  0  0  0
  8  9  1  0  0  0  0
M  END
>  <CHROM.1>
-27.93433462,-166.95389116,64.58044161,175.48832035,61.43290433,28.40539368
15.65603590,20.62511716,-2.80332242,0.40812138,1.36687790

>  <Name>
ligand

>  <RI>
0

>  <Rbt.Current_Directory>
/home/itssahil/PROJECTS/Mol_Feturizer/New_Systems/rnas/3DJ2

>  <Rbt.Executable>
rbdock ($Id: //depot/dev/client3/rdock/2013.1/src/exe/rbdock.cxx#4 $)

>  <Rbt.Library>
libRbt.so (2013.1, Build901 2013/11/27)

>  <Rbt.Parameter_File>
/export/apps/rDock/src/rDock_2013.1_src/data/scripts/dock_solv.prm

>  <Rbt.Receptor>
prm/pocket_docking_4.prm

>  <SCORE>
-10.0733

>  <SCORE.INTER>
-9.02797

>  <SCORE.INTER.CONST>
1

>  <SCORE.INTER.POLAR>
0

>  <SCORE.INTER.ROT>
5

>  <SCORE.INTER.SOLV>
15.451

>  <SCORE.INTER.VDW>
-18.1023

>  <SCORE.INTER.norm>
-0.902797

>  <SCORE.INTRA>
-1.04535

>  <SCORE.INTRA.DIHEDRAL>
-1.91931

>  <SCORE.INTRA.DIHEDRAL.0>
4.28128

>  <SCORE.INTRA.POLAR>
0

>  <SCORE.INTRA.POLAR.0>
0

>  <SCORE.INTRA.REPUL>
0

>  <SCORE.INTRA.REPUL.0>
0

>  <SCORE.INTRA.SOLV>
-0.108136

>  <SCORE.INTRA.SOLV.lig_0>
-32.3374

>  <SCORE.INTRA.VDW>
-0.0316326

>  <SCORE.INTRA.VDW.0>
-0.659551

>  <SCORE.INTRA.norm>
-0.104535

>  <SCORE.RESTR>
0

>  <SCORE.RESTR.CAVITY>
0

>  <SCORE.RESTR.norm>
0

>  <SCORE.SYSTEM>
0

>  <SCORE.SYSTEM.CONST>
0

>  <SCORE.SYSTEM.DIHEDRAL>
0

>  <SCORE.SYSTEM.SOLV>
0

>  <SCORE.SYSTEM.norm>
0

>  <SCORE.heavy>
10

>  <SCORE.norm>
-1.00733

>  <RMSD>
5.365

$$$$
ligand
 OpenBabel11021811473D
libRbt.so/2013.1/901 2013/11/27
 10  9  0  0  0  0  0  0  0  0999 V2000
   25.6447   14.8657   20.7886 N   0  0  0  0  0  0  0  0  0  0  0  0
   26.9774   15.5182   20.6559 C   0  0  2  0  0  0  0  0  0  0  0  0
   27.5586   15.3613   19.2507 C   0  0  0  0  0  0  0  0  0  0  0  0
   28.1637   16.2793   18.6876 O   0  0  0  0  0  0  0  0  0  0  0  0
   27.9484   14.9934   21.7168 C   0  0  0  0  0  0  0  0  0  0  0  0
   29.2473   15.7818   21.8205 C   0  0  0  0  0  0  0  0  0  0  0  0
   30.2384   15.3550   20.7380 C   0  0  0  0  0  0  0  0  0  0  0  0
   31.4513   16.2773   20.6855 C   0  0  0  0  0  0  0  0  0  0  0  0
   32.2101   16.3068   21.9702 N   0  0  0  0  0  0  0  0  0  0  0  0
   27.4568   14.2945   18.6485 O   0  0  0  0  0  0  0  0  0  0  0  0
  2  1  1  6  0  0  0
  2  3  1  0  0  0  0
  2  5  1  0  0  0  0
  3  4  1  0  0  0  0
  3 10  1  0  0  0  0
  5  6  1  0  0  0  0
  6  7  1  0  0  0  0
  7  8  1  0  0  0  0
  8  9  1  0  0  0  0
M  END
>  <CHROM.1>
140.30948817,-169.37223996,-81.09638498,171.01169543,59.92101013,28.69341133
15.49916879,20.46151653,2.82427320,-0.24174672,-1.53554315

>  <Name>
ligand

>  <RI>
0

>  <Rbt.Current_Directory>
/home/itssahil/PROJECTS/Mol_Feturizer/New_Systems/rnas/3DJ2

>  <Rbt.Executable>
rbdock ($Id: //depot/dev/client3/rdock/2013.1/src/exe/rbdock.cxx#4 $)

>  <Rbt.Library>
libRbt.so (2013.1, Build901 2013/11/27)

>  <Rbt.Parameter_File>
/export/apps/rDock/src/rDock_2013.1_src/data/scripts/dock_solv.prm

>  <Rbt.Receptor>
prm/pocket_docking_6.prm

>  <SCORE>
-8.30955

>  <SCORE.INTER>
-7.88055

>  <SCORE.INTER.CONST>
1

>  <SCORE.INTER.POLAR>
0

>  <SCORE.INTER.ROT>
5

>  <SCORE.INTER.SOLV>
18.8233

>  <SCORE.INTER.VDW>
-18.4615

>  <SCORE.INTER.norm>
-0.788055

>  <SCORE.INTRA>
-0.428993

>  <SCORE.INTRA.DIHEDRAL>
-0.376343

>  <SCORE.INTRA.DIHEDRAL.0>
4.28128

>  <SCORE.INTRA.POLAR>
0

>  <SCORE.INTRA.POLAR.0>
0

>  <SCORE.INTRA.REPUL>
0

>  <SCORE.INTRA.REPUL.0>
0

>  <SCORE.INTRA.SOLV>
-0.341074

>  <SCORE.INTRA.SOLV.lig_0>
-32.3374

>  <SCORE.INTRA.VDW>
-0.0702852

>  <SCORE.INTRA.VDW.0>
-0.659551

>  <SCORE.INTRA.norm>
-0.0428993

>  <SCORE.RESTR>
0

>  <SCORE.RESTR.CAVITY>
0

>  <SCORE.RESTR.norm>
0

>  <SCORE.SYSTEM>
0

>  <SCORE.SYSTEM.CONST>
0

>  <SCORE.SYSTEM.DIHEDRAL>
0

>  <SCORE.SYSTEM.SOLV>
0

>  <SCORE.SYSTEM.norm>
0

>  <SCORE.heavy>
10

>  <SCORE.norm>
-0.830955

>  <RMSD>
5.365

$$$$
ligand
 OpenBabel11021811473D
libRbt.so/2013.1/901 2013/11/27
 10  9  0  0  0  0  0  0  0  0999 V2000
   25.9314   14.6722   21.3189 N   0  0  0  0  0  0  0  0  0  0  0  0
   27.2395   15.3159   21.0128 C   0  0  2  0  0  0  0  0  0  0  0  0
   27.4232   15.5648   19.5157 C   0  0  0  0  0  0  0  0  0  0  0  0
   28.0059   16.5658   19.0863 O   0  0  0  0  0  0  0  0  0  0  0  0
   28.3978   14.4922   21.5817 C   0  0  0  0  0  0  0  0  0  0  0  0
   29.7733   15.1027   21.3482 C   0  0  0  0  0  0  0  0  0  0  0  0
   29.9379   16.4049   22.1314 C   0  0  0  0  0  0  0  0  0  0  0  0
   31.1774   17.1766   21.6927 C   0  0  0  0  0  0  0  0  0  0  0  0
   32.4446   16.4370   21.9658 N   0  0  0  0  0  0  0  0  0  0  0  0
   27.0102   14.7509   18.6923 O   0  0  0  0  0  0  0  0  0  0  0  0
  2  1  1  6  0  0  0
  2  3  1  0  0  0  0
  2  5  1  0  0  0  0
  3  4  1  0  0  0  0
  3 10  1  0  0  0  0
  5  6  1  0  0  0  0
  6  7  1  0  0  0  0
  7  8  1  0  0  0  0
  8  9  1  0  0  0  0
M  END
>  <CHROM.1>
144.05462555,-178.29487783,66.84671132,-168.11340151,-63.60627919,28.72910434
15.65215358,20.79751964,2.88603066,-0.43179860,-1.18484973

>  <Name>
ligand

>  <RI>
0

>  <Rbt.Current_Directory>
/home/itssahil/PROJECTS/Mol_Feturizer/New_Systems/rnas/3DJ2

>  <Rbt.Executable>
rbdock ($Id: //depot/dev/client3/rdock/2013.1/src/exe/rbdock.cxx#4 $)

>  <Rbt.Library>
libRbt.so (2013.1, Build901 2013/11/27)

>  <Rbt.Parameter_File>
/export/apps/rDock/src/rDock_2013.1_src/data/scripts/dock_solv.prm

>  <Rbt.Receptor>
prm/pocket_docking_8.prm

>  <SCORE>
-8.1961

>  <SCORE.INTER>
-7.11965

>  <SCORE.INTER.CONST>
1

>  <SCORE.INTER.POLAR>
0

>  <SCORE.INTER.ROT>
5

>  <SCORE.INTER.SOLV>
19.659

>  <SCORE.INTER.VDW>
-18.2328

>  <SCORE.INTER.norm>
-0.711965

>  <SCORE.INTRA>
-1.07645

>  <SCORE.INTRA.DIHEDRAL>
-1.97807

>  <SCORE.INTRA.DIHEDRAL.0>
4.28128

>  <SCORE.INTRA.POLAR>
0

>  <SCORE.INTRA.POLAR.0>
0

>  <SCORE.INTRA.REPUL>
0

>  <SCORE.INTRA.REPUL.0>
0

>  <SCORE.INTRA.SOLV>
-0.261837

>  <SCORE.INTRA.SOLV.lig_0>
-32.3374

>  <SCORE.INTRA.VDW>
0.0435001

>  <SCORE.INTRA.VDW.0>
-0.659551

>  <SCORE.INTRA.norm>
-0.107645

>  <SCORE.RESTR>
0

>  <SCORE.RESTR.CAVITY>
0

>  <SCORE.RESTR.norm>
0

>  <SCORE.SYSTEM>
0

>  <SCORE.SYSTEM.CONST>
0

>  <SCORE.SYSTEM.DIHEDRAL>
0

>  <SCORE.SYSTEM.SOLV>
0

>  <SCORE.SYSTEM.norm>
0

>  <SCORE.heavy>
10

>  <SCORE.norm>
-0.81961

>  <RMSD>
5.365

$$$$
ligand
 OpenBabel11021811473D
libRbt.so/2013.1/901 2013/11/27
 10  9  0  0  0  0  0  0  0  0999 V2000
   27.2563   14.0357   18.6458 N   0  0  0  0  0  0  0  0  0  0  0  0
   27.9375   14.3547   19.9317 C   0  0  2  0  0  0  0  0  0  0  0  0
   26.9691   14.9150   20.9735 C   0  0  0  0  0  0  0  0  0  0  0  0
   27.2837   15.0308   22.1625 O   0  0  0  0  0  0  0  0  0  0  0  0
   29.1139   15.3073   19.7028 C   0  0  0  0  0  0  0  0  0  0  0  0
   29.9652   15.5586   20.9404 C   0  0  0  0  0  0  0  0  0  0  0  0
   31.3083   16.1851   20.5668 C   0  0  0  0  0  0  0  0  0  0  0  0
   32.0973   16.6104   21.8002 C   0  0  0  0  0  0  0  0  0  0  0  0
   31.4295   17.7053   22.5634 N   0  0  0  0  0  0  0  0  0  0  0  0
   25.8463   15.2911   20.6436 O   0  0  0  0  0  0  0  0  0  0  0  0
  2  1  1  6  0  0  0
  2  3  1  0  0  0  0
  2  5  1  0  0  0  0
  3  4  1  0  0  0  0
  3 10  1  0  0  0  0
  5  6  1  0  0  0  0
  6  7  1  0  0  0  0
  7  8  1  0  0  0  0
  8  9  1  0  0  0  0
M  END
>  <CHROM.1>
167.66366836,-173.26939635,164.32499780,172.56365021,-65.05594764,28.88963764
15.50634834,20.81374757,-2.70982312,0.25124691,1.10331259

>  <Name>
ligand

>  <RI>
0

>  <Rbt.Current_Directory>
/home/itssahil/PROJECTS/Mol_Feturizer/New_Systems/rnas/3DJ2

>  <Rbt.Executable>
rbdock ($Id: //depot/dev/client3/rdock/2013.1/src/exe/rbdock.cxx#4 $)

>  <Rbt.Library>
libRbt.so (2013.1, Build901 2013/11/27)

>  <Rbt.Parameter_File>
/export/apps/rDock/src/rDock_2013.1_src/data/scripts/dock_solv.prm

>  <Rbt.Receptor>
prm/pocket_docking_3.prm

>  <SCORE>
-8.82161

>  <SCORE.INTER>
-8.10404

>  <SCORE.INTER.CONST>
1

>  <SCORE.INTER.POLAR>
0

>  <SCORE.INTER.ROT>
5

>  <SCORE.INTER.SOLV>
15.4323

>  <SCORE.INTER.VDW>
-17.4801

>  <SCORE.INTER.norm>
-0.810404

>  <SCORE.INTRA>
-0.717569

>  <SCORE.INTRA.DIHEDRAL>
-1.33203

>  <SCORE.INTRA.DIHEDRAL.0>
4.28128

>  <SCORE.INTRA.POLAR>
0

>  <SCORE.INTRA.POLAR.0>
0

>  <SCORE.INTRA.REPUL>
0

>  <SCORE.INTRA.REPUL.0>
0

>  <SCORE.INTRA.SOLV>
-0.402669

>  <SCORE.INTRA.SOLV.lig_0>
-32.3374

>  <SCORE.INTRA.VDW>
0.149779

>  <SCORE.INTRA.VDW.0>
-0.659551

>  <SCORE.INTRA.norm>
-0.0717569

>  <SCORE.RESTR>
0

>  <SCORE.RESTR.CAVITY>
0

>  <SCORE.RESTR.norm>
0

>  <SCORE.SYSTEM>
0

>  <SCORE.SYSTEM.CONST>
0

>  <SCORE.SYSTEM.DIHEDRAL>
0

>  <SCORE.SYSTEM.SOLV>
0

>  <SCORE.SYSTEM.norm>
0

>  <SCORE.heavy>
10

>  <SCORE.norm>
-0.882161

>  <RMSD>
5.371

$$$$
ligand
 OpenBabel11021811473D
libRbt.so/2013.1/901 2013/11/27
 10  9  0  0  0  0  0  0  0  0999 V2000
   27.1863   14.2669   18.5949 N   0  0  0  0  0  0  0  0  0  0  0  0
   27.7969   14.7592   19.8615 C   0  0  2  0  0  0  0  0  0  0  0  0
   26.7603   14.9328   20.9717 C   0  0  0  0  0  0  0  0  0  0  0  0
   25.5526   15.0248   20.7295 O   0  0  0  0  0  0  0  0  0  0  0  0
   28.5731   16.0570   19.6230 C   0  0  0  0  0  0  0  0  0  0  0  0
   29.3641   16.5435   20.8301 C   0  0  0  0  0  0  0  0  0  0  0  0
   30.4829   15.5649   21.1860 C   0  0  0  0  0  0  0  0  0  0  0  0
   31.2940   16.0438   22.3849 C   0  0  0  0  0  0  0  0  0  0  0  0
   31.9973   17.3347   22.1275 N   0  0  0  0  0  0  0  0  0  0  0  0
   27.1072   14.9616   22.1506 O   0  0  0  0  0  0  0  0  0  0  0  0
  2  1  1  6  0  0  0
  2  3  1  0  0  0  0
  2  5  1  0  0  0  0
  3  4  1  0  0  0  0
  3 10  1  0  0  0  0
  5  6  1  0  0  0  0
  6  7  1  0  0  0  0
  7  8  1  0  0  0  0
  8  9  1  0  0  0  0
M  END
>  <CHROM.1>
-19.19061067,-173.23445369,65.26834362,179.44155686,-62.70237643,28.57966321
15.54774154,20.86795846,-2.78125532,0.31550884,1.43579538

>  <Name>
ligand

>  <RI>
0

>  <Rbt.Current_Directory>
/home/itssahil/PROJECTS/Mol_Feturizer/New_Systems/rnas/3DJ2

>  <Rbt.Executable>
rbdock ($Id: //depot/dev/client3/rdock/2013.1/src/exe/rbdock.cxx#4 $)

>  <Rbt.Library>
libRbt.so (2013.1, Build901 2013/11/27)

>  <Rbt.Parameter_File>
/export/apps/rDock/src/rDock_2013.1_src/data/scripts/dock_solv.prm

>  <Rbt.Receptor>
prm/pocket_docking_7.prm

>  <SCORE>
-10.9914

>  <SCORE.INTER>
-9.87998

>  <SCORE.INTER.CONST>
1

>  <SCORE.INTER.POLAR>
0

>  <SCORE.INTER.ROT>
5

>  <SCORE.INTER.SOLV>
14.2837

>  <SCORE.INTER.VDW>
-18.2812

>  <SCORE.INTER.norm>
-0.987998

>  <SCORE.INTRA>
-1.1114

>  <SCORE.INTRA.DIHEDRAL>
-2.40992

>  <SCORE.INTRA.DIHEDRAL.0>
4.28128

>  <SCORE.INTRA.POLAR>
0

>  <SCORE.INTRA.POLAR.0>
0

>  <SCORE.INTRA.REPUL>
0

>  <SCORE.INTRA.REPUL.0>
0

>  <SCORE.INTRA.SOLV>
-0.153984

>  <SCORE.INTRA.SOLV.lig_0>
-32.3374

>  <SCORE.INTRA.VDW>
0.17055

>  <SCORE.INTRA.VDW.0>
-0.659551

>  <SCORE.INTRA.norm>
-0.11114

>  <SCORE.RESTR>
0

>  <SCORE.RESTR.CAVITY>
0

>  <SCORE.RESTR.norm>
0

>  <SCORE.SYSTEM>
0

>  <SCORE.SYSTEM.CONST>
0

>  <SCORE.SYSTEM.DIHEDRAL>
0

>  <SCORE.SYSTEM.SOLV>
0

>  <SCORE.SYSTEM.norm>
0

>  <SCORE.heavy>
10

>  <SCORE.norm>
-1.09914

>  <RMSD>
5.374

$$$$
ligand
 OpenBabel11021811473D
libRbt.so/2013.1/901 2013/11/27
 10  9  0  0  0  0  0  0  0  0999 V2000
   28.1135   15.5495   18.8869 N   0  0  0  0  0  0  0  0  0  0  0  0
   28.2381   15.3773   20.3613 C   0  0  2  0  0  0  0  0  0  0  0  0
   26.8840   15.1404   21.0305 C   0  0  0  0  0  0  0  0  0  0  0  0
   26.7856   14.8926   22.2366 O   0  0  0  0  0  0  0  0  0  0  0  0
   28.9630   16.5705   20.9894 C   0  0  0  0  0  0  0  0  0  0  0  0
   30.3468   16.8363   20.4116 C   0  0  0  0  0  0  0  0  0  0  0  0
   31.3008   15.6810   20.7136 C   0  0  0  0  0  0  0  0  0  0  0  0
   32.6868   15.9230   20.1262 C   0  0  0  0  0  0  0  0  0  0  0  0
   33.3705   17.1052   20.7281 N   0  0  0  0  0  0  0  0  0  0  0  0
   25.8442   15.2156   20.3792 O   0  0  0  0  0  0  0  0  0  0  0  0
  2  1  1  6  0  0  0
  2  3  1  0  0  0  0
  2  5  1  0  0  0  0
  3  4  1  0  0  0  0
  3 10  1  0  0  0  0
  5  6  1  0  0  0  0
  6  7  1  0  0  0  0
  7  8  1  0  0  0  0
  8  9  1  0  0  0  0
M  END
>  <CHROM.1>
175.44605253,-56.87219503,-64.92880752,179.26338882,63.89083710,29.21187031
15.82040227,20.60198563,3.06341136,0.21754628,1.63092576

>  <Name>
ligand

>  <RI>
0

>  <Rbt.Current_Directory>
/home/itssahil/PROJECTS/Mol_Feturizer/New_Systems/rnas/3DJ2

>  <Rbt.Executable>
rbdock ($Id: //depot/dev/client3/rdock/2013.1/src/exe/rbdock.cxx#4 $)

>  <Rbt.Library>
libRbt.so (2013.1, Build901 2013/11/27)

>  <Rbt.Parameter_File>
/export/apps/rDock/src/rDock_2013.1_src/data/scripts/dock_solv.prm

>  <Rbt.Receptor>
prm/pocket_docking_8.prm

>  <SCORE>
-9.79066

>  <SCORE.INTER>
-9.36459

>  <SCORE.INTER.CONST>
1

>  <SCORE.INTER.POLAR>
0

>  <SCORE.INTER.ROT>
5

>  <SCORE.INTER.SOLV>
13.4746

>  <SCORE.INTER.VDW>
-17.6679

>  <SCORE.INTER.norm>
-0.936459

>  <SCORE.INTRA>
-0.426066

>  <SCORE.INTRA.DIHEDRAL>
-2.58161

>  <SCORE.INTRA.DIHEDRAL.0>
4.28128

>  <SCORE.INTRA.POLAR>
0

>  <SCORE.INTRA.POLAR.0>
0

>  <SCORE.INTRA.REPUL>
0

>  <SCORE.INTRA.REPUL.0>
0

>  <SCORE.INTRA.SOLV>
1.05832

>  <SCORE.INTRA.SOLV.lig_0>
-32.3374

>  <SCORE.INTRA.VDW>
0.335583

>  <SCORE.INTRA.VDW.0>
-0.659551

>  <SCORE.INTRA.norm>
-0.0426066

>  <SCORE.RESTR>
0

>  <SCORE.RESTR.CAVITY>
0

>  <SCORE.RESTR.norm>
0

>  <SCORE.SYSTEM>
0

>  <SCORE.SYSTEM.CONST>
0

>  <SCORE.SYSTEM.DIHEDRAL>
0

>  <SCORE.SYSTEM.SOLV>
0

>  <SCORE.SYSTEM.norm>
0

>  <SCORE.heavy>
10

>  <SCORE.norm>
-0.979066

>  <RMSD>
5.375

$$$$
ligand
 OpenBabel11021811473D
libRbt.so/2013.1/901 2013/11/27
 10  9  0  0  0  0  0  0  0  0999 V2000
   28.5021   14.7133   19.0615 N   0  0  0  0  0  0  0  0  0  0  0  0
   28.1754   15.2632   20.4070 C   0  0  2  0  0  0  0  0  0  0  0  0
   26.6934   15.1082   20.7487 C   0  0  0  0  0  0  0  0  0  0  0  0
   26.3172   14.6323   21.8248 O   0  0  0  0  0  0  0  0  0  0  0  0
   28.6181   16.7243   20.5199 C   0  0  0  0  0  0  0  0  0  0  0  0
   30.1280   16.9228   20.5117 C   0  0  0  0  0  0  0  0  0  0  0  0
   30.7715   16.3040   21.7524 C   0  0  0  0  0  0  0  0  0  0  0  0
   32.2514   16.6549   21.8574 C   0  0  0  0  0  0  0  0  0  0  0  0
   33.0351   16.2147   20.6660 N   0  0  0  0  0  0  0  0  0  0  0  0
   25.8283   15.4808   19.9589 O   0  0  0  0  0  0  0  0  0  0  0  0
  2  1  1  6  0  0  0
  2  3  1  0  0  0  0
  2  5  1  0  0  0  0
  3  4  1  0  0  0  0
  3 10  1  0  0  0  0
  5  6  1  0  0  0  0
  6  7  1  0  0  0  0
  7  8  1  0  0  0  0
  8  9  1  0  0  0  0
M  END
>  <CHROM.1>
130.63569609,-67.92914241,-65.49934869,-172.26113653,-58.20024749,28.98835579
15.79485519,20.73763786,-3.00381214,0.23175672,1.44858847

>  <Name>
ligand

>  <RI>
0

>  <Rbt.Current_Directory>
/home/itssahil/PROJECTS/Mol_Feturizer/New_Systems/rnas/3DJ2

>  <Rbt.Executable>
rbdock ($Id: //depot/dev/client3/rdock/2013.1/src/exe/rbdock.cxx#4 $)

>  <Rbt.Library>
libRbt.so (2013.1, Build901 2013/11/27)

>  <Rbt.Parameter_File>
/export/apps/rDock/src/rDock_2013.1_src/data/scripts/dock_solv.prm

>  <Rbt.Receptor>
prm/blind_docking_100.prm

>  <SCORE>
-8.94722

>  <SCORE.INTER>
-8.4193

>  <SCORE.INTER.CONST>
1

>  <SCORE.INTER.POLAR>
0

>  <SCORE.INTER.ROT>
5

>  <SCORE.INTER.SOLV>
13.6849

>  <SCORE.INTER.VDW>
-17.1078

>  <SCORE.INTER.norm>
-0.84193

>  <SCORE.INTRA>
-0.527916

>  <SCORE.INTRA.DIHEDRAL>
-2.1308

>  <SCORE.INTRA.DIHEDRAL.0>
4.28128

>  <SCORE.INTRA.POLAR>
0

>  <SCORE.INTRA.POLAR.0>
0

>  <SCORE.INTRA.REPUL>
0

>  <SCORE.INTRA.REPUL.0>
0

>  <SCORE.INTRA.SOLV>
0.859377

>  <SCORE.INTRA.SOLV.lig_0>
-32.3374

>  <SCORE.INTRA.VDW>
0.107795

>  <SCORE.INTRA.VDW.0>
-0.659551

>  <SCORE.INTRA.norm>
-0.0527916

>  <SCORE.RESTR>
0

>  <SCORE.RESTR.CAVITY>
0

>  <SCORE.RESTR.norm>
0

>  <SCORE.SYSTEM>
0

>  <SCORE.SYSTEM.CONST>
0

>  <SCORE.SYSTEM.DIHEDRAL>
0

>  <SCORE.SYSTEM.SOLV>
0

>  <SCORE.SYSTEM.norm>
0

>  <SCORE.heavy>
10

>  <SCORE.norm>
-0.894722

>  <RMSD>
5.376

$$$$
ligand
 OpenBabel11021811473D
libRbt.so/2013.1/901 2013/11/27
 10  9  0  0  0  0  0  0  0  0999 V2000
   27.9402   15.0394   18.8974 N   0  0  0  0  0  0  0  0  0  0  0  0
   28.0622   14.5880   20.3118 C   0  0  2  0  0  0  0  0  0  0  0  0
   26.8300   14.9506   21.1410 C   0  0  0  0  0  0  0  0  0  0  0  0
   25.7112   15.0696   20.6312 O   0  0  0  0  0  0  0  0  0  0  0  0
   29.3394   15.1393   20.9508 C   0  0  0  0  0  0  0  0  0  0  0  0
   29.4562   16.6571   20.9062 C   0  0  0  0  0  0  0  0  0  0  0  0
   30.7824   17.1252   21.5049 C   0  0  0  0  0  0  0  0  0  0  0  0
   31.9700   16.7112   20.6432 C   0  0  0  0  0  0  0  0  0  0  0  0
   33.2709   17.2166   21.1720 N   0  0  0  0  0  0  0  0  0  0  0  0
   26.9206   15.1114   22.3562 O   0  0  0  0  0  0  0  0  0  0  0  0
  2  1  1  6  0  0  0
  2  3  1  0  0  0  0
  2  5  1  0  0  0  0
  3  4  1  0  0  0  0
  3 10  1  0  0  0  0
  5  6  1  0  0  0  0
  6  7  1  0  0  0  0
  7  8  1  0  0  0  0
  8  9  1  0  0  0  0
M  END
>  <CHROM.1>
27.88716130,56.56726832,-177.44144950,67.73756748,177.10381966,28.99034255
15.76193051,20.86937147,-3.01152516,0.33442487,1.29034291

>  <Name>
ligand

>  <RI>
0

>  <Rbt.Current_Directory>
/home/itssahil/PROJECTS/Mol_Feturizer/New_Systems/rnas/3DJ2

>  <Rbt.Executable>
rbdock ($Id: //depot/dev/client3/rdock/2013.1/src/exe/rbdock.cxx#4 $)

>  <Rbt.Library>
libRbt.so (2013.1, Build901 2013/11/27)

>  <Rbt.Parameter_File>
/export/apps/rDock/src/rDock_2013.1_src/data/scripts/dock_solv.prm

>  <Rbt.Receptor>
prm/pocket_docking_4.prm

>  <SCORE>
-9.93589

>  <SCORE.INTER>
-9.67669

>  <SCORE.INTER.CONST>
1

>  <SCORE.INTER.POLAR>
0

>  <SCORE.INTER.ROT>
5

>  <SCORE.INTER.SOLV>
13.3679

>  <SCORE.INTER.VDW>
-17.8404

>  <SCORE.INTER.norm>
-0.967669

>  <SCORE.INTRA>
-0.2592

>  <SCORE.INTRA.DIHEDRAL>
-2.44325

>  <SCORE.INTRA.DIHEDRAL.0>
4.28128

>  <SCORE.INTRA.POLAR>
0

>  <SCORE.INTRA.POLAR.0>
0

>  <SCORE.INTRA.REPUL>
0

>  <SCORE.INTRA.REPUL.0>
0

>  <SCORE.INTRA.SOLV>
-0.183374

>  <SCORE.INTRA.SOLV.lig_0>
-32.3374

>  <SCORE.INTRA.VDW>
1.05411

>  <SCORE.INTRA.VDW.0>
-0.659551

>  <SCORE.INTRA.norm>
-0.02592

>  <SCORE.RESTR>
0

>  <SCORE.RESTR.CAVITY>
0

>  <SCORE.RESTR.norm>
0

>  <SCORE.SYSTEM>
0

>  <SCORE.SYSTEM.CONST>
0

>  <SCORE.SYSTEM.DIHEDRAL>
0

>  <SCORE.SYSTEM.SOLV>
0

>  <SCORE.SYSTEM.norm>
0

>  <SCORE.heavy>
10

>  <SCORE.norm>
-0.993589

>  <RMSD>
5.376

$$$$
ligand
 OpenBabel11021811473D
libRbt.so/2013.1/901 2013/11/27
 10  9  0  0  0  0  0  0  0  0999 V2000
   25.7493   15.1754   20.6065 N   0  0  0  0  0  0  0  0  0  0  0  0
   27.2028   15.4916   20.5237 C   0  0  2  0  0  0  0  0  0  0  0  0
   27.7205   15.4515   19.0858 C   0  0  0  0  0  0  0  0  0  0  0  0
   27.4700   14.5093   18.3272 O   0  0  0  0  0  0  0  0  0  0  0  0
   28.0146   14.5614   21.4290 C   0  0  0  0  0  0  0  0  0  0  0  0
   29.5188   14.7934   21.3762 C   0  0  0  0  0  0  0  0  0  0  0  0
   29.8858   16.1597   21.9547 C   0  0  0  0  0  0  0  0  0  0  0  0
   31.3887   16.4110   21.9036 C   0  0  0  0  0  0  0  0  0  0  0  0
   31.7676   17.7542   22.4325 N   0  0  0  0  0  0  0  0  0  0  0  0
   28.3883   16.3806   18.6366 O   0  0  0  0  0  0  0  0  0  0  0  0
  2  1  1  6  0  0  0
  2  3  1  0  0  0  0
  2  5  1  0  0  0  0
  3  4  1  0  0  0  0
  3 10  1  0  0  0  0
  5  6  1  0  0  0  0
  6  7  1  0  0  0  0
  7  8  1  0  0  0  0
  8  9  1  0  0  0  0
M  END
>  <CHROM.1>
-48.08310190,178.47316678,66.44138471,-179.73358331,178.57066752,28.71369354
15.66669588,20.59010547,2.66976796,-0.48137023,-1.39220900

>  <Name>
ligand

>  <RI>
0

>  <Rbt.Current_Directory>
/home/itssahil/PROJECTS/Mol_Feturizer/New_Systems/rnas/3DJ2

>  <Rbt.Executable>
rbdock ($Id: //depot/dev/client3/rdock/2013.1/src/exe/rbdock.cxx#4 $)

>  <Rbt.Library>
libRbt.so (2013.1, Build901 2013/11/27)

>  <Rbt.Parameter_File>
/export/apps/rDock/src/rDock_2013.1_src/data/scripts/dock_solv.prm

>  <Rbt.Receptor>
prm/pocket_docking_3.prm

>  <SCORE>
-9.33521

>  <SCORE.INTER>
-7.51942

>  <SCORE.INTER.CONST>
1

>  <SCORE.INTER.POLAR>
0

>  <SCORE.INTER.ROT>
5

>  <SCORE.INTER.SOLV>
18.1612

>  <SCORE.INTER.VDW>
-18

>  <SCORE.INTER.norm>
-0.751942

>  <SCORE.INTRA>
-1.81579

>  <SCORE.INTRA.DIHEDRAL>
-2.53834

>  <SCORE.INTRA.DIHEDRAL.0>
4.28128

>  <SCORE.INTRA.POLAR>
0

>  <SCORE.INTRA.POLAR.0>
0

>  <SCORE.INTRA.REPUL>
0

>  <SCORE.INTRA.REPUL.0>
0

>  <SCORE.INTRA.SOLV>
-1.13209

>  <SCORE.INTRA.SOLV.lig_0>
-32.3374

>  <SCORE.INTRA.VDW>
0.0194255

>  <SCORE.INTRA.VDW.0>
-0.659551

>  <SCORE.INTRA.norm>
-0.181579

>  <SCORE.RESTR>
0

>  <SCORE.RESTR.CAVITY>
0

>  <SCORE.RESTR.norm>
0

>  <SCORE.SYSTEM>
0

>  <SCORE.SYSTEM.CONST>
0

>  <SCORE.SYSTEM.DIHEDRAL>
0

>  <SCORE.SYSTEM.SOLV>
0

>  <SCORE.SYSTEM.norm>
0

>  <SCORE.heavy>
10

>  <SCORE.norm>
-0.933521

>  <RMSD>
5.377

$$$$
ligand
 OpenBabel11021811473D
libRbt.so/2013.1/901 2013/11/27
 10  9  0  0  0  0  0  0  0  0999 V2000
   27.1538   14.2614   18.5391 N   0  0  0  0  0  0  0  0  0  0  0  0
   27.7744   14.8011   19.7812 C   0  0  2  0  0  0  0  0  0  0  0  0
   26.7637   14.9324   20.9206 C   0  0  0  0  0  0  0  0  0  0  0  0
   25.5551   15.0748   20.7088 O   0  0  0  0  0  0  0  0  0  0  0  0
   28.4720   16.1357   19.5055 C   0  0  0  0  0  0  0  0  0  0  0  0
   29.3162   16.6511   20.6635 C   0  0  0  0  0  0  0  0  0  0  0  0
   30.4836   15.7089   20.9558 C   0  0  0  0  0  0  0  0  0  0  0  0
   31.2697   16.1462   22.1868 C   0  0  0  0  0  0  0  0  0  0  0  0
   31.9319   17.4717   22.0079 N   0  0  0  0  0  0  0  0  0  0  0  0
   27.1323   14.8746   22.0918 O   0  0  0  0  0  0  0  0  0  0  0  0
  2  1  1  6  0  0  0
  2  3  1  0  0  0  0
  2  5  1  0  0  0  0
  3  4  1  0  0  0  0
  3 10  1  0  0  0  0
  5  6  1  0  0  0  0
  6  7  1  0  0  0  0
  7  8  1  0  0  0  0
  8  9  1  0  0  0  0
M  END
>  <CHROM.1>
-25.69017635,-170.91942752,64.07947307,-175.14223821,-64.01228774,28.55414500
15.60344418,20.75897790,-2.80932599,0.35066425,1.45713824

>  <Name>
ligand

>  <RI>
0

>  <Rbt.Current_Directory>
/home/itssahil/PROJECTS/Mol_Feturizer/New_Systems/rnas/3DJ2

>  <Rbt.Executable>
rbdock ($Id: //depot/dev/client3/rdock/2013.1/src/exe/rbdock.cxx#4 $)

>  <Rbt.Library>
libRbt.so (2013.1, Build901 2013/11/27)

>  <Rbt.Parameter_File>
/export/apps/rDock/src/rDock_2013.1_src/data/scripts/dock_solv.prm

>  <Rbt.Receptor>
prm/pocket_docking_4.prm

>  <SCORE>
-10.9319

>  <SCORE.INTER>
-9.80246

>  <SCORE.INTER.CONST>
1

>  <SCORE.INTER.POLAR>
0

>  <SCORE.INTER.ROT>
5

>  <SCORE.INTER.SOLV>
14.5228

>  <SCORE.INTER.VDW>
-18.3092

>  <SCORE.INTER.norm>
-0.980246

>  <SCORE.INTRA>
-1.12942

>  <SCORE.INTRA.DIHEDRAL>
-2.18678

>  <SCORE.INTRA.DIHEDRAL.0>
4.28128

>  <SCORE.INTRA.POLAR>
0

>  <SCORE.INTRA.POLAR.0>
0

>  <SCORE.INTRA.REPUL>
0

>  <SCORE.INTRA.REPUL.0>
0

>  <SCORE.INTRA.SOLV>
-0.174282

>  <SCORE.INTRA.SOLV.lig_0>
-32.3374

>  <SCORE.INTRA.VDW>
0.0511112

>  <SCORE.INTRA.VDW.0>
-0.659551

>  <SCORE.INTRA.norm>
-0.112942

>  <SCORE.RESTR>
0

>  <SCORE.RESTR.CAVITY>
0

>  <SCORE.RESTR.norm>
0

>  <SCORE.SYSTEM>
0

>  <SCORE.SYSTEM.CONST>
0

>  <SCORE.SYSTEM.DIHEDRAL>
0

>  <SCORE.SYSTEM.SOLV>
0

>  <SCORE.SYSTEM.norm>
0

>  <SCORE.heavy>
10

>  <SCORE.norm>
-1.09319

>  <RMSD>
5.380

$$$$
ligand
 OpenBabel11021811473D
libRbt.so/2013.1/901 2013/11/27
 10  9  0  0  0  0  0  0  0  0999 V2000
   27.2123   14.2443   18.5747 N   0  0  0  0  0  0  0  0  0  0  0  0
   27.7941   14.7551   19.8474 C   0  0  2  0  0  0  0  0  0  0  0  0
   26.7351   14.9301   20.9360 C   0  0  0  0  0  0  0  0  0  0  0  0
   27.0245   14.9207   22.1369 O   0  0  0  0  0  0  0  0  0  0  0  0
   28.5627   16.0577   19.6104 C   0  0  0  0  0  0  0  0  0  0  0  0
   29.3463   16.5505   20.8197 C   0  0  0  0  0  0  0  0  0  0  0  0
   30.4502   15.5640   21.1997 C   0  0  0  0  0  0  0  0  0  0  0  0
   31.2650   16.0571   22.3903 C   0  0  0  0  0  0  0  0  0  0  0  0
   31.9940   17.3276   22.1044 N   0  0  0  0  0  0  0  0  0  0  0  0
   25.5565   15.1109   20.6371 O   0  0  0  0  0  0  0  0  0  0  0  0
  2  1  1  6  0  0  0
  2  3  1  0  0  0  0
  2  5  1  0  0  0  0
  3  4  1  0  0  0  0
  3 10  1  0  0  0  0
  5  6  1  0  0  0  0
  6  7  1  0  0  0  0
  7  8  1  0  0  0  0
  8  9  1  0  0  0  0
M  END
>  <CHROM.1>
156.34617227,-172.18674154,63.98735835,178.73246077,-63.06284837,28.56164172
15.55131496,20.84689818,-2.77462790,0.31058236,1.43020279

>  <Name>
ligand

>  <RI>
0

>  <Rbt.Current_Directory>
/home/itssahil/PROJECTS/Mol_Feturizer/New_Systems/rnas/3DJ2

>  <Rbt.Executable>
rbdock ($Id: //depot/dev/client3/rdock/2013.1/src/exe/rbdock.cxx#4 $)

>  <Rbt.Library>
libRbt.so (2013.1, Build901 2013/11/27)

>  <Rbt.Parameter_File>
/export/apps/rDock/src/rDock_2013.1_src/data/scripts/dock_solv.prm

>  <Rbt.Receptor>
prm/pocket_docking_7.prm

>  <SCORE>
-11.0676

>  <SCORE.INTER>
-9.87942

>  <SCORE.INTER.CONST>
1

>  <SCORE.INTER.POLAR>
0

>  <SCORE.INTER.ROT>
5

>  <SCORE.INTER.SOLV>
14.2415

>  <SCORE.INTER.VDW>
-18.2668

>  <SCORE.INTER.norm>
-0.987942

>  <SCORE.INTRA>
-1.18814

>  <SCORE.INTRA.DIHEDRAL>
-2.48009

>  <SCORE.INTRA.DIHEDRAL.0>
4.28128

>  <SCORE.INTRA.POLAR>
0

>  <SCORE.INTRA.POLAR.0>
0

>  <SCORE.INTRA.REPUL>
0

>  <SCORE.INTRA.REPUL.0>
0

>  <SCORE.INTRA.SOLV>
-0.139459

>  <SCORE.INTRA.SOLV.lig_0>
-32.3374

>  <SCORE.INTRA.VDW>
0.121635

>  <SCORE.INTRA.VDW.0>
-0.659551

>  <SCORE.INTRA.norm>
-0.118814

>  <SCORE.RESTR>
0

>  <SCORE.RESTR.CAVITY>
0

>  <SCORE.RESTR.norm>
0

>  <SCORE.SYSTEM>
0

>  <SCORE.SYSTEM.CONST>
0

>  <SCORE.SYSTEM.DIHEDRAL>
0

>  <SCORE.SYSTEM.SOLV>
0

>  <SCORE.SYSTEM.norm>
0

>  <SCORE.heavy>
10

>  <SCORE.norm>
-1.10676

>  <RMSD>
5.384

$$$$
ligand
 OpenBabel11021811473D
libRbt.so/2013.1/901 2013/11/27
 10  9  0  0  0  0  0  0  0  0999 V2000
   28.1058   15.6893   18.9009 N   0  0  0  0  0  0  0  0  0  0  0  0
   28.2446   15.4154   20.3586 C   0  0  2  0  0  0  0  0  0  0  0  0
   26.8951   15.1506   21.0264 C   0  0  0  0  0  0  0  0  0  0  0  0
   25.8357   15.1767   20.3918 O   0  0  0  0  0  0  0  0  0  0  0  0
   28.9925   16.5538   21.0575 C   0  0  0  0  0  0  0  0  0  0  0  0
   30.3521   16.8742   20.4507 C   0  0  0  0  0  0  0  0  0  0  0  0
   31.3261   15.7111   20.6369 C   0  0  0  0  0  0  0  0  0  0  0  0
   32.7216   16.0541   20.1278 C   0  0  0  0  0  0  0  0  0  0  0  0
   33.3624   17.1588   20.8999 N   0  0  0  0  0  0  0  0  0  0  0  0
   26.8338   14.8780   22.2235 O   0  0  0  0  0  0  0  0  0  0  0  0
  2  1  1  6  0  0  0
  2  3  1  0  0  0  0
  2  5  1  0  0  0  0
  3  4  1  0  0  0  0
  3 10  1  0  0  0  0
  5  6  1  0  0  0  0
  6  7  1  0  0  0  0
  7  8  1  0  0  0  0
  8  9  1  0  0  0  0
M  END
>  <CHROM.1>
-0.28526905,-54.78887594,-65.93085485,-175.76248965,64.37212652,29.22577356
15.85602257,20.62297234,3.06886093,0.22781298,1.65421321

>  <Name>
ligand

>  <RI>
0

>  <Rbt.Current_Directory>
/home/itssahil/PROJECTS/Mol_Feturizer/New_Systems/rnas/3DJ2

>  <Rbt.Executable>
rbdock ($Id: //depot/dev/client3/rdock/2013.1/src/exe/rbdock.cxx#4 $)

>  <Rbt.Library>
libRbt.so (2013.1, Build901 2013/11/27)

>  <Rbt.Parameter_File>
/export/apps/rDock/src/rDock_2013.1_src/data/scripts/dock_solv.prm

>  <Rbt.Receptor>
prm/pocket_docking_7.prm

>  <SCORE>
-9.75441

>  <SCORE.INTER>
-9.49219

>  <SCORE.INTER.CONST>
1

>  <SCORE.INTER.POLAR>
0

>  <SCORE.INTER.ROT>
5

>  <SCORE.INTER.SOLV>
13.5147

>  <SCORE.INTER.VDW>
-17.7664

>  <SCORE.INTER.norm>
-0.949219

>  <SCORE.INTRA>
-0.26222

>  <SCORE.INTRA.DIHEDRAL>
-2.3674

>  <SCORE.INTRA.DIHEDRAL.0>
4.28128

>  <SCORE.INTRA.POLAR>
0

>  <SCORE.INTRA.POLAR.0>
0

>  <SCORE.INTRA.REPUL>
0

>  <SCORE.INTRA.REPUL.0>
0

>  <SCORE.INTRA.SOLV>
1.09925

>  <SCORE.INTRA.SOLV.lig_0>
-32.3374

>  <SCORE.INTRA.VDW>
0.371858

>  <SCORE.INTRA.VDW.0>
-0.659551

>  <SCORE.INTRA.norm>
-0.026222

>  <SCORE.RESTR>
0

>  <SCORE.RESTR.CAVITY>
0

>  <SCORE.RESTR.norm>
0

>  <SCORE.SYSTEM>
0

>  <SCORE.SYSTEM.CONST>
0

>  <SCORE.SYSTEM.DIHEDRAL>
0

>  <SCORE.SYSTEM.SOLV>
0

>  <SCORE.SYSTEM.norm>
0

>  <SCORE.heavy>
10

>  <SCORE.norm>
-0.975441

>  <RMSD>
5.384

$$$$
ligand
 OpenBabel11021811473D
libRbt.so/2013.1/901 2013/11/27
 10  9  0  0  0  0  0  0  0  0999 V2000
   27.2072   14.2215   18.5797 N   0  0  0  0  0  0  0  0  0  0  0  0
   27.7881   14.7506   19.8453 C   0  0  2  0  0  0  0  0  0  0  0  0
   26.7287   14.9390   20.9314 C   0  0  0  0  0  0  0  0  0  0  0  0
   27.0184   14.9482   22.1321 O   0  0  0  0  0  0  0  0  0  0  0  0
   28.5547   16.0511   19.5905 C   0  0  0  0  0  0  0  0  0  0  0  0
   29.3403   16.5598   20.7919 C   0  0  0  0  0  0  0  0  0  0  0  0
   30.4456   15.5790   21.1823 C   0  0  0  0  0  0  0  0  0  0  0  0
   31.2414   16.0724   22.3855 C   0  0  0  0  0  0  0  0  0  0  0  0
   31.9651   17.3492   22.1147 N   0  0  0  0  0  0  0  0  0  0  0  0
   25.5497   15.1120   20.6300 O   0  0  0  0  0  0  0  0  0  0  0  0
  2  1  1  6  0  0  0
  2  3  1  0  0  0  0
  2  5  1  0  0  0  0
  3  4  1  0  0  0  0
  3 10  1  0  0  0  0
  5  6  1  0  0  0  0
  6  7  1  0  0  0  0
  7  8  1  0  0  0  0
  8  9  1  0  0  0  0
M  END
>  <CHROM.1>
156.44153430,-172.04078751,63.95514823,-179.92657763,-63.02878561,28.55150643
15.55805141,20.83954123,-2.76828075,0.30981287,1.41605173

>  <Name>
ligand

>  <RI>
0

>  <Rbt.Current_Directory>
/home/itssahil/PROJECTS/Mol_Feturizer/New_Systems/rnas/3DJ2

>  <Rbt.Executable>
rbdock ($Id: //depot/dev/client3/rdock/2013.1/src/exe/rbdock.cxx#4 $)

>  <Rbt.Library>
libRbt.so (2013.1, Build901 2013/11/27)

>  <Rbt.Parameter_File>
/export/apps/rDock/src/rDock_2013.1_src/data/scripts/dock_solv.prm

>  <Rbt.Receptor>
prm/pocket_docking_4.prm

>  <SCORE>
-11.0842

>  <SCORE.INTER>
-9.89118

>  <SCORE.INTER.CONST>
1

>  <SCORE.INTER.POLAR>
0

>  <SCORE.INTER.ROT>
5

>  <SCORE.INTER.SOLV>
14.2682

>  <SCORE.INTER.VDW>
-18.2835

>  <SCORE.INTER.norm>
-0.989118

>  <SCORE.INTRA>
-1.19298

>  <SCORE.INTRA.DIHEDRAL>
-2.48019

>  <SCORE.INTRA.DIHEDRAL.0>
4.28128

>  <SCORE.INTRA.POLAR>
0

>  <SCORE.INTRA.POLAR.0>
0

>  <SCORE.INTRA.REPUL>
0

>  <SCORE.INTRA.REPUL.0>
0

>  <SCORE.INTRA.SOLV>
-0.144409

>  <SCORE.INTRA.SOLV.lig_0>
-32.3374

>  <SCORE.INTRA.VDW>
0.11932

>  <SCORE.INTRA.VDW.0>
-0.659551

>  <SCORE.INTRA.norm>
-0.119298

>  <SCORE.RESTR>
0

>  <SCORE.RESTR.CAVITY>
0

>  <SCORE.RESTR.norm>
0

>  <SCORE.SYSTEM>
0

>  <SCORE.SYSTEM.CONST>
0

>  <SCORE.SYSTEM.DIHEDRAL>
0

>  <SCORE.SYSTEM.SOLV>
0

>  <SCORE.SYSTEM.norm>
0

>  <SCORE.heavy>
10

>  <SCORE.norm>
-1.10842

>  <RMSD>
5.385

$$$$
ligand
 OpenBabel11021811473D
libRbt.so/2013.1/901 2013/11/27
 10  9  0  0  0  0  0  0  0  0999 V2000
   27.1974   14.2114   18.5784 N   0  0  0  0  0  0  0  0  0  0  0  0
   27.7809   14.7446   19.8411 C   0  0  2  0  0  0  0  0  0  0  0  0
   26.7229   14.9412   20.9271 C   0  0  0  0  0  0  0  0  0  0  0  0
   27.0150   14.9664   22.1270 O   0  0  0  0  0  0  0  0  0  0  0  0
   28.5511   16.0416   19.5797 C   0  0  0  0  0  0  0  0  0  0  0  0
   29.3301   16.5595   20.7815 C   0  0  0  0  0  0  0  0  0  0  0  0
   30.4363   15.5841   21.1826 C   0  0  0  0  0  0  0  0  0  0  0  0
   31.2196   16.0825   22.3919 C   0  0  0  0  0  0  0  0  0  0  0  0
   31.9452   17.3588   22.1237 N   0  0  0  0  0  0  0  0  0  0  0  0
   25.5424   15.1050   20.6261 O   0  0  0  0  0  0  0  0  0  0  0  0
  2  1  1  6  0  0  0
  2  3  1  0  0  0  0
  2  5  1  0  0  0  0
  3  4  1  0  0  0  0
  3 10  1  0  0  0  0
  5  6  1  0  0  0  0
  6  7  1  0  0  0  0
  7  8  1  0  0  0  0
  8  9  1  0  0  0  0
M  END
>  <CHROM.1>
157.06446528,-172.51151471,64.26815121,-179.55285324,-63.30338196,28.54172190
15.55944547,20.83709162,-2.76250605,0.30957944,1.40857014

>  <Name>
ligand

>  <RI>
0

>  <Rbt.Current_Directory>
/home/itssahil/PROJECTS/Mol_Feturizer/New_Systems/rnas/3DJ2

>  <Rbt.Executable>
rbdock ($Id: //depot/dev/client3/rdock/2013.1/src/exe/rbdock.cxx#4 $)

>  <Rbt.Library>
libRbt.so (2013.1, Build901 2013/11/27)

>  <Rbt.Parameter_File>
/export/apps/rDock/src/rDock_2013.1_src/data/scripts/dock_solv.prm

>  <Rbt.Receptor>
prm/pocket_docking_3.prm

>  <SCORE>
-11.0833

>  <SCORE.INTER>
-9.88691

>  <SCORE.INTER.CONST>
1

>  <SCORE.INTER.POLAR>
0

>  <SCORE.INTER.ROT>
5

>  <SCORE.INTER.SOLV>
14.297

>  <SCORE.INTER.VDW>
-18.2903

>  <SCORE.INTER.norm>
-0.988691

>  <SCORE.INTRA>
-1.19639

>  <SCORE.INTRA.DIHEDRAL>
-2.48823

>  <SCORE.INTRA.DIHEDRAL.0>
4.28128

>  <SCORE.INTRA.POLAR>
0

>  <SCORE.INTRA.POLAR.0>
0

>  <SCORE.INTRA.REPUL>
0

>  <SCORE.INTRA.REPUL.0>
0

>  <SCORE.INTRA.SOLV>
-0.154941

>  <SCORE.INTRA.SOLV.lig_0>
-32.3374

>  <SCORE.INTRA.VDW>
0.125199

>  <SCORE.INTRA.VDW.0>
-0.659551

>  <SCORE.INTRA.norm>
-0.119639

>  <SCORE.RESTR>
0

>  <SCORE.RESTR.CAVITY>
0

>  <SCORE.RESTR.norm>
0

>  <SCORE.SYSTEM>
0

>  <SCORE.SYSTEM.CONST>
0

>  <SCORE.SYSTEM.DIHEDRAL>
0

>  <SCORE.SYSTEM.SOLV>
0

>  <SCORE.SYSTEM.norm>
0

>  <SCORE.heavy>
10

>  <SCORE.norm>
-1.10833

>  <RMSD>
5.387

$$$$
ligand
 OpenBabel11021811473D
libRbt.so/2013.1/901 2013/11/27
 10  9  0  0  0  0  0  0  0  0999 V2000
   27.1781   14.2097   18.6158 N   0  0  0  0  0  0  0  0  0  0  0  0
   27.7742   14.7326   19.8770 C   0  0  2  0  0  0  0  0  0  0  0  0
   26.7258   14.9280   20.9724 C   0  0  0  0  0  0  0  0  0  0  0  0
   27.0320   14.9818   22.1679 O   0  0  0  0  0  0  0  0  0  0  0  0
   28.5487   16.0273   19.6170 C   0  0  0  0  0  0  0  0  0  0  0  0
   29.3368   16.5363   20.8166 C   0  0  0  0  0  0  0  0  0  0  0  0
   30.4417   15.5547   21.2063 C   0  0  0  0  0  0  0  0  0  0  0  0
   31.2646   16.0666   22.3833 C   0  0  0  0  0  0  0  0  0  0  0  0
   31.9823   17.3385   22.0762 N   0  0  0  0  0  0  0  0  0  0  0  0
   25.5385   15.0618   20.6835 O   0  0  0  0  0  0  0  0  0  0  0  0
  2  1  1  6  0  0  0
  2  3  1  0  0  0  0
  2  5  1  0  0  0  0
  3  4  1  0  0  0  0
  3 10  1  0  0  0  0
  5  6  1  0  0  0  0
  6  7  1  0  0  0  0
  7  8  1  0  0  0  0
  8  9  1  0  0  0  0
M  END
>  <CHROM.1>
159.11543268,-172.66514714,64.31994739,178.48947330,-62.46626532,28.55006168
15.54366326,20.86307265,-2.77736017,0.30883663,1.41064583

>  <Name>
ligand

>  <RI>
0

>  <Rbt.Current_Directory>
/home/itssahil/PROJECTS/Mol_Feturizer/New_Systems/rnas/3DJ2

>  <Rbt.Executable>
rbdock ($Id: //depot/dev/client3/rdock/2013.1/src/exe/rbdock.cxx#4 $)

>  <Rbt.Library>
libRbt.so (2013.1, Build901 2013/11/27)

>  <Rbt.Parameter_File>
/export/apps/rDock/src/rDock_2013.1_src/data/scripts/dock_solv.prm

>  <Rbt.Receptor>
prm/blind_docking_60.prm

>  <SCORE>
-11.0155

>  <SCORE.INTER>
-9.86037

>  <SCORE.INTER.CONST>
1

>  <SCORE.INTER.POLAR>
0

>  <SCORE.INTER.ROT>
5

>  <SCORE.INTER.SOLV>
14.3183

>  <SCORE.INTER.VDW>
-18.2797

>  <SCORE.INTER.norm>
-0.986037

>  <SCORE.INTRA>
-1.15518

>  <SCORE.INTRA.DIHEDRAL>
-2.50239

>  <SCORE.INTRA.DIHEDRAL.0>
4.28128

>  <SCORE.INTRA.POLAR>
0

>  <SCORE.INTRA.POLAR.0>
0

>  <SCORE.INTRA.REPUL>
0

>  <SCORE.INTRA.REPUL.0>
0

>  <SCORE.INTRA.SOLV>
-0.13405

>  <SCORE.INTRA.SOLV.lig_0>
-32.3374

>  <SCORE.INTRA.VDW>
0.163045

>  <SCORE.INTRA.VDW.0>
-0.659551

>  <SCORE.INTRA.norm>
-0.115518

>  <SCORE.RESTR>
0

>  <SCORE.RESTR.CAVITY>
0

>  <SCORE.RESTR.norm>
0

>  <SCORE.SYSTEM>
0

>  <SCORE.SYSTEM.CONST>
0

>  <SCORE.SYSTEM.DIHEDRAL>
0

>  <SCORE.SYSTEM.SOLV>
0

>  <SCORE.SYSTEM.norm>
0

>  <SCORE.heavy>
10

>  <SCORE.norm>
-1.10155

>  <RMSD>
5.388

$$$$
ligand
 OpenBabel11021811473D
libRbt.so/2013.1/901 2013/11/27
 10  9  0  0  0  0  0  0  0  0999 V2000
   28.5830   14.1284   22.1332 N   0  0  0  0  0  0  0  0  0  0  0  0
   28.1721   15.4376   21.5531 C   0  0  2  0  0  0  0  0  0  0  0  0
   27.3873   15.2707   20.2518 C   0  0  0  0  0  0  0  0  0  0  0  0
   26.6536   16.1620   19.8123 O   0  0  0  0  0  0  0  0  0  0  0  0
   29.3858   16.3491   21.3528 C   0  0  0  0  0  0  0  0  0  0  0  0
   30.5366   15.7006   20.5948 C   0  0  0  0  0  0  0  0  0  0  0  0
   31.7512   16.6268   20.5403 C   0  0  0  0  0  0  0  0  0  0  0  0
   32.3668   16.8350   21.9195 C   0  0  0  0  0  0  0  0  0  0  0  0
   33.4954   17.8114   21.9065 N   0  0  0  0  0  0  0  0  0  0  0  0
   27.4877   14.2397   19.5901 O   0  0  0  0  0  0  0  0  0  0  0  0
  2  1  1  6  0  0  0
  2  3  1  0  0  0  0
  2  5  1  0  0  0  0
  3  4  1  0  0  0  0
  3 10  1  0  0  0  0
  5  6  1  0  0  0  0
  6  7  1  0  0  0  0
  7  8  1  0  0  0  0
  8  9  1  0  0  0  0
M  END
>  <CHROM.1>
159.66228509,51.13229860,-175.10848756,67.09659170,-175.95997086,29.55274547
15.84913404,20.93580255,-3.04601414,-0.41987454,-0.78248931

>  <Name>
ligand

>  <RI>
0

>  <Rbt.Current_Directory>
/home/itssahil/PROJECTS/Mol_Feturizer/New_Systems/rnas/3DJ2

>  <Rbt.Executable>
rbdock ($Id: //depot/dev/client3/rdock/2013.1/src/exe/rbdock.cxx#4 $)

>  <Rbt.Library>
libRbt.so (2013.1, Build901 2013/11/27)

>  <Rbt.Parameter_File>
/export/apps/rDock/src/rDock_2013.1_src/data/scripts/dock_solv.prm

>  <Rbt.Receptor>
prm/pocket_docking_5.prm

>  <SCORE>
-6.62195

>  <SCORE.INTER>
-6.12483

>  <SCORE.INTER.CONST>
1

>  <SCORE.INTER.POLAR>
0

>  <SCORE.INTER.ROT>
5

>  <SCORE.INTER.SOLV>
17.7686

>  <SCORE.INTER.VDW>
-16.9394

>  <SCORE.INTER.norm>
-0.612483

>  <SCORE.INTRA>
-0.497126

>  <SCORE.INTRA.DIHEDRAL>
-2.10638

>  <SCORE.INTRA.DIHEDRAL.0>
4.28128

>  <SCORE.INTRA.POLAR>
0

>  <SCORE.INTRA.POLAR.0>
0

>  <SCORE.INTRA.REPUL>
0

>  <SCORE.INTRA.REPUL.0>
0

>  <SCORE.INTRA.SOLV>
-0.0230496

>  <SCORE.INTRA.SOLV.lig_0>
-32.3374

>  <SCORE.INTRA.VDW>
0.567591

>  <SCORE.INTRA.VDW.0>
-0.659551

>  <SCORE.INTRA.norm>
-0.0497126

>  <SCORE.RESTR>
0

>  <SCORE.RESTR.CAVITY>
0

>  <SCORE.RESTR.norm>
0

>  <SCORE.SYSTEM>
0

>  <SCORE.SYSTEM.CONST>
0

>  <SCORE.SYSTEM.DIHEDRAL>
0

>  <SCORE.SYSTEM.SOLV>
0

>  <SCORE.SYSTEM.norm>
0

>  <SCORE.heavy>
10

>  <SCORE.norm>
-0.662195

>  <RMSD>
5.391

$$$$
ligand
 OpenBabel11021811473D
libRbt.so/2013.1/901 2013/11/27
 10  9  0  0  0  0  0  0  0  0999 V2000
   28.4235   14.1570   20.3831 N   0  0  0  0  0  0  0  0  0  0  0  0
   28.3362   14.8178   19.0508 C   0  0  2  0  0  0  0  0  0  0  0  0
   28.0042   16.3056   19.1659 C   0  0  0  0  0  0  0  0  0  0  0  0
   28.6500   17.1679   18.5615 O   0  0  0  0  0  0  0  0  0  0  0  0
   27.3306   14.0959   18.1500 C   0  0  0  0  0  0  0  0  0  0  0  0
   27.7562   12.6935   17.7358 C   0  0  0  0  0  0  0  0  0  0  0  0
   26.5514   11.8569   17.3059 C   0  0  0  0  0  0  0  0  0  0  0  0
   26.8916   10.3728   17.2276 C   0  0  0  0  0  0  0  0  0  0  0  0
   25.6789    9.5051   17.1653 N   0  0  0  0  0  0  0  0  0  0  0  0
   27.0581   16.6827   19.8541 O   0  0  0  0  0  0  0  0  0  0  0  0
  2  1  1  1  0  0  0
  2  3  1  0  0  0  0
  2  5  1  0  0  0  0
  3  4  1  0  0  0  0
  3 10  1  0  0  0  0
  5  6  1  0  0  0  0
  6  7  1  0  0  0  0
  7  8  1  0  0  0  0
  8  9  1  0  0  0  0
M  END
>  <CHROM.1>
131.14523811,-67.39011160,158.87309056,-165.59849737,164.93211505,27.46511974
13.81059515,18.46650323,-0.69895919,1.23505249,2.63117924

>  <Name>
ligand

>  <RI>
0

>  <Rbt.Current_Directory>
/home/itssahil/PROJECTS/Mol_Feturizer/New_Systems/rnas/3DJ2

>  <Rbt.Executable>
rbdock ($Id: //depot/dev/client3/rdock/2013.1/src/exe/rbdock.cxx#4 $)

>  <Rbt.Library>
libRbt.so (2013.1, Build901 2013/11/27)

>  <Rbt.Parameter_File>
/export/apps/rDock/src/rDock_2013.1_src/data/scripts/dock_solv.prm

>  <Rbt.Receptor>
prm/blind_docking_40.prm

>  <SCORE>
-7.60281

>  <SCORE.INTER>
-7.53158

>  <SCORE.INTER.CONST>
1

>  <SCORE.INTER.POLAR>
0

>  <SCORE.INTER.ROT>
5

>  <SCORE.INTER.SOLV>
14.9888

>  <SCORE.INTER.VDW>
-16.9507

>  <SCORE.INTER.norm>
-0.753158

>  <SCORE.INTRA>
-0.0712314

>  <SCORE.INTRA.DIHEDRAL>
0.78305

>  <SCORE.INTRA.DIHEDRAL.0>
4.28128

>  <SCORE.INTRA.POLAR>
0

>  <SCORE.INTRA.POLAR.0>
0

>  <SCORE.INTRA.REPUL>
0

>  <SCORE.INTRA.REPUL.0>
0

>  <SCORE.INTRA.SOLV>
-0.391104

>  <SCORE.INTRA.SOLV.lig_0>
-32.3374

>  <SCORE.INTRA.VDW>
-0.267204

>  <SCORE.INTRA.VDW.0>
-0.659551

>  <SCORE.INTRA.norm>
-0.00712314

>  <SCORE.RESTR>
0

>  <SCORE.RESTR.CAVITY>
0

>  <SCORE.RESTR.norm>
0

>  <SCORE.SYSTEM>
0

>  <SCORE.SYSTEM.CONST>
0

>  <SCORE.SYSTEM.DIHEDRAL>
0

>  <SCORE.SYSTEM.SOLV>
0

>  <SCORE.SYSTEM.norm>
0

>  <SCORE.heavy>
10

>  <SCORE.norm>
-0.760281

>  <RMSD>
5.392

$$$$
ligand
 OpenBabel11021811473D
libRbt.so/2013.1/901 2013/11/27
 10  9  0  0  0  0  0  0  0  0999 V2000
   27.0460   14.0407   18.6716 N   0  0  0  0  0  0  0  0  0  0  0  0
   27.6719   14.7886   19.7977 C   0  0  2  0  0  0  0  0  0  0  0  0
   26.7438   14.8906   21.0083 C   0  0  0  0  0  0  0  0  0  0  0  0
   27.1785   15.0542   22.1530 O   0  0  0  0  0  0  0  0  0  0  0  0
   28.1361   16.1737   19.3398 C   0  0  0  0  0  0  0  0  0  0  0  0
   29.0851   16.8671   20.3084 C   0  0  0  0  0  0  0  0  0  0  0  0
   30.4160   16.1216   20.4038 C   0  0  0  0  0  0  0  0  0  0  0  0
   31.4445   16.9009   21.2157 C   0  0  0  0  0  0  0  0  0  0  0  0
   31.0218   17.1136   22.6311 N   0  0  0  0  0  0  0  0  0  0  0  0
   25.5241   14.8351   20.8663 O   0  0  0  0  0  0  0  0  0  0  0  0
  2  1  1  6  0  0  0
  2  3  1  0  0  0  0
  2  5  1  0  0  0  0
  3  4  1  0  0  0  0
  3 10  1  0  0  0  0
  5  6  1  0  0  0  0
  6  7  1  0  0  0  0
  7  8  1  0  0  0  0
  8  9  1  0  0  0  0
M  END
>  <CHROM.1>
155.52231694,-165.50942389,66.15700077,172.12797789,62.10418252,28.39802291
15.67572124,20.66465431,-2.83641954,0.42095118,1.40659554

>  <Name>
ligand

>  <RI>
0

>  <Rbt.Current_Directory>
/home/itssahil/PROJECTS/Mol_Feturizer/New_Systems/rnas/3DJ2

>  <Rbt.Executable>
rbdock ($Id: //depot/dev/client3/rdock/2013.1/src/exe/rbdock.cxx#4 $)

>  <Rbt.Library>
libRbt.so (2013.1, Build901 2013/11/27)

>  <Rbt.Parameter_File>
/export/apps/rDock/src/rDock_2013.1_src/data/scripts/dock_solv.prm

>  <Rbt.Receptor>
prm/pocket_docking_7.prm

>  <SCORE>
-10.0721

>  <SCORE.INTER>
-9.16617

>  <SCORE.INTER.CONST>
1

>  <SCORE.INTER.POLAR>
0

>  <SCORE.INTER.ROT>
5

>  <SCORE.INTER.SOLV>
15.2628

>  <SCORE.INTER.VDW>
-18.1317

>  <SCORE.INTER.norm>
-0.916617

>  <SCORE.INTRA>
-0.905884

>  <SCORE.INTRA.DIHEDRAL>
-1.62549

>  <SCORE.INTRA.DIHEDRAL.0>
4.28128

>  <SCORE.INTRA.POLAR>
0

>  <SCORE.INTRA.POLAR.0>
0

>  <SCORE.INTRA.REPUL>
0

>  <SCORE.INTRA.REPUL.0>
0

>  <SCORE.INTRA.SOLV>
-0.123387

>  <SCORE.INTRA.SOLV.lig_0>
-32.3374

>  <SCORE.INTRA.VDW>
-0.0314463

>  <SCORE.INTRA.VDW.0>
-0.659551

>  <SCORE.INTRA.norm>
-0.0905884

>  <SCORE.RESTR>
0

>  <SCORE.RESTR.CAVITY>
0

>  <SCORE.RESTR.norm>
0

>  <SCORE.SYSTEM>
0

>  <SCORE.SYSTEM.CONST>
0

>  <SCORE.SYSTEM.DIHEDRAL>
0

>  <SCORE.SYSTEM.SOLV>
0

>  <SCORE.SYSTEM.norm>
0

>  <SCORE.heavy>
10

>  <SCORE.norm>
-1.00721

>  <RMSD>
5.393

$$$$
ligand
 OpenBabel11021811473D
libRbt.so/2013.1/901 2013/11/27
 10  9  0  0  0  0  0  0  0  0999 V2000
   28.6877   14.8933   19.4067 N   0  0  0  0  0  0  0  0  0  0  0  0
   28.0342   14.7012   20.7316 C   0  0  2  0  0  0  0  0  0  0  0  0
   26.5301   14.9691   20.6766 C   0  0  0  0  0  0  0  0  0  0  0  0
   25.7563   14.5294   21.5333 O   0  0  0  0  0  0  0  0  0  0  0  0
   28.7097   15.5628   21.8017 C   0  0  0  0  0  0  0  0  0  0  0  0
   30.1308   15.1353   22.1436 C   0  0  0  0  0  0  0  0  0  0  0  0
   31.0965   15.4761   21.0090 C   0  0  0  0  0  0  0  0  0  0  0  0
   31.3672   16.9742   20.9267 C   0  0  0  0  0  0  0  0  0  0  0  0
   32.1040   17.4939   22.1160 N   0  0  0  0  0  0  0  0  0  0  0  0
   26.0512   15.6583   19.7786 O   0  0  0  0  0  0  0  0  0  0  0  0
  2  1  1  6  0  0  0
  2  3  1  0  0  0  0
  2  5  1  0  0  0  0
  3  4  1  0  0  0  0
  3 10  1  0  0  0  0
  5  6  1  0  0  0  0
  6  7  1  0  0  0  0
  7  8  1  0  0  0  0
  8  9  1  0  0  0  0
M  END
>  <CHROM.1>
159.87248596,-67.98395707,72.01589872,72.80529093,66.18435669,28.80295121
15.54084607,21.00926886,-3.00392611,0.32697812,1.68760260

>  <Name>
ligand

>  <RI>
0

>  <Rbt.Current_Directory>
/home/itssahil/PROJECTS/Mol_Feturizer/New_Systems/rnas/3DJ2

>  <Rbt.Executable>
rbdock ($Id: //depot/dev/client3/rdock/2013.1/src/exe/rbdock.cxx#4 $)

>  <Rbt.Library>
libRbt.so (2013.1, Build901 2013/11/27)

>  <Rbt.Parameter_File>
/export/apps/rDock/src/rDock_2013.1_src/data/scripts/dock_solv.prm

>  <Rbt.Receptor>
prm/pocket_docking_7.prm

>  <SCORE>
-9.22151

>  <SCORE.INTER>
-10.5271

>  <SCORE.INTER.CONST>
1

>  <SCORE.INTER.POLAR>
0

>  <SCORE.INTER.ROT>
5

>  <SCORE.INTER.SOLV>
10.5945

>  <SCORE.INTER.VDW>
-17.4829

>  <SCORE.INTER.norm>
-1.05271

>  <SCORE.INTRA>
1.30562

>  <SCORE.INTRA.DIHEDRAL>
-1.14308

>  <SCORE.INTRA.DIHEDRAL.0>
4.28128

>  <SCORE.INTRA.POLAR>
0

>  <SCORE.INTRA.POLAR.0>
0

>  <SCORE.INTRA.REPUL>
0

>  <SCORE.INTRA.REPUL.0>
0

>  <SCORE.INTRA.SOLV>
2.58403

>  <SCORE.INTRA.SOLV.lig_0>
-32.3374

>  <SCORE.INTRA.VDW>
0.585145

>  <SCORE.INTRA.VDW.0>
-0.659551

>  <SCORE.INTRA.norm>
0.130562

>  <SCORE.RESTR>
0

>  <SCORE.RESTR.CAVITY>
0

>  <SCORE.RESTR.norm>
0

>  <SCORE.SYSTEM>
0

>  <SCORE.SYSTEM.CONST>
0

>  <SCORE.SYSTEM.DIHEDRAL>
0

>  <SCORE.SYSTEM.SOLV>
0

>  <SCORE.SYSTEM.norm>
0

>  <SCORE.heavy>
10

>  <SCORE.norm>
-0.922151

>  <RMSD>
5.396

$$$$
ligand
 OpenBabel11021811473D
libRbt.so/2013.1/901 2013/11/27
 10  9  0  0  0  0  0  0  0  0999 V2000
   28.6494   16.2525   19.7564 N   0  0  0  0  0  0  0  0  0  0  0  0
   28.1513   15.1594   20.6375 C   0  0  2  0  0  0  0  0  0  0  0  0
   26.6241   15.1003   20.6752 C   0  0  0  0  0  0  0  0  0  0  0  0
   25.9288   15.5911   19.7799 O   0  0  0  0  0  0  0  0  0  0  0  0
   28.7338   15.2886   22.0473 C   0  0  0  0  0  0  0  0  0  0  0  0
   30.2535   15.3767   22.0905 C   0  0  0  0  0  0  0  0  0  0  0  0
   30.7294   16.8079   21.8425 C   0  0  0  0  0  0  0  0  0  0  0  0
   32.2508   16.9058   21.8372 C   0  0  0  0  0  0  0  0  0  0  0  0
   32.8698   16.2122   20.6697 N   0  0  0  0  0  0  0  0  0  0  0  0
   26.0440   14.5337   21.5991 O   0  0  0  0  0  0  0  0  0  0  0  0
  2  1  1  6  0  0  0
  2  3  1  0  0  0  0
  2  5  1  0  0  0  0
  3  4  1  0  0  0  0
  3 10  1  0  0  0  0
  5  6  1  0  0  0  0
  6  7  1  0  0  0  0
  7  8  1  0  0  0  0
  8  9  1  0  0  0  0
M  END
>  <CHROM.1>
21.47078452,-53.62771347,83.25793270,-178.14087051,67.85192807,28.97858869
15.71712788,21.09172329,-3.09656578,0.26988208,1.94087046

>  <Name>
ligand

>  <RI>
0

>  <Rbt.Current_Directory>
/home/itssahil/PROJECTS/Mol_Feturizer/New_Systems/rnas/3DJ2

>  <Rbt.Executable>
rbdock ($Id: //depot/dev/client3/rdock/2013.1/src/exe/rbdock.cxx#4 $)

>  <Rbt.Library>
libRbt.so (2013.1, Build901 2013/11/27)

>  <Rbt.Parameter_File>
/export/apps/rDock/src/rDock_2013.1_src/data/scripts/dock_solv.prm

>  <Rbt.Receptor>
prm/pocket_docking_8.prm

>  <SCORE>
-9.16621

>  <SCORE.INTER>
-10.4682

>  <SCORE.INTER.CONST>
1

>  <SCORE.INTER.POLAR>
0

>  <SCORE.INTER.ROT>
5

>  <SCORE.INTER.SOLV>
13.2967

>  <SCORE.INTER.VDW>
-18.3444

>  <SCORE.INTER.norm>
-1.04682

>  <SCORE.INTRA>
1.30195

>  <SCORE.INTRA.DIHEDRAL>
-0.411885

>  <SCORE.INTRA.DIHEDRAL.0>
4.28128

>  <SCORE.INTRA.POLAR>
0

>  <SCORE.INTRA.POLAR.0>
0

>  <SCORE.INTRA.REPUL>
0

>  <SCORE.INTRA.REPUL.0>
0

>  <SCORE.INTRA.SOLV>
1.96286

>  <SCORE.INTRA.SOLV.lig_0>
-32.3374

>  <SCORE.INTRA.VDW>
0.526457

>  <SCORE.INTRA.VDW.0>
-0.659551

>  <SCORE.INTRA.norm>
0.130195

>  <SCORE.RESTR>
0

>  <SCORE.RESTR.CAVITY>
0

>  <SCORE.RESTR.norm>
0

>  <SCORE.SYSTEM>
0

>  <SCORE.SYSTEM.CONST>
0

>  <SCORE.SYSTEM.DIHEDRAL>
0

>  <SCORE.SYSTEM.SOLV>
0

>  <SCORE.SYSTEM.norm>
0

>  <SCORE.heavy>
10

>  <SCORE.norm>
-0.916621

>  <RMSD>
5.396

$$$$
ligand
 OpenBabel11021811473D
libRbt.so/2013.1/901 2013/11/27
 10  9  0  0  0  0  0  0  0  0999 V2000
   27.1320   14.1481   18.5790 N   0  0  0  0  0  0  0  0  0  0  0  0
   27.7308   14.7091   19.8223 C   0  0  2  0  0  0  0  0  0  0  0  0
   26.6863   14.9292   20.9168 C   0  0  0  0  0  0  0  0  0  0  0  0
   26.9875   14.9407   22.1147 O   0  0  0  0  0  0  0  0  0  0  0  0
   28.4972   16.0001   19.5229 C   0  0  0  0  0  0  0  0  0  0  0  0
   29.2907   16.5445   20.7033 C   0  0  0  0  0  0  0  0  0  0  0  0
   30.3638   15.5520   21.1500 C   0  0  0  0  0  0  0  0  0  0  0  0
   31.1381   16.0620   22.3603 C   0  0  0  0  0  0  0  0  0  0  0  0
   31.9003   17.3126   22.0729 N   0  0  0  0  0  0  0  0  0  0  0  0
   25.5086   15.1266   20.6251 O   0  0  0  0  0  0  0  0  0  0  0  0
  2  1  1  6  0  0  0
  2  3  1  0  0  0  0
  2  5  1  0  0  0  0
  3  4  1  0  0  0  0
  3 10  1  0  0  0  0
  5  6  1  0  0  0  0
  6  7  1  0  0  0  0
  7  8  1  0  0  0  0
  8  9  1  0  0  0  0
M  END
>  <CHROM.1>
154.84454645,-172.51498963,61.85144074,-178.14525206,-63.23930995,28.49152118
15.53297731,20.80819036,-2.76529004,0.30885431,1.40579320

>  <Name>
ligand

>  <RI>
0

>  <Rbt.Current_Directory>
/home/itssahil/PROJECTS/Mol_Feturizer/New_Systems/rnas/3DJ2

>  <Rbt.Executable>
rbdock ($Id: //depot/dev/client3/rdock/2013.1/src/exe/rbdock.cxx#4 $)

>  <Rbt.Library>
libRbt.so (2013.1, Build901 2013/11/27)

>  <Rbt.Parameter_File>
/export/apps/rDock/src/rDock_2013.1_src/data/scripts/dock_solv.prm

>  <Rbt.Receptor>
prm/pocket_docking_8.prm

>  <SCORE>
-11.0428

>  <SCORE.INTER>
-9.84653

>  <SCORE.INTER.CONST>
1

>  <SCORE.INTER.POLAR>
0

>  <SCORE.INTER.ROT>
5

>  <SCORE.INTER.SOLV>
14.4814

>  <SCORE.INTER.VDW>
-18.3248

>  <SCORE.INTER.norm>
-0.984653

>  <SCORE.INTRA>
-1.19631

>  <SCORE.INTRA.DIHEDRAL>
-2.53947

>  <SCORE.INTRA.DIHEDRAL.0>
4.28128

>  <SCORE.INTRA.POLAR>
0

>  <SCORE.INTRA.POLAR.0>
0

>  <SCORE.INTRA.REPUL>
0

>  <SCORE.INTRA.REPUL.0>
0

>  <SCORE.INTRA.SOLV>
-0.149638

>  <SCORE.INTRA.SOLV.lig_0>
-32.3374

>  <SCORE.INTRA.VDW>
0.148243

>  <SCORE.INTRA.VDW.0>
-0.659551

>  <SCORE.INTRA.norm>
-0.119631

>  <SCORE.RESTR>
0

>  <SCORE.RESTR.CAVITY>
0

>  <SCORE.RESTR.norm>
0

>  <SCORE.SYSTEM>
0

>  <SCORE.SYSTEM.CONST>
0

>  <SCORE.SYSTEM.DIHEDRAL>
0

>  <SCORE.SYSTEM.SOLV>
0

>  <SCORE.SYSTEM.norm>
0

>  <SCORE.heavy>
10

>  <SCORE.norm>
-1.10428

>  <RMSD>
5.398

$$$$
ligand
 OpenBabel11021811473D
libRbt.so/2013.1/901 2013/11/27
 10  9  0  0  0  0  0  0  0  0999 V2000
   27.9348   14.4404   18.5759 N   0  0  0  0  0  0  0  0  0  0  0  0
   28.0378   14.4690   20.0618 C   0  0  2  0  0  0  0  0  0  0  0  0
   26.7627   14.9988   20.7179 C   0  0  0  0  0  0  0  0  0  0  0  0
   25.8699   15.5466   20.0632 O   0  0  0  0  0  0  0  0  0  0  0  0
   29.2626   15.2723   20.5071 C   0  0  0  0  0  0  0  0  0  0  0  0
   29.5322   15.2227   22.0052 C   0  0  0  0  0  0  0  0  0  0  0  0
   30.9143   15.7861   22.3348 C   0  0  0  0  0  0  0  0  0  0  0  0
   31.0054   17.2771   22.0298 C   0  0  0  0  0  0  0  0  0  0  0  0
   32.3549   17.8443   22.3203 N   0  0  0  0  0  0  0  0  0  0  0  0
   26.5825   14.8691   21.9269 O   0  0  0  0  0  0  0  0  0  0  0  0
  2  1  1  6  0  0  0
  2  3  1  0  0  0  0
  2  5  1  0  0  0  0
  3  4  1  0  0  0  0
  3 10  1  0  0  0  0
  5  6  1  0  0  0  0
  6  7  1  0  0  0  0
  7  8  1  0  0  0  0
  8  9  1  0  0  0  0
M  END
>  <CHROM.1>
-11.70215224,-173.50475149,167.88670044,66.03120189,-178.93537983,28.78774961
15.57834878,21.06468416,-2.65383734,0.26956768,1.23077598

>  <Name>
ligand

>  <RI>
0

>  <Rbt.Current_Directory>
/home/itssahil/PROJECTS/Mol_Feturizer/New_Systems/rnas/3DJ2

>  <Rbt.Executable>
rbdock ($Id: //depot/dev/client3/rdock/2013.1/src/exe/rbdock.cxx#4 $)

>  <Rbt.Library>
libRbt.so (2013.1, Build901 2013/11/27)

>  <Rbt.Parameter_File>
/export/apps/rDock/src/rDock_2013.1_src/data/scripts/dock_solv.prm

>  <Rbt.Receptor>
prm/pocket_docking_5.prm

>  <SCORE>
-10.3161

>  <SCORE.INTER>
-9.65058

>  <SCORE.INTER.CONST>
1

>  <SCORE.INTER.POLAR>
0

>  <SCORE.INTER.ROT>
5

>  <SCORE.INTER.SOLV>
14.0208

>  <SCORE.INTER.VDW>
-18.0407

>  <SCORE.INTER.norm>
-0.965058

>  <SCORE.INTRA>
-0.665554

>  <SCORE.INTRA.DIHEDRAL>
-1.82886

>  <SCORE.INTRA.DIHEDRAL.0>
4.28128

>  <SCORE.INTRA.POLAR>
0

>  <SCORE.INTRA.POLAR.0>
0

>  <SCORE.INTRA.REPUL>
0

>  <SCORE.INTRA.REPUL.0>
0

>  <SCORE.INTRA.SOLV>
-1.0836

>  <SCORE.INTRA.SOLV.lig_0>
-32.3374

>  <SCORE.INTRA.VDW>
0.790676

>  <SCORE.INTRA.VDW.0>
-0.659551

>  <SCORE.INTRA.norm>
-0.0665554

>  <SCORE.RESTR>
0

>  <SCORE.RESTR.CAVITY>
0

>  <SCORE.RESTR.norm>
0

>  <SCORE.SYSTEM>
0

>  <SCORE.SYSTEM.CONST>
0

>  <SCORE.SYSTEM.DIHEDRAL>
0

>  <SCORE.SYSTEM.SOLV>
0

>  <SCORE.SYSTEM.norm>
0

>  <SCORE.heavy>
10

>  <SCORE.norm>
-1.03161

>  <RMSD>
5.401

$$$$
ligand
 OpenBabel11021811473D
libRbt.so/2013.1/901 2013/11/27
 10  9  0  0  0  0  0  0  0  0999 V2000
   25.8151   15.5040   20.0169 N   0  0  0  0  0  0  0  0  0  0  0  0
   27.2893   15.3068   20.1018 C   0  0  2  0  0  0  0  0  0  0  0  0
   27.8274   14.4737   18.9383 C   0  0  0  0  0  0  0  0  0  0  0  0
   28.9961   14.5712   18.5504 O   0  0  0  0  0  0  0  0  0  0  0  0
   27.6795   14.6916   21.4482 C   0  0  0  0  0  0  0  0  0  0  0  0
   28.8457   15.3862   22.1388 C   0  0  0  0  0  0  0  0  0  0  0  0
   30.1416   15.2022   21.3497 C   0  0  0  0  0  0  0  0  0  0  0  0
   31.3134   15.9200   22.0100 C   0  0  0  0  0  0  0  0  0  0  0  0
   31.1136   17.3967   22.0922 N   0  0  0  0  0  0  0  0  0  0  0  0
   27.1058   13.6580   18.3685 O   0  0  0  0  0  0  0  0  0  0  0  0
  2  1  1  6  0  0  0
  2  3  1  0  0  0  0
  2  5  1  0  0  0  0
  3  4  1  0  0  0  0
  3 10  1  0  0  0  0
  5  6  1  0  0  0  0
  6  7  1  0  0  0  0
  7  8  1  0  0  0  0
  8  9  1  0  0  0  0
M  END
>  <CHROM.1>
154.33391233,-132.63306920,-66.62001215,178.62964637,-61.78862891,28.61776195
15.18989585,20.46941516,2.39504876,-0.08762427,-2.03324480

>  <Name>
ligand

>  <RI>
0

>  <Rbt.Current_Directory>
/home/itssahil/PROJECTS/Mol_Feturizer/New_Systems/rnas/3DJ2

>  <Rbt.Executable>
rbdock ($Id: //depot/dev/client3/rdock/2013.1/src/exe/rbdock.cxx#4 $)

>  <Rbt.Library>
libRbt.so (2013.1, Build901 2013/11/27)

>  <Rbt.Parameter_File>
/export/apps/rDock/src/rDock_2013.1_src/data/scripts/dock_solv.prm

>  <Rbt.Receptor>
prm/pocket_docking_5.prm

>  <SCORE>
-7.6539

>  <SCORE.INTER>
-8.65494

>  <SCORE.INTER.CONST>
1

>  <SCORE.INTER.POLAR>
0

>  <SCORE.INTER.ROT>
5

>  <SCORE.INTER.SOLV>
17.1885

>  <SCORE.INTER.VDW>
-18.4328

>  <SCORE.INTER.norm>
-0.865494

>  <SCORE.INTRA>
1.00104

>  <SCORE.INTRA.DIHEDRAL>
2.47525

>  <SCORE.INTRA.DIHEDRAL.0>
4.28128

>  <SCORE.INTRA.POLAR>
0

>  <SCORE.INTRA.POLAR.0>
0

>  <SCORE.INTRA.REPUL>
0

>  <SCORE.INTRA.REPUL.0>
0

>  <SCORE.INTRA.SOLV>
-0.11857

>  <SCORE.INTRA.SOLV.lig_0>
-32.3374

>  <SCORE.INTRA.VDW>
-0.177302

>  <SCORE.INTRA.VDW.0>
-0.659551

>  <SCORE.INTRA.norm>
0.100104

>  <SCORE.RESTR>
0

>  <SCORE.RESTR.CAVITY>
0

>  <SCORE.RESTR.norm>
0

>  <SCORE.SYSTEM>
0

>  <SCORE.SYSTEM.CONST>
0

>  <SCORE.SYSTEM.DIHEDRAL>
0

>  <SCORE.SYSTEM.SOLV>
0

>  <SCORE.SYSTEM.norm>
0

>  <SCORE.heavy>
10

>  <SCORE.norm>
-0.76539

>  <RMSD>
5.403

$$$$
ligand
 OpenBabel11021811473D
libRbt.so/2013.1/901 2013/11/27
 10  9  0  0  0  0  0  0  0  0999 V2000
   27.1225   14.1391   18.5732 N   0  0  0  0  0  0  0  0  0  0  0  0
   27.7227   14.6977   19.8171 C   0  0  2  0  0  0  0  0  0  0  0  0
   26.6792   14.9160   20.9129 C   0  0  0  0  0  0  0  0  0  0  0  0
   26.9800   14.9162   22.1109 O   0  0  0  0  0  0  0  0  0  0  0  0
   28.4890   15.9891   19.5194 C   0  0  0  0  0  0  0  0  0  0  0  0
   29.2750   16.5370   20.7032 C   0  0  0  0  0  0  0  0  0  0  0  0
   30.3633   15.5578   21.1423 C   0  0  0  0  0  0  0  0  0  0  0  0
   31.1359   16.0745   22.3508 C   0  0  0  0  0  0  0  0  0  0  0  0
   31.9063   17.3180   22.0548 N   0  0  0  0  0  0  0  0  0  0  0  0
   25.5029   15.1233   20.6224 O   0  0  0  0  0  0  0  0  0  0  0  0
  2  1  1  6  0  0  0
  2  3  1  0  0  0  0
  2  5  1  0  0  0  0
  3  4  1  0  0  0  0
  3 10  1  0  0  0  0
  5  6  1  0  0  0  0
  6  7  1  0  0  0  0
  7  8  1  0  0  0  0
  8  9  1  0  0  0  0
M  END
>  <CHROM.1>
154.34856619,-172.97203422,62.87363068,-178.47420011,-64.62725724,28.48569402
15.52727184,20.80219534,-2.76760558,0.31219785,1.40644799

>  <Name>
ligand

>  <RI>
0

>  <Rbt.Current_Directory>
/home/itssahil/PROJECTS/Mol_Feturizer/New_Systems/rnas/3DJ2

>  <Rbt.Executable>
rbdock ($Id: //depot/dev/client3/rdock/2013.1/src/exe/rbdock.cxx#4 $)

>  <Rbt.Library>
libRbt.so (2013.1, Build901 2013/11/27)

>  <Rbt.Parameter_File>
/export/apps/rDock/src/rDock_2013.1_src/data/scripts/dock_solv.prm

>  <Rbt.Receptor>
prm/pocket_docking_5.prm

>  <SCORE>
-11.0512

>  <SCORE.INTER>
-9.82679

>  <SCORE.INTER.CONST>
1

>  <SCORE.INTER.POLAR>
0

>  <SCORE.INTER.ROT>
5

>  <SCORE.INTER.SOLV>
14.5421

>  <SCORE.INTER.VDW>
-18.3319

>  <SCORE.INTER.norm>
-0.982679

>  <SCORE.INTRA>
-1.22439

>  <SCORE.INTRA.DIHEDRAL>
-2.50735

>  <SCORE.INTRA.DIHEDRAL.0>
4.28128

>  <SCORE.INTRA.POLAR>
0

>  <SCORE.INTRA.POLAR.0>
0

>  <SCORE.INTRA.REPUL>
0

>  <SCORE.INTRA.REPUL.0>
0

>  <SCORE.INTRA.SOLV>
-0.176277

>  <SCORE.INTRA.SOLV.lig_0>
-32.3374

>  <SCORE.INTRA.VDW>
0.117422

>  <SCORE.INTRA.VDW.0>
-0.659551

>  <SCORE.INTRA.norm>
-0.122439

>  <SCORE.RESTR>
0

>  <SCORE.RESTR.CAVITY>
0

>  <SCORE.RESTR.norm>
0

>  <SCORE.SYSTEM>
0

>  <SCORE.SYSTEM.CONST>
0

>  <SCORE.SYSTEM.DIHEDRAL>
0

>  <SCORE.SYSTEM.SOLV>
0

>  <SCORE.SYSTEM.norm>
0

>  <SCORE.heavy>
10

>  <SCORE.norm>
-1.10512

>  <RMSD>
5.405

$$$$
ligand
 OpenBabel11021811473D
libRbt.so/2013.1/901 2013/11/27
 10  9  0  0  0  0  0  0  0  0999 V2000
   25.5978   14.8359   20.8374 N   0  0  0  0  0  0  0  0  0  0  0  0
   26.9362   15.4632   20.6511 C   0  0  2  0  0  0  0  0  0  0  0  0
   27.5115   15.1917   19.2610 C   0  0  0  0  0  0  0  0  0  0  0  0
   27.4679   14.0711   18.7431 O   0  0  0  0  0  0  0  0  0  0  0  0
   27.9055   15.0131   21.7473 C   0  0  0  0  0  0  0  0  0  0  0  0
   29.1974   15.8173   21.8086 C   0  0  0  0  0  0  0  0  0  0  0  0
   30.1683   15.3839   20.7106 C   0  0  0  0  0  0  0  0  0  0  0  0
   31.3658   16.3223   20.6109 C   0  0  0  0  0  0  0  0  0  0  0  0
   32.1766   16.3586   21.8633 N   0  0  0  0  0  0  0  0  0  0  0  0
   28.0173   16.1009   18.6063 O   0  0  0  0  0  0  0  0  0  0  0  0
  2  1  1  1  0  0  0
  2  3  1  0  0  0  0
  2  5  1  0  0  0  0
  3  4  1  0  0  0  0
  3 10  1  0  0  0  0
  5  6  1  0  0  0  0
  6  7  1  0  0  0  0
  7  8  1  0  0  0  0
  8  9  1  0  0  0  0
M  END
>  <CHROM.1>
-44.48715217,-167.92548623,-78.01035062,170.73092917,61.52472975,28.63759167
15.44915296,20.44941502,2.82737851,-0.25194634,-1.60438873

>  <Name>
ligand

>  <RI>
0

>  <Rbt.Current_Directory>
/home/itssahil/PROJECTS/Mol_Feturizer/New_Systems/rnas/3DJ2

>  <Rbt.Executable>
rbdock ($Id: //depot/dev/client3/rdock/2013.1/src/exe/rbdock.cxx#4 $)

>  <Rbt.Library>
libRbt.so (2013.1, Build901 2013/11/27)

>  <Rbt.Parameter_File>
/export/apps/rDock/src/rDock_2013.1_src/data/scripts/dock_solv.prm

>  <Rbt.Receptor>
prm/pocket_docking_6.prm

>  <SCORE>
-8.36307

>  <SCORE.INTER>
-7.84089

>  <SCORE.INTER.CONST>
1

>  <SCORE.INTER.POLAR>
0

>  <SCORE.INTER.ROT>
5

>  <SCORE.INTER.SOLV>
18.6156

>  <SCORE.INTER.VDW>
-18.3658

>  <SCORE.INTER.norm>
-0.784089

>  <SCORE.INTRA>
-0.522183

>  <SCORE.INTRA.DIHEDRAL>
-0.577487

>  <SCORE.INTRA.DIHEDRAL.0>
4.28128

>  <SCORE.INTRA.POLAR>
0

>  <SCORE.INTRA.POLAR.0>
0

>  <SCORE.INTRA.REPUL>
0

>  <SCORE.INTRA.REPUL.0>
0

>  <SCORE.INTRA.SOLV>
-0.349775

>  <SCORE.INTRA.SOLV.lig_0>
-32.3374

>  <SCORE.INTRA.VDW>
-0.0585513

>  <SCORE.INTRA.VDW.0>
-0.659551

>  <SCORE.INTRA.norm>
-0.0522183

>  <SCORE.RESTR>
0

>  <SCORE.RESTR.CAVITY>
0

>  <SCORE.RESTR.norm>
0

>  <SCORE.SYSTEM>
0

>  <SCORE.SYSTEM.CONST>
0

>  <SCORE.SYSTEM.DIHEDRAL>
0

>  <SCORE.SYSTEM.SOLV>
0

>  <SCORE.SYSTEM.norm>
0

>  <SCORE.heavy>
10

>  <SCORE.norm>
-0.836307

>  <RMSD>
5.405

$$$$
ligand
 OpenBabel11021811473D
libRbt.so/2013.1/901 2013/11/27
 10  9  0  0  0  0  0  0  0  0999 V2000
   25.6074   14.8479   20.8350 N   0  0  0  0  0  0  0  0  0  0  0  0
   26.9476   15.4654   20.6306 C   0  0  2  0  0  0  0  0  0  0  0  0
   27.5202   15.1554   19.2474 C   0  0  0  0  0  0  0  0  0  0  0  0
   28.0579   16.0241   18.5530 O   0  0  0  0  0  0  0  0  0  0  0  0
   27.9169   15.0411   21.7370 C   0  0  0  0  0  0  0  0  0  0  0  0
   29.2106   15.8436   21.7768 C   0  0  0  0  0  0  0  0  0  0  0  0
   30.1819   15.3762   20.6931 C   0  0  0  0  0  0  0  0  0  0  0  0
   31.3888   16.3007   20.5775 C   0  0  0  0  0  0  0  0  0  0  0  0
   32.1937   16.3589   21.8329 N   0  0  0  0  0  0  0  0  0  0  0  0
   27.4796   14.0125   18.7968 O   0  0  0  0  0  0  0  0  0  0  0  0
  2  1  1  1  0  0  0
  2  3  1  0  0  0  0
  2  5  1  0  0  0  0
  3  4  1  0  0  0  0
  3 10  1  0  0  0  0
  5  6  1  0  0  0  0
  6  7  1  0  0  0  0
  7  8  1  0  0  0  0
  8  9  1  0  0  0  0
M  END
>  <CHROM.1>
135.51853479,-167.83617532,-78.24609120,171.30362780,61.44681178,28.65404423
15.43460062,20.43390968,2.82836179,-0.24736885,-1.63137612

>  <Name>
ligand

>  <RI>
0

>  <Rbt.Current_Directory>
/home/itssahil/PROJECTS/Mol_Feturizer/New_Systems/rnas/3DJ2

>  <Rbt.Executable>
rbdock ($Id: //depot/dev/client3/rdock/2013.1/src/exe/rbdock.cxx#4 $)

>  <Rbt.Library>
libRbt.so (2013.1, Build901 2013/11/27)

>  <Rbt.Parameter_File>
/export/apps/rDock/src/rDock_2013.1_src/data/scripts/dock_solv.prm

>  <Rbt.Receptor>
prm/pocket_docking_4.prm

>  <SCORE>
-8.41964

>  <SCORE.INTER>
-7.87235

>  <SCORE.INTER.CONST>
1

>  <SCORE.INTER.POLAR>
0

>  <SCORE.INTER.ROT>
5

>  <SCORE.INTER.SOLV>
18.5824

>  <SCORE.INTER.VDW>
-18.3757

>  <SCORE.INTER.norm>
-0.787235

>  <SCORE.INTRA>
-0.547286

>  <SCORE.INTRA.DIHEDRAL>
-0.646879

>  <SCORE.INTRA.DIHEDRAL.0>
4.28128

>  <SCORE.INTRA.POLAR>
0

>  <SCORE.INTRA.POLAR.0>
0

>  <SCORE.INTRA.REPUL>
0

>  <SCORE.INTRA.REPUL.0>
0

>  <SCORE.INTRA.SOLV>
-0.351869

>  <SCORE.INTRA.SOLV.lig_0>
-32.3374

>  <SCORE.INTRA.VDW>
-0.0479124

>  <SCORE.INTRA.VDW.0>
-0.659551

>  <SCORE.INTRA.norm>
-0.0547286

>  <SCORE.RESTR>
0

>  <SCORE.RESTR.CAVITY>
0

>  <SCORE.RESTR.norm>
0

>  <SCORE.SYSTEM>
0

>  <SCORE.SYSTEM.CONST>
0

>  <SCORE.SYSTEM.DIHEDRAL>
0

>  <SCORE.SYSTEM.SOLV>
0

>  <SCORE.SYSTEM.norm>
0

>  <SCORE.heavy>
10

>  <SCORE.norm>
-0.841964

>  <RMSD>
5.406

$$$$
ligand
 OpenBabel11021811473D
libRbt.so/2013.1/901 2013/11/27
 10  9  0  0  0  0  0  0  0  0999 V2000
   27.8648   14.3878   18.6467 N   0  0  0  0  0  0  0  0  0  0  0  0
   27.9889   14.4407   20.1303 C   0  0  2  0  0  0  0  0  0  0  0  0
   26.7351   15.0108   20.7937 C   0  0  0  0  0  0  0  0  0  0  0  0
   25.8384   15.5525   20.1392 O   0  0  0  0  0  0  0  0  0  0  0  0
   29.2373   15.2240   20.5445 C   0  0  0  0  0  0  0  0  0  0  0  0
   29.5280   15.1927   22.0391 C   0  0  0  0  0  0  0  0  0  0  0  0
   30.9149   15.7592   22.3423 C   0  0  0  0  0  0  0  0  0  0  0  0
   30.9946   17.2520   22.0429 C   0  0  0  0  0  0  0  0  0  0  0  0
   32.3492   17.8215   22.3034 N   0  0  0  0  0  0  0  0  0  0  0  0
   26.5763   14.9211   22.0093 O   0  0  0  0  0  0  0  0  0  0  0  0
  2  1  1  6  0  0  0
  2  3  1  0  0  0  0
  2  5  1  0  0  0  0
  3  4  1  0  0  0  0
  3 10  1  0  0  0  0
  5  6  1  0  0  0  0
  6  7  1  0  0  0  0
  7  8  1  0  0  0  0
  8  9  1  0  0  0  0
M  END
>  <CHROM.1>
-10.81598337,-173.38198173,169.12413713,67.12864752,-178.74775448,28.76516450
15.56289125,21.10991045,-2.65842833,0.25051579,1.19638547

>  <Name>
ligand

>  <RI>
0

>  <Rbt.Current_Directory>
/home/itssahil/PROJECTS/Mol_Feturizer/New_Systems/rnas/3DJ2

>  <Rbt.Executable>
rbdock ($Id: //depot/dev/client3/rdock/2013.1/src/exe/rbdock.cxx#4 $)

>  <Rbt.Library>
libRbt.so (2013.1, Build901 2013/11/27)

>  <Rbt.Parameter_File>
/export/apps/rDock/src/rDock_2013.1_src/data/scripts/dock_solv.prm

>  <Rbt.Receptor>
prm/pocket_docking_4.prm

>  <SCORE>
-10.284

>  <SCORE.INTER>
-9.56102

>  <SCORE.INTER.CONST>
1

>  <SCORE.INTER.POLAR>
0

>  <SCORE.INTER.ROT>
5

>  <SCORE.INTER.SOLV>
14.1503

>  <SCORE.INTER.VDW>
-18.0241

>  <SCORE.INTER.norm>
-0.956102

>  <SCORE.INTRA>
-0.723013

>  <SCORE.INTRA.DIHEDRAL>
-1.87597

>  <SCORE.INTRA.DIHEDRAL.0>
4.28128

>  <SCORE.INTRA.POLAR>
0

>  <SCORE.INTRA.POLAR.0>
0

>  <SCORE.INTRA.REPUL>
0

>  <SCORE.INTRA.REPUL.0>
0

>  <SCORE.INTRA.SOLV>
-1.08893

>  <SCORE.INTRA.SOLV.lig_0>
-32.3374

>  <SCORE.INTRA.VDW>
0.759439

>  <SCORE.INTRA.VDW.0>
-0.659551

>  <SCORE.INTRA.norm>
-0.0723013

>  <SCORE.RESTR>
0

>  <SCORE.RESTR.CAVITY>
0

>  <SCORE.RESTR.norm>
0

>  <SCORE.SYSTEM>
0

>  <SCORE.SYSTEM.CONST>
0

>  <SCORE.SYSTEM.DIHEDRAL>
0

>  <SCORE.SYSTEM.SOLV>
0

>  <SCORE.SYSTEM.norm>
0

>  <SCORE.heavy>
10

>  <SCORE.norm>
-1.0284

>  <RMSD>
5.409

$$$$
ligand
 OpenBabel11021811473D
libRbt.so/2013.1/901 2013/11/27
 10  9  0  0  0  0  0  0  0  0999 V2000
   25.6060   14.8661   20.8354 N   0  0  0  0  0  0  0  0  0  0  0  0
   26.9563   15.4591   20.6251 C   0  0  2  0  0  0  0  0  0  0  0  0
   27.5229   15.1275   19.2444 C   0  0  0  0  0  0  0  0  0  0  0  0
   28.0672   15.9828   18.5388 O   0  0  0  0  0  0  0  0  0  0  0  0
   27.9188   15.0282   21.7349 C   0  0  0  0  0  0  0  0  0  0  0  0
   29.2169   15.8233   21.7805 C   0  0  0  0  0  0  0  0  0  0  0  0
   30.1932   15.3458   20.7058 C   0  0  0  0  0  0  0  0  0  0  0  0
   31.4044   16.2648   20.5925 C   0  0  0  0  0  0  0  0  0  0  0  0
   32.1905   16.3426   21.8588 N   0  0  0  0  0  0  0  0  0  0  0  0
   27.4707   13.9797   18.8075 O   0  0  0  0  0  0  0  0  0  0  0  0
  2  1  1  1  0  0  0
  2  3  1  0  0  0  0
  2  5  1  0  0  0  0
  3  4  1  0  0  0  0
  3 10  1  0  0  0  0
  5  6  1  0  0  0  0
  6  7  1  0  0  0  0
  7  8  1  0  0  0  0
  8  9  1  0  0  0  0
M  END
>  <CHROM.1>
135.04343875,-166.94869674,-78.59911015,171.15630215,60.61634371,28.65814809
15.41355725,20.43826296,2.82027269,-0.24078340,-1.64218446

>  <Name>
ligand

>  <RI>
0

>  <Rbt.Current_Directory>
/home/itssahil/PROJECTS/Mol_Feturizer/New_Systems/rnas/3DJ2

>  <Rbt.Executable>
rbdock ($Id: //depot/dev/client3/rdock/2013.1/src/exe/rbdock.cxx#4 $)

>  <Rbt.Library>
libRbt.so (2013.1, Build901 2013/11/27)

>  <Rbt.Parameter_File>
/export/apps/rDock/src/rDock_2013.1_src/data/scripts/dock_solv.prm

>  <Rbt.Receptor>
prm/pocket_docking_7.prm

>  <SCORE>
-8.4473

>  <SCORE.INTER>
-7.92659

>  <SCORE.INTER.CONST>
1

>  <SCORE.INTER.POLAR>
0

>  <SCORE.INTER.ROT>
5

>  <SCORE.INTER.SOLV>
18.6615

>  <SCORE.INTER.VDW>
-18.4382

>  <SCORE.INTER.norm>
-0.792659

>  <SCORE.INTRA>
-0.520715

>  <SCORE.INTRA.DIHEDRAL>
-0.515982

>  <SCORE.INTRA.DIHEDRAL.0>
4.28128

>  <SCORE.INTRA.POLAR>
0

>  <SCORE.INTRA.POLAR.0>
0

>  <SCORE.INTRA.REPUL>
0

>  <SCORE.INTRA.REPUL.0>
0

>  <SCORE.INTRA.SOLV>
-0.344994

>  <SCORE.INTRA.SOLV.lig_0>
-32.3374

>  <SCORE.INTRA.VDW>
-0.0902268

>  <SCORE.INTRA.VDW.0>
-0.659551

>  <SCORE.INTRA.norm>
-0.0520715

>  <SCORE.RESTR>
0

>  <SCORE.RESTR.CAVITY>
0

>  <SCORE.RESTR.norm>
0

>  <SCORE.SYSTEM>
0

>  <SCORE.SYSTEM.CONST>
0

>  <SCORE.SYSTEM.DIHEDRAL>
0

>  <SCORE.SYSTEM.SOLV>
0

>  <SCORE.SYSTEM.norm>
0

>  <SCORE.heavy>
10

>  <SCORE.norm>
-0.84473

>  <RMSD>
5.410

$$$$
ligand
 OpenBabel11021811473D
libRbt.so/2013.1/901 2013/11/27
 10  9  0  0  0  0  0  0  0  0999 V2000
   25.6052   14.8544   20.8207 N   0  0  0  0  0  0  0  0  0  0  0  0
   26.9508   15.4643   20.6292 C   0  0  2  0  0  0  0  0  0  0  0  0
   27.5121   15.1953   19.2328 C   0  0  0  0  0  0  0  0  0  0  0  0
   27.4152   14.0893   18.6914 O   0  0  0  0  0  0  0  0  0  0  0  0
   27.9217   14.9925   21.7147 C   0  0  0  0  0  0  0  0  0  0  0  0
   29.2161   15.7918   21.7865 C   0  0  0  0  0  0  0  0  0  0  0  0
   30.1894   15.3633   20.6886 C   0  0  0  0  0  0  0  0  0  0  0  0
   31.4030   16.2833   20.6172 C   0  0  0  0  0  0  0  0  0  0  0  0
   32.1799   16.3140   21.8911 N   0  0  0  0  0  0  0  0  0  0  0  0
   28.0602   16.0931   18.5968 O   0  0  0  0  0  0  0  0  0  0  0  0
  2  1  1  6  0  0  0
  2  3  1  0  0  0  0
  2  5  1  0  0  0  0
  3  4  1  0  0  0  0
  3 10  1  0  0  0  0
  5  6  1  0  0  0  0
  6  7  1  0  0  0  0
  7  8  1  0  0  0  0
  8  9  1  0  0  0  0
M  END
>  <CHROM.1>
-42.38596570,-167.03105561,-78.67864899,171.78682679,59.77280649,28.64819322
15.43762706,20.43215841,2.81948832,-0.24416165,-1.59998753

>  <Name>
ligand

>  <RI>
0

>  <Rbt.Current_Directory>
/home/itssahil/PROJECTS/Mol_Feturizer/New_Systems/rnas/3DJ2

>  <Rbt.Executable>
rbdock ($Id: //depot/dev/client3/rdock/2013.1/src/exe/rbdock.cxx#4 $)

>  <Rbt.Library>
libRbt.so (2013.1, Build901 2013/11/27)

>  <Rbt.Parameter_File>
/export/apps/rDock/src/rDock_2013.1_src/data/scripts/dock_solv.prm

>  <Rbt.Receptor>
prm/pocket_docking_7.prm

>  <SCORE>
-8.41152

>  <SCORE.INTER>
-7.93084

>  <SCORE.INTER.CONST>
1

>  <SCORE.INTER.POLAR>
0

>  <SCORE.INTER.ROT>
5

>  <SCORE.INTER.SOLV>
18.7216

>  <SCORE.INTER.VDW>
-18.4611

>  <SCORE.INTER.norm>
-0.793084

>  <SCORE.INTRA>
-0.480677

>  <SCORE.INTRA.DIHEDRAL>
-0.48966

>  <SCORE.INTRA.DIHEDRAL.0>
4.28128

>  <SCORE.INTRA.POLAR>
0

>  <SCORE.INTRA.POLAR.0>
0

>  <SCORE.INTRA.REPUL>
0

>  <SCORE.INTRA.REPUL.0>
0

>  <SCORE.INTRA.SOLV>
-0.326936

>  <SCORE.INTRA.SOLV.lig_0>
-32.3374

>  <SCORE.INTRA.VDW>
-0.072379

>  <SCORE.INTRA.VDW.0>
-0.659551

>  <SCORE.INTRA.norm>
-0.0480677

>  <SCORE.RESTR>
0

>  <SCORE.RESTR.CAVITY>
0

>  <SCORE.RESTR.norm>
0

>  <SCORE.SYSTEM>
0

>  <SCORE.SYSTEM.CONST>
0

>  <SCORE.SYSTEM.DIHEDRAL>
0

>  <SCORE.SYSTEM.SOLV>
0

>  <SCORE.SYSTEM.norm>
0

>  <SCORE.heavy>
10

>  <SCORE.norm>
-0.841152

>  <RMSD>
5.410

$$$$
ligand
 OpenBabel11021811473D
libRbt.so/2013.1/901 2013/11/27
 10  9  0  0  0  0  0  0  0  0999 V2000
   25.8474   15.5533   19.9707 N   0  0  0  0  0  0  0  0  0  0  0  0
   27.3123   15.3554   20.1556 C   0  0  2  0  0  0  0  0  0  0  0  0
   27.9122   14.4509   19.0790 C   0  0  0  0  0  0  0  0  0  0  0  0
   27.2259   13.6372   18.4523 O   0  0  0  0  0  0  0  0  0  0  0  0
   27.6168   14.8215   21.5577 C   0  0  0  0  0  0  0  0  0  0  0  0
   29.1016   14.7334   21.8846 C   0  0  0  0  0  0  0  0  0  0  0  0
   29.7394   16.1217   21.9272 C   0  0  0  0  0  0  0  0  0  0  0  0
   31.2434   16.0468   22.1655 C   0  0  0  0  0  0  0  0  0  0  0  0
   31.8889   17.3918   22.2072 N   0  0  0  0  0  0  0  0  0  0  0  0
   29.1045   14.5298   18.7906 O   0  0  0  0  0  0  0  0  0  0  0  0
  2  1  1  6  0  0  0
  2  3  1  0  0  0  0
  2  5  1  0  0  0  0
  3  4  1  0  0  0  0
  3 10  1  0  0  0  0
  5  6  1  0  0  0  0
  6  7  1  0  0  0  0
  7  8  1  0  0  0  0
  8  9  1  0  0  0  0
M  END
>  <CHROM.1>
-23.40806371,-173.69299933,65.24135292,-176.37570109,179.83764625,28.70540309
15.24180065,20.58836738,2.41614505,-0.11273096,-2.04508715

>  <Name>
ligand

>  <RI>
0

>  <Rbt.Current_Directory>
/home/itssahil/PROJECTS/Mol_Feturizer/New_Systems/rnas/3DJ2

>  <Rbt.Executable>
rbdock ($Id: //depot/dev/client3/rdock/2013.1/src/exe/rbdock.cxx#4 $)

>  <Rbt.Library>
libRbt.so (2013.1, Build901 2013/11/27)

>  <Rbt.Parameter_File>
/export/apps/rDock/src/rDock_2013.1_src/data/scripts/dock_solv.prm

>  <Rbt.Receptor>
prm/blind_docking_60.prm

>  <SCORE>
-10.1922

>  <SCORE.INTER>
-8.48335

>  <SCORE.INTER.CONST>
1

>  <SCORE.INTER.POLAR>
0

>  <SCORE.INTER.ROT>
5

>  <SCORE.INTER.SOLV>
17.192

>  <SCORE.INTER.VDW>
-18.3196

>  <SCORE.INTER.norm>
-0.848335

>  <SCORE.INTRA>
-1.70886

>  <SCORE.INTRA.DIHEDRAL>
-2.40285

>  <SCORE.INTRA.DIHEDRAL.0>
4.28128

>  <SCORE.INTRA.POLAR>
0

>  <SCORE.INTRA.POLAR.0>
0

>  <SCORE.INTRA.REPUL>
0

>  <SCORE.INTRA.REPUL.0>
0

>  <SCORE.INTRA.SOLV>
-1.06858

>  <SCORE.INTRA.SOLV.lig_0>
-32.3374

>  <SCORE.INTRA.VDW>
0.026855

>  <SCORE.INTRA.VDW.0>
-0.659551

>  <SCORE.INTRA.norm>
-0.170886

>  <SCORE.RESTR>
0

>  <SCORE.RESTR.CAVITY>
0

>  <SCORE.RESTR.norm>
0

>  <SCORE.SYSTEM>
0

>  <SCORE.SYSTEM.CONST>
0

>  <SCORE.SYSTEM.DIHEDRAL>
0

>  <SCORE.SYSTEM.SOLV>
0

>  <SCORE.SYSTEM.norm>
0

>  <SCORE.heavy>
10

>  <SCORE.norm>
-1.01922

>  <RMSD>
5.414

$$$$
ligand
 OpenBabel11021811473D
libRbt.so/2013.1/901 2013/11/27
 10  9  0  0  0  0  0  0  0  0999 V2000
   27.2092   13.8074   18.6492 N   0  0  0  0  0  0  0  0  0  0  0  0
   27.7655   14.6947   19.7088 C   0  0  2  0  0  0  0  0  0  0  0  0
   26.7983   14.8707   20.8796 C   0  0  0  0  0  0  0  0  0  0  0  0
   25.5861   15.0335   20.7070 O   0  0  0  0  0  0  0  0  0  0  0  0
   28.1770   16.0485   19.1244 C   0  0  0  0  0  0  0  0  0  0  0  0
   28.8337   16.9887   20.1264 C   0  0  0  0  0  0  0  0  0  0  0  0
   30.1917   16.4514   20.5774 C   0  0  0  0  0  0  0  0  0  0  0  0
   30.8568   17.3740   21.5927 C   0  0  0  0  0  0  0  0  0  0  0  0
   32.2248   16.9180   21.9776 N   0  0  0  0  0  0  0  0  0  0  0  0
   27.2068   14.8301   22.0383 O   0  0  0  0  0  0  0  0  0  0  0  0
  2  1  1  6  0  0  0
  2  3  1  0  0  0  0
  2  5  1  0  0  0  0
  3  4  1  0  0  0  0
  3 10  1  0  0  0  0
  5  6  1  0  0  0  0
  6  7  1  0  0  0  0
  7  8  1  0  0  0  0
  8  9  1  0  0  0  0
M  END
>  <CHROM.1>
-41.70264777,-176.54800235,66.97632421,-179.40083287,-176.07634801,28.45547124
15.69932313,20.56257168,-2.83778352,0.44454666,1.43243727

>  <Name>
ligand

>  <RI>
0

>  <Rbt.Current_Directory>
/home/itssahil/PROJECTS/Mol_Feturizer/New_Systems/rnas/3DJ2

>  <Rbt.Executable>
rbdock ($Id: //depot/dev/client3/rdock/2013.1/src/exe/rbdock.cxx#4 $)

>  <Rbt.Library>
libRbt.so (2013.1, Build901 2013/11/27)

>  <Rbt.Parameter_File>
/export/apps/rDock/src/rDock_2013.1_src/data/scripts/dock_solv.prm

>  <Rbt.Receptor>
prm/blind_docking_60.prm

>  <SCORE>
-11.0054

>  <SCORE.INTER>
-9.1688

>  <SCORE.INTER.CONST>
1

>  <SCORE.INTER.POLAR>
0

>  <SCORE.INTER.ROT>
5

>  <SCORE.INTER.SOLV>
15.638

>  <SCORE.INTER.VDW>
-18.2585

>  <SCORE.INTER.norm>
-0.91688

>  <SCORE.INTRA>
-1.8366

>  <SCORE.INTRA.DIHEDRAL>
-2.4208

>  <SCORE.INTRA.DIHEDRAL.0>
4.28128

>  <SCORE.INTRA.POLAR>
0

>  <SCORE.INTRA.POLAR.0>
0

>  <SCORE.INTRA.REPUL>
0

>  <SCORE.INTRA.REPUL.0>
0

>  <SCORE.INTRA.SOLV>
-1.1028

>  <SCORE.INTRA.SOLV.lig_0>
-32.3374

>  <SCORE.INTRA.VDW>
-0.0748052

>  <SCORE.INTRA.VDW.0>
-0.659551

>  <SCORE.INTRA.norm>
-0.18366

>  <SCORE.RESTR>
0

>  <SCORE.RESTR.CAVITY>
0

>  <SCORE.RESTR.norm>
0

>  <SCORE.SYSTEM>
0

>  <SCORE.SYSTEM.CONST>
0

>  <SCORE.SYSTEM.DIHEDRAL>
0

>  <SCORE.SYSTEM.SOLV>
0

>  <SCORE.SYSTEM.norm>
0

>  <SCORE.heavy>
10

>  <SCORE.norm>
-1.10054

>  <RMSD>
5.415

$$$$
ligand
 OpenBabel11021811473D
libRbt.so/2013.1/901 2013/11/27
 10  9  0  0  0  0  0  0  0  0999 V2000
   28.5353   14.4616   19.2061 N   0  0  0  0  0  0  0  0  0  0  0  0
   27.9996   14.5551   20.5930 C   0  0  2  0  0  0  0  0  0  0  0  0
   26.5203   14.9404   20.6148 C   0  0  0  0  0  0  0  0  0  0  0  0
   25.7621   14.5713   21.5175 O   0  0  0  0  0  0  0  0  0  0  0  0
   28.8347   15.5234   21.4350 C   0  0  0  0  0  0  0  0  0  0  0  0
   30.2603   15.0556   21.6961 C   0  0  0  0  0  0  0  0  0  0  0  0
   31.0056   16.0385   22.5987 C   0  0  0  0  0  0  0  0  0  0  0  0
   31.4073   17.3034   21.8484 C   0  0  0  0  0  0  0  0  0  0  0  0
   32.4360   17.0492   20.7975 N   0  0  0  0  0  0  0  0  0  0  0  0
   26.0488   15.6569   19.7343 O   0  0  0  0  0  0  0  0  0  0  0  0
  2  1  1  6  0  0  0
  2  3  1  0  0  0  0
  2  5  1  0  0  0  0
  3  4  1  0  0  0  0
  3 10  1  0  0  0  0
  5  6  1  0  0  0  0
  6  7  1  0  0  0  0
  7  8  1  0  0  0  0
  8  9  1  0  0  0  0
M  END
>  <CHROM.1>
150.31107798,-66.31814443,-177.14239122,-74.84665093,-67.12379570,28.83738272
15.51932074,21.00234063,-2.91892707,0.31110806,1.52197347

>  <Name>
ligand

>  <RI>
0

>  <Rbt.Current_Directory>
/home/itssahil/PROJECTS/Mol_Feturizer/New_Systems/rnas/3DJ2

>  <Rbt.Executable>
rbdock ($Id: //depot/dev/client3/rdock/2013.1/src/exe/rbdock.cxx#4 $)

>  <Rbt.Library>
libRbt.so (2013.1, Build901 2013/11/27)

>  <Rbt.Parameter_File>
/export/apps/rDock/src/rDock_2013.1_src/data/scripts/dock_solv.prm

>  <Rbt.Receptor>
prm/pocket_docking_8.prm

>  <SCORE>
-9.68189

>  <SCORE.INTER>
-9.47708

>  <SCORE.INTER.CONST>
1

>  <SCORE.INTER.POLAR>
0

>  <SCORE.INTER.ROT>
5

>  <SCORE.INTER.SOLV>
13.0879

>  <SCORE.INTER.VDW>
-17.614

>  <SCORE.INTER.norm>
-0.947708

>  <SCORE.INTRA>
-0.204809

>  <SCORE.INTRA.DIHEDRAL>
-1.53167

>  <SCORE.INTRA.DIHEDRAL.0>
4.28128

>  <SCORE.INTRA.POLAR>
0

>  <SCORE.INTRA.POLAR.0>
0

>  <SCORE.INTRA.REPUL>
0

>  <SCORE.INTRA.REPUL.0>
0

>  <SCORE.INTRA.SOLV>
0.709647

>  <SCORE.INTRA.SOLV.lig_0>
-32.3374

>  <SCORE.INTRA.VDW>
0.206204

>  <SCORE.INTRA.VDW.0>
-0.659551

>  <SCORE.INTRA.norm>
-0.0204809

>  <SCORE.RESTR>
0

>  <SCORE.RESTR.CAVITY>
0

>  <SCORE.RESTR.norm>
0

>  <SCORE.SYSTEM>
0

>  <SCORE.SYSTEM.CONST>
0

>  <SCORE.SYSTEM.DIHEDRAL>
0

>  <SCORE.SYSTEM.SOLV>
0

>  <SCORE.SYSTEM.norm>
0

>  <SCORE.heavy>
10

>  <SCORE.norm>
-0.968189

>  <RMSD>
5.416

$$$$
ligand
 OpenBabel11021811473D
libRbt.so/2013.1/901 2013/11/27
 10  9  0  0  0  0  0  0  0  0999 V2000
   25.9049   14.9816   20.5388 N   0  0  0  0  0  0  0  0  0  0  0  0
   26.9823   15.6522   19.7585 C   0  0  2  0  0  0  0  0  0  0  0  0
   27.4330   14.8153   18.5611 C   0  0  0  0  0  0  0  0  0  0  0  0
   27.0938   13.6355   18.4237 O   0  0  0  0  0  0  0  0  0  0  0  0
   28.1670   16.0078   20.6606 C   0  0  0  0  0  0  0  0  0  0  0  0
   28.7992   14.8134   21.3627 C   0  0  0  0  0  0  0  0  0  0  0  0
   30.0533   15.2274   22.1320 C   0  0  0  0  0  0  0  0  0  0  0  0
   31.2215   15.5177   21.1964 C   0  0  0  0  0  0  0  0  0  0  0  0
   31.0206   16.7571   20.3895 N   0  0  0  0  0  0  0  0  0  0  0  0
   28.1343   15.3109   17.6816 O   0  0  0  0  0  0  0  0  0  0  0  0
  2  1  1  1  0  0  0
  2  3  1  0  0  0  0
  2  5  1  0  0  0  0
  3  4  1  0  0  0  0
  3 10  1  0  0  0  0
  5  6  1  0  0  0  0
  6  7  1  0  0  0  0
  7  8  1  0  0  0  0
  8  9  1  0  0  0  0
M  END
>  <CHROM.1>
-11.68798919,58.89100883,174.42131985,-73.36157279,69.39626307,28.48241687
15.25319337,20.03774663,2.56217993,-0.26978899,-1.61189954

>  <Name>
ligand

>  <RI>
0

>  <Rbt.Current_Directory>
/home/itssahil/PROJECTS/Mol_Feturizer/New_Systems/rnas/3DJ2

>  <Rbt.Executable>
rbdock ($Id: //depot/dev/client3/rdock/2013.1/src/exe/rbdock.cxx#4 $)

>  <Rbt.Library>
libRbt.so (2013.1, Build901 2013/11/27)

>  <Rbt.Parameter_File>
/export/apps/rDock/src/rDock_2013.1_src/data/scripts/dock_solv.prm

>  <Rbt.Receptor>
prm/pocket_docking_8.prm

>  <SCORE>
-8.85613

>  <SCORE.INTER>
-9.41843

>  <SCORE.INTER.CONST>
1

>  <SCORE.INTER.POLAR>
0

>  <SCORE.INTER.ROT>
5

>  <SCORE.INTER.SOLV>
16.4672

>  <SCORE.INTER.VDW>
-18.7014

>  <SCORE.INTER.norm>
-0.941843

>  <SCORE.INTRA>
0.562302

>  <SCORE.INTRA.DIHEDRAL>
-1.54286

>  <SCORE.INTRA.DIHEDRAL.0>
4.28128

>  <SCORE.INTRA.POLAR>
0

>  <SCORE.INTRA.POLAR.0>
0

>  <SCORE.INTRA.REPUL>
0

>  <SCORE.INTRA.REPUL.0>
0

>  <SCORE.INTRA.SOLV>
1.82669

>  <SCORE.INTRA.SOLV.lig_0>
-32.3374

>  <SCORE.INTRA.VDW>
0.420387

>  <SCORE.INTRA.VDW.0>
-0.659551

>  <SCORE.INTRA.norm>
0.0562302

>  <SCORE.RESTR>
0

>  <SCORE.RESTR.CAVITY>
0

>  <SCORE.RESTR.norm>
0

>  <SCORE.SYSTEM>
0

>  <SCORE.SYSTEM.CONST>
0

>  <SCORE.SYSTEM.DIHEDRAL>
0

>  <SCORE.SYSTEM.SOLV>
0

>  <SCORE.SYSTEM.norm>
0

>  <SCORE.heavy>
10

>  <SCORE.norm>
-0.885613

>  <RMSD>
5.420

$$$$
ligand
 OpenBabel11021811473D
libRbt.so/2013.1/901 2013/11/27
 10  9  0  0  0  0  0  0  0  0999 V2000
   27.0918   13.7604   18.6107 N   0  0  0  0  0  0  0  0  0  0  0  0
   27.7061   14.6318   19.6512 C   0  0  2  0  0  0  0  0  0  0  0  0
   26.7836   14.8318   20.8537 C   0  0  0  0  0  0  0  0  0  0  0  0
   27.2143   14.8537   22.0112 O   0  0  0  0  0  0  0  0  0  0  0  0
   28.1331   15.9750   19.0535 C   0  0  0  0  0  0  0  0  0  0  0  0
   28.7559   16.9364   20.0571 C   0  0  0  0  0  0  0  0  0  0  0  0
   30.0992   16.4109   20.5625 C   0  0  0  0  0  0  0  0  0  0  0  0
   30.7357   17.3609   21.5708 C   0  0  0  0  0  0  0  0  0  0  0  0
   32.0532   16.8717   22.0729 N   0  0  0  0  0  0  0  0  0  0  0  0
   25.5768   15.0018   20.6933 O   0  0  0  0  0  0  0  0  0  0  0  0
  2  1  1  6  0  0  0
  2  3  1  0  0  0  0
  2  5  1  0  0  0  0
  3  4  1  0  0  0  0
  3 10  1  0  0  0  0
  5  6  1  0  0  0  0
  6  7  1  0  0  0  0
  7  8  1  0  0  0  0
  8  9  1  0  0  0  0
M  END
>  <CHROM.1>
140.81401839,179.21850103,66.91038238,-179.89893823,-179.67793507,28.38656429
15.66222483,20.53847999,-2.81365801,0.45609518,1.44267822

>  <Name>
ligand

>  <RI>
0

>  <Rbt.Current_Directory>
/home/itssahil/PROJECTS/Mol_Feturizer/New_Systems/rnas/3DJ2

>  <Rbt.Executable>
rbdock ($Id: //depot/dev/client3/rdock/2013.1/src/exe/rbdock.cxx#4 $)

>  <Rbt.Library>
libRbt.so (2013.1, Build901 2013/11/27)

>  <Rbt.Parameter_File>
/export/apps/rDock/src/rDock_2013.1_src/data/scripts/dock_solv.prm

>  <Rbt.Receptor>
prm/pocket_docking_3.prm

>  <SCORE>
-11.141

>  <SCORE.INTER>
-9.30137

>  <SCORE.INTER.CONST>
1

>  <SCORE.INTER.POLAR>
0

>  <SCORE.INTER.ROT>
5

>  <SCORE.INTER.SOLV>
15.7839

>  <SCORE.INTER.VDW>
-18.3956

>  <SCORE.INTER.norm>
-0.930137

>  <SCORE.INTRA>
-1.83964

>  <SCORE.INTRA.DIHEDRAL>
-2.59555

>  <SCORE.INTRA.DIHEDRAL.0>
4.28128

>  <SCORE.INTRA.POLAR>
0

>  <SCORE.INTRA.POLAR.0>
0

>  <SCORE.INTRA.REPUL>
0

>  <SCORE.INTRA.REPUL.0>
0

>  <SCORE.INTRA.SOLV>
-1.12983

>  <SCORE.INTRA.SOLV.lig_0>
-32.3374

>  <SCORE.INTRA.VDW>
0.0230449

>  <SCORE.INTRA.VDW.0>
-0.659551

>  <SCORE.INTRA.norm>
-0.183964

>  <SCORE.RESTR>
0

>  <SCORE.RESTR.CAVITY>
0

>  <SCORE.RESTR.norm>
0

>  <SCORE.SYSTEM>
0

>  <SCORE.SYSTEM.CONST>
0

>  <SCORE.SYSTEM.DIHEDRAL>
0

>  <SCORE.SYSTEM.SOLV>
0

>  <SCORE.SYSTEM.norm>
0

>  <SCORE.heavy>
10

>  <SCORE.norm>
-1.1141

>  <RMSD>
5.421

$$$$
ligand
 OpenBabel11021811473D
libRbt.so/2013.1/901 2013/11/27
 10  9  0  0  0  0  0  0  0  0999 V2000
   28.5798   13.9709   21.7618 N   0  0  0  0  0  0  0  0  0  0  0  0
   28.0540   15.3517   21.5717 C   0  0  2  0  0  0  0  0  0  0  0  0
   26.9610   15.4104   20.5044 C   0  0  0  0  0  0  0  0  0  0  0  0
   25.7871   15.1185   20.7545 O   0  0  0  0  0  0  0  0  0  0  0  0
   29.1898   16.3275   21.2530 C   0  0  0  0  0  0  0  0  0  0  0  0
   30.2458   16.4362   22.3450 C   0  0  0  0  0  0  0  0  0  0  0  0
   31.4631   17.2216   21.8576 C   0  0  0  0  0  0  0  0  0  0  0  0
   32.2730   16.4333   20.8343 C   0  0  0  0  0  0  0  0  0  0  0  0
   33.5433   17.1174   20.4527 N   0  0  0  0  0  0  0  0  0  0  0  0
   27.2240   15.7778   19.3612 O   0  0  0  0  0  0  0  0  0  0  0  0
  2  1  1  6  0  0  0
  2  3  1  0  0  0  0
  2  5  1  0  0  0  0
  3  4  1  0  0  0  0
  3 10  1  0  0  0  0
  5  6  1  0  0  0  0
  6  7  1  0  0  0  0
  7  8  1  0  0  0  0
  8  9  1  0  0  0  0
M  END
>  <CHROM.1>
82.03256567,-60.77128621,169.68317424,-70.89060544,-173.86487120,29.29558161
15.91479722,21.04579743,-3.10871686,-0.30334594,-1.17723255

>  <Name>
ligand

>  <RI>
0

>  <Rbt.Current_Directory>
/home/itssahil/PROJECTS/Mol_Feturizer/New_Systems/rnas/3DJ2

>  <Rbt.Executable>
rbdock ($Id: //depot/dev/client3/rdock/2013.1/src/exe/rbdock.cxx#4 $)

>  <Rbt.Library>
libRbt.so (2013.1, Build901 2013/11/27)

>  <Rbt.Parameter_File>
/export/apps/rDock/src/rDock_2013.1_src/data/scripts/dock_solv.prm

>  <Rbt.Receptor>
prm/pocket_docking_5.prm

>  <SCORE>
-7.14132

>  <SCORE.INTER>
-7.11418

>  <SCORE.INTER.CONST>
1

>  <SCORE.INTER.POLAR>
0

>  <SCORE.INTER.ROT>
5

>  <SCORE.INTER.SOLV>
18.5474

>  <SCORE.INTER.VDW>
-17.8586

>  <SCORE.INTER.norm>
-0.711418

>  <SCORE.INTRA>
-0.0271432

>  <SCORE.INTRA.DIHEDRAL>
-1.64898

>  <SCORE.INTRA.DIHEDRAL.0>
4.28128

>  <SCORE.INTRA.POLAR>
0

>  <SCORE.INTRA.POLAR.0>
0

>  <SCORE.INTRA.REPUL>
0

>  <SCORE.INTRA.REPUL.0>
0

>  <SCORE.INTRA.SOLV>
-0.117777

>  <SCORE.INTRA.SOLV.lig_0>
-32.3374

>  <SCORE.INTRA.VDW>
0.856237

>  <SCORE.INTRA.VDW.0>
-0.659551

>  <SCORE.INTRA.norm>
-0.00271432

>  <SCORE.RESTR>
0

>  <SCORE.RESTR.CAVITY>
0

>  <SCORE.RESTR.norm>
0

>  <SCORE.SYSTEM>
0

>  <SCORE.SYSTEM.CONST>
0

>  <SCORE.SYSTEM.DIHEDRAL>
0

>  <SCORE.SYSTEM.SOLV>
0

>  <SCORE.SYSTEM.norm>
0

>  <SCORE.heavy>
10

>  <SCORE.norm>
-0.714132

>  <RMSD>
5.421

$$$$
ligand
 OpenBabel11021811473D
libRbt.so/2013.1/901 2013/11/27
 10  9  0  0  0  0  0  0  0  0999 V2000
   25.8184   15.5556   20.0186 N   0  0  0  0  0  0  0  0  0  0  0  0
   27.2880   15.3713   20.1787 C   0  0  2  0  0  0  0  0  0  0  0  0
   27.8825   14.4946   19.0764 C   0  0  0  0  0  0  0  0  0  0  0  0
   27.1920   13.7012   18.4288 O   0  0  0  0  0  0  0  0  0  0  0  0
   27.6188   14.8142   21.5658 C   0  0  0  0  0  0  0  0  0  0  0  0
   29.1093   14.7295   21.8667 C   0  0  0  0  0  0  0  0  0  0  0  0
   29.7409   16.1205   21.9163 C   0  0  0  0  0  0  0  0  0  0  0  0
   31.2403   16.0524   22.1837 C   0  0  0  0  0  0  0  0  0  0  0  0
   31.8811   17.3996   22.2253 N   0  0  0  0  0  0  0  0  0  0  0  0
   29.0746   14.5768   18.7881 O   0  0  0  0  0  0  0  0  0  0  0  0
  2  1  1  6  0  0  0
  2  3  1  0  0  0  0
  2  5  1  0  0  0  0
  3  4  1  0  0  0  0
  3 10  1  0  0  0  0
  5  6  1  0  0  0  0
  6  7  1  0  0  0  0
  7  8  1  0  0  0  0
  8  9  1  0  0  0  0
M  END
>  <CHROM.1>
-22.17638850,-174.02646104,64.92833768,-178.63547224,179.52638642,28.69055438
15.25988548,20.59364592,2.42307089,-0.12148122,-2.02529241

>  <Name>
ligand

>  <RI>
0

>  <Rbt.Current_Directory>
/home/itssahil/PROJECTS/Mol_Feturizer/New_Systems/rnas/3DJ2

>  <Rbt.Executable>
rbdock ($Id: //depot/dev/client3/rdock/2013.1/src/exe/rbdock.cxx#4 $)

>  <Rbt.Library>
libRbt.so (2013.1, Build901 2013/11/27)

>  <Rbt.Parameter_File>
/export/apps/rDock/src/rDock_2013.1_src/data/scripts/dock_solv.prm

>  <Rbt.Receptor>
prm/pocket_docking_7.prm

>  <SCORE>
-10.2156

>  <SCORE.INTER>
-8.5012

>  <SCORE.INTER.CONST>
1

>  <SCORE.INTER.POLAR>
0

>  <SCORE.INTER.ROT>
5

>  <SCORE.INTER.SOLV>
17.2194

>  <SCORE.INTER.VDW>
-18.3406

>  <SCORE.INTER.norm>
-0.85012

>  <SCORE.INTRA>
-1.71443

>  <SCORE.INTRA.DIHEDRAL>
-2.47827

>  <SCORE.INTRA.DIHEDRAL.0>
4.28128

>  <SCORE.INTRA.POLAR>
0

>  <SCORE.INTRA.POLAR.0>
0

>  <SCORE.INTRA.REPUL>
0

>  <SCORE.INTRA.REPUL.0>
0

>  <SCORE.INTRA.SOLV>
-1.06986

>  <SCORE.INTRA.SOLV.lig_0>
-32.3374

>  <SCORE.INTRA.VDW>
0.0596366

>  <SCORE.INTRA.VDW.0>
-0.659551

>  <SCORE.INTRA.norm>
-0.171443

>  <SCORE.RESTR>
0

>  <SCORE.RESTR.CAVITY>
0

>  <SCORE.RESTR.norm>
0

>  <SCORE.SYSTEM>
0

>  <SCORE.SYSTEM.CONST>
0

>  <SCORE.SYSTEM.DIHEDRAL>
0

>  <SCORE.SYSTEM.SOLV>
0

>  <SCORE.SYSTEM.norm>
0

>  <SCORE.heavy>
10

>  <SCORE.norm>
-1.02156

>  <RMSD>
5.422

$$$$
ligand
 OpenBabel11021811473D
libRbt.so/2013.1/901 2013/11/27
 10  9  0  0  0  0  0  0  0  0999 V2000
   28.1284   16.4384   19.2314 N   0  0  0  0  0  0  0  0  0  0  0  0
   28.2608   15.4738   20.3589 C   0  0  2  0  0  0  0  0  0  0  0  0
   26.9139   15.1605   21.0107 C   0  0  0  0  0  0  0  0  0  0  0  0
   26.8203   14.8593   22.2050 O   0  0  0  0  0  0  0  0  0  0  0  0
   29.2700   15.9802   21.3927 C   0  0  0  0  0  0  0  0  0  0  0  0
   30.6264   16.3557   20.8110 C   0  0  0  0  0  0  0  0  0  0  0  0
   31.6255   16.6936   21.9172 C   0  0  0  0  0  0  0  0  0  0  0  0
   32.9347   17.2332   21.3522 C   0  0  0  0  0  0  0  0  0  0  0  0
   33.5768   16.2946   20.3857 N   0  0  0  0  0  0  0  0  0  0  0  0
   25.8744   15.2250   20.3579 O   0  0  0  0  0  0  0  0  0  0  0  0
  2  1  1  6  0  0  0
  2  3  1  0  0  0  0
  2  5  1  0  0  0  0
  3  4  1  0  0  0  0
  3 10  1  0  0  0  0
  5  6  1  0  0  0  0
  6  7  1  0  0  0  0
  7  8  1  0  0  0  0
  8  9  1  0  0  0  0
M  END
>  <CHROM.1>
-150.40518069,-52.77161075,-173.35712333,-173.10169620,-56.68951999,29.36099089
15.96048087,20.91550678,3.12337373,0.24075994,1.78766918

>  <Name>
ligand

>  <RI>
0

>  <Rbt.Current_Directory>
/home/itssahil/PROJECTS/Mol_Feturizer/New_Systems/rnas/3DJ2

>  <Rbt.Executable>
rbdock ($Id: //depot/dev/client3/rdock/2013.1/src/exe/rbdock.cxx#4 $)

>  <Rbt.Library>
libRbt.so (2013.1, Build901 2013/11/27)

>  <Rbt.Parameter_File>
/export/apps/rDock/src/rDock_2013.1_src/data/scripts/dock_solv.prm

>  <Rbt.Receptor>
prm/pocket_docking_3.prm

>  <SCORE>
-8.75716

>  <SCORE.INTER>
-8.61204

>  <SCORE.INTER.CONST>
1

>  <SCORE.INTER.POLAR>
0

>  <SCORE.INTER.ROT>
5

>  <SCORE.INTER.SOLV>
16.1243

>  <SCORE.INTER.VDW>
-18.0495

>  <SCORE.INTER.norm>
-0.861204

>  <SCORE.INTRA>
-0.145124

>  <SCORE.INTRA.DIHEDRAL>
-2.1033

>  <SCORE.INTRA.DIHEDRAL.0>
4.28128

>  <SCORE.INTRA.POLAR>
0

>  <SCORE.INTRA.POLAR.0>
0

>  <SCORE.INTRA.REPUL>
0

>  <SCORE.INTRA.REPUL.0>
0

>  <SCORE.INTRA.SOLV>
0.585163

>  <SCORE.INTRA.SOLV.lig_0>
-32.3374

>  <SCORE.INTRA.VDW>
0.613944

>  <SCORE.INTRA.VDW.0>
-0.659551

>  <SCORE.INTRA.norm>
-0.0145124

>  <SCORE.RESTR>
0

>  <SCORE.RESTR.CAVITY>
0

>  <SCORE.RESTR.norm>
0

>  <SCORE.SYSTEM>
0

>  <SCORE.SYSTEM.CONST>
0

>  <SCORE.SYSTEM.DIHEDRAL>
0

>  <SCORE.SYSTEM.SOLV>
0

>  <SCORE.SYSTEM.norm>
0

>  <SCORE.heavy>
10

>  <SCORE.norm>
-0.875716

>  <RMSD>
5.424

$$$$
ligand
 OpenBabel11021811473D
libRbt.so/2013.1/901 2013/11/27
 10  9  0  0  0  0  0  0  0  0999 V2000
   25.8010   15.5546   19.9784 N   0  0  0  0  0  0  0  0  0  0  0  0
   27.2679   15.3642   20.1550 C   0  0  2  0  0  0  0  0  0  0  0  0
   27.8750   14.5032   19.0471 C   0  0  0  0  0  0  0  0  0  0  0  0
   27.1933   13.7136   18.3855 O   0  0  0  0  0  0  0  0  0  0  0  0
   27.5790   14.7848   21.5375 C   0  0  0  0  0  0  0  0  0  0  0  0
   29.0642   14.7171   21.8675 C   0  0  0  0  0  0  0  0  0  0  0  0
   29.6722   16.1165   21.9592 C   0  0  0  0  0  0  0  0  0  0  0  0
   31.1734   16.0656   22.2202 C   0  0  0  0  0  0  0  0  0  0  0  0
   31.8049   17.4179   22.2235 N   0  0  0  0  0  0  0  0  0  0  0  0
   29.0687   14.5949   18.7685 O   0  0  0  0  0  0  0  0  0  0  0  0
  2  1  1  6  0  0  0
  2  3  1  0  0  0  0
  2  5  1  0  0  0  0
  3  4  1  0  0  0  0
  3 10  1  0  0  0  0
  5  6  1  0  0  0  0
  6  7  1  0  0  0  0
  7  8  1  0  0  0  0
  8  9  1  0  0  0  0
M  END
>  <CHROM.1>
-22.77912700,-172.88662154,65.00070086,-177.14961881,176.18970542,28.65635008
15.26188964,20.58281237,2.40821781,-0.13079098,-2.01122437

>  <Name>
ligand

>  <RI>
0

>  <Rbt.Current_Directory>
/home/itssahil/PROJECTS/Mol_Feturizer/New_Systems/rnas/3DJ2

>  <Rbt.Executable>
rbdock ($Id: //depot/dev/client3/rdock/2013.1/src/exe/rbdock.cxx#4 $)

>  <Rbt.Library>
libRbt.so (2013.1, Build901 2013/11/27)

>  <Rbt.Parameter_File>
/export/apps/rDock/src/rDock_2013.1_src/data/scripts/dock_solv.prm

>  <Rbt.Receptor>
prm/pocket_docking_3.prm

>  <SCORE>
-10.0849

>  <SCORE.INTER>
-8.4105

>  <SCORE.INTER.CONST>
1

>  <SCORE.INTER.POLAR>
0

>  <SCORE.INTER.ROT>
5

>  <SCORE.INTER.SOLV>
17.236

>  <SCORE.INTER.VDW>
-18.2857

>  <SCORE.INTER.norm>
-0.84105

>  <SCORE.INTRA>
-1.67444

>  <SCORE.INTRA.DIHEDRAL>
-2.34028

>  <SCORE.INTRA.DIHEDRAL.0>
4.28128

>  <SCORE.INTRA.POLAR>
0

>  <SCORE.INTRA.POLAR.0>
0

>  <SCORE.INTRA.REPUL>
0

>  <SCORE.INTRA.REPUL.0>
0

>  <SCORE.INTRA.SOLV>
-1.06071

>  <SCORE.INTRA.SOLV.lig_0>
-32.3374

>  <SCORE.INTRA.VDW>
0.0260557

>  <SCORE.INTRA.VDW.0>
-0.659551

>  <SCORE.INTRA.norm>
-0.167444

>  <SCORE.RESTR>
0

>  <SCORE.RESTR.CAVITY>
0

>  <SCORE.RESTR.norm>
0

>  <SCORE.SYSTEM>
0

>  <SCORE.SYSTEM.CONST>
0

>  <SCORE.SYSTEM.DIHEDRAL>
0

>  <SCORE.SYSTEM.SOLV>
0

>  <SCORE.SYSTEM.norm>
0

>  <SCORE.heavy>
10

>  <SCORE.norm>
-1.00849

>  <RMSD>
5.424

$$$$
ligand
 OpenBabel11021811473D
libRbt.so/2013.1/901 2013/11/27
 10  9  0  0  0  0  0  0  0  0999 V2000
   25.6205   15.2392   20.5337 N   0  0  0  0  0  0  0  0  0  0  0  0
   27.0955   15.4438   20.4931 C   0  0  2  0  0  0  0  0  0  0  0  0
   27.6831   15.1321   19.1166 C   0  0  0  0  0  0  0  0  0  0  0  0
   28.4950   15.8836   18.5672 O   0  0  0  0  0  0  0  0  0  0  0  0
   27.7886   14.6273   21.5870 C   0  0  0  0  0  0  0  0  0  0  0  0
   29.3074   14.7403   21.5843 C   0  0  0  0  0  0  0  0  0  0  0  0
   29.7549   16.1552   21.9499 C   0  0  0  0  0  0  0  0  0  0  0  0
   31.2734   16.2661   22.0293 C   0  0  0  0  0  0  0  0  0  0  0  0
   31.7354   17.6486   22.3492 N   0  0  0  0  0  0  0  0  0  0  0  0
   27.3749   14.0992   18.5256 O   0  0  0  0  0  0  0  0  0  0  0  0
  2  1  1  6  0  0  0
  2  3  1  0  0  0  0
  2  5  1  0  0  0  0
  3  4  1  0  0  0  0
  3 10  1  0  0  0  0
  5  6  1  0  0  0  0
  6  7  1  0  0  0  0
  7  8  1  0  0  0  0
  8  9  1  0  0  0  0
M  END
>  <CHROM.1>
134.11172278,177.91178229,66.56818114,176.76435065,178.46013310,28.61802748
15.51457216,20.63742770,2.58999352,-0.40166145,-1.60054927

>  <Name>
ligand

>  <RI>
0

>  <Rbt.Current_Directory>
/home/itssahil/PROJECTS/Mol_Feturizer/New_Systems/rnas/3DJ2

>  <Rbt.Executable>
rbdock ($Id: //depot/dev/client3/rdock/2013.1/src/exe/rbdock.cxx#4 $)

>  <Rbt.Library>
libRbt.so (2013.1, Build901 2013/11/27)

>  <Rbt.Parameter_File>
/export/apps/rDock/src/rDock_2013.1_src/data/scripts/dock_solv.prm

>  <Rbt.Receptor>
prm/pocket_docking_3.prm

>  <SCORE>
-9.37229

>  <SCORE.INTER>
-7.58803

>  <SCORE.INTER.CONST>
1

>  <SCORE.INTER.POLAR>
0

>  <SCORE.INTER.ROT>
5

>  <SCORE.INTER.SOLV>
18.0172

>  <SCORE.INTER.VDW>
-17.9978

>  <SCORE.INTER.norm>
-0.758803

>  <SCORE.INTRA>
-1.78426

>  <SCORE.INTRA.DIHEDRAL>
-2.5327

>  <SCORE.INTRA.DIHEDRAL.0>
4.28128

>  <SCORE.INTRA.POLAR>
0

>  <SCORE.INTRA.POLAR.0>
0

>  <SCORE.INTRA.REPUL>
0

>  <SCORE.INTRA.REPUL.0>
0

>  <SCORE.INTRA.SOLV>
-1.13935

>  <SCORE.INTRA.SOLV.lig_0>
-32.3374

>  <SCORE.INTRA.VDW>
0.0517639

>  <SCORE.INTRA.VDW.0>
-0.659551

>  <SCORE.INTRA.norm>
-0.178426

>  <SCORE.RESTR>
0

>  <SCORE.RESTR.CAVITY>
0

>  <SCORE.RESTR.norm>
0

>  <SCORE.SYSTEM>
0

>  <SCORE.SYSTEM.CONST>
0

>  <SCORE.SYSTEM.DIHEDRAL>
0

>  <SCORE.SYSTEM.SOLV>
0

>  <SCORE.SYSTEM.norm>
0

>  <SCORE.heavy>
10

>  <SCORE.norm>
-0.937229

>  <RMSD>
5.427

$$$$
ligand
 OpenBabel11021811473D
libRbt.so/2013.1/901 2013/11/27
 10  9  0  0  0  0  0  0  0  0999 V2000
   28.5444   14.4956   19.2266 N   0  0  0  0  0  0  0  0  0  0  0  0
   27.9904   14.5664   20.6077 C   0  0  2  0  0  0  0  0  0  0  0  0
   26.5071   14.9367   20.6154 C   0  0  0  0  0  0  0  0  0  0  0  0
   25.7455   14.5652   21.5142 O   0  0  0  0  0  0  0  0  0  0  0  0
   28.8050   15.5322   21.4721 C   0  0  0  0  0  0  0  0  0  0  0  0
   30.2344   15.0793   21.7387 C   0  0  0  0  0  0  0  0  0  0  0  0
   30.9786   16.0900   22.6110 C   0  0  0  0  0  0  0  0  0  0  0  0
   31.3931   17.3249   21.8187 C   0  0  0  0  0  0  0  0  0  0  0  0
   32.4919   17.0460   20.8481 N   0  0  0  0  0  0  0  0  0  0  0  0
   26.0354   15.6432   19.7269 O   0  0  0  0  0  0  0  0  0  0  0  0
  2  1  1  6  0  0  0
  2  3  1  0  0  0  0
  2  5  1  0  0  0  0
  3  4  1  0  0  0  0
  3 10  1  0  0  0  0
  5  6  1  0  0  0  0
  6  7  1  0  0  0  0
  7  8  1  0  0  0  0
  8  9  1  0  0  0  0
M  END
>  <CHROM.1>
151.39656533,-65.97611126,-179.73910412,-75.93744331,-70.91845299,28.82883950
15.53135978,21.01578034,-2.92047658,0.31490926,1.52749367

>  <Name>
ligand

>  <RI>
0

>  <Rbt.Current_Directory>
/home/itssahil/PROJECTS/Mol_Feturizer/New_Systems/rnas/3DJ2

>  <Rbt.Executable>
rbdock ($Id: //depot/dev/client3/rdock/2013.1/src/exe/rbdock.cxx#4 $)

>  <Rbt.Library>
libRbt.so (2013.1, Build901 2013/11/27)

>  <Rbt.Parameter_File>
/export/apps/rDock/src/rDock_2013.1_src/data/scripts/dock_solv.prm

>  <Rbt.Receptor>
prm/blind_docking_60.prm

>  <SCORE>
-9.72227

>  <SCORE.INTER>
-9.59934

>  <SCORE.INTER.CONST>
1

>  <SCORE.INTER.POLAR>
0

>  <SCORE.INTER.ROT>
5

>  <SCORE.INTER.SOLV>
12.9598

>  <SCORE.INTER.VDW>
-17.6528

>  <SCORE.INTER.norm>
-0.959934

>  <SCORE.INTRA>
-0.122935

>  <SCORE.INTRA.DIHEDRAL>
-1.20754

>  <SCORE.INTRA.DIHEDRAL.0>
4.28128

>  <SCORE.INTRA.POLAR>
0

>  <SCORE.INTRA.POLAR.0>
0

>  <SCORE.INTRA.REPUL>
0

>  <SCORE.INTRA.REPUL.0>
0

>  <SCORE.INTRA.SOLV>
0.639569

>  <SCORE.INTRA.SOLV.lig_0>
-32.3374

>  <SCORE.INTRA.VDW>
0.161049

>  <SCORE.INTRA.VDW.0>
-0.659551

>  <SCORE.INTRA.norm>
-0.0122935

>  <SCORE.RESTR>
0

>  <SCORE.RESTR.CAVITY>
0

>  <SCORE.RESTR.norm>
0

>  <SCORE.SYSTEM>
0

>  <SCORE.SYSTEM.CONST>
0

>  <SCORE.SYSTEM.DIHEDRAL>
0

>  <SCORE.SYSTEM.SOLV>
0

>  <SCORE.SYSTEM.norm>
0

>  <SCORE.heavy>
10

>  <SCORE.norm>
-0.972227

>  <RMSD>
5.428

$$$$
ligand
 OpenBabel11021811473D
libRbt.so/2013.1/901 2013/11/27
 10  9  0  0  0  0  0  0  0  0999 V2000
   27.8808   14.7096   18.7794 N   0  0  0  0  0  0  0  0  0  0  0  0
   28.1264   14.6917   20.2486 C   0  0  2  0  0  0  0  0  0  0  0  0
   26.8485   14.9415   21.0498 C   0  0  0  0  0  0  0  0  0  0  0  0
   26.8456   14.9647   22.2848 O   0  0  0  0  0  0  0  0  0  0  0  0
   29.2212   15.6916   20.6296 C   0  0  0  0  0  0  0  0  0  0  0  0
   29.7291   15.5488   22.0583 C   0  0  0  0  0  0  0  0  0  0  0  0
   30.7315   16.6511   22.3991 C   0  0  0  0  0  0  0  0  0  0  0  0
   32.0223   16.5093   21.6003 C   0  0  0  0  0  0  0  0  0  0  0  0
   32.9988   17.6020   21.8826 N   0  0  0  0  0  0  0  0  0  0  0  0
   25.7825   15.1520   20.4750 O   0  0  0  0  0  0  0  0  0  0  0  0
  2  1  1  6  0  0  0
  2  3  1  0  0  0  0
  2  5  1  0  0  0  0
  3  4  1  0  0  0  0
  3 10  1  0  0  0  0
  5  6  1  0  0  0  0
  6  7  1  0  0  0  0
  7  8  1  0  0  0  0
  8  9  1  0  0  0  0
M  END
>  <CHROM.1>
179.97981377,-168.55900272,-175.25686331,-67.30068667,178.05004738,28.98002496
15.64653474,21.15535787,-2.84532887,0.31159808,1.36752465

>  <Name>
ligand

>  <RI>
0

>  <Rbt.Current_Directory>
/home/itssahil/PROJECTS/Mol_Feturizer/New_Systems/rnas/3DJ2

>  <Rbt.Executable>
rbdock ($Id: //depot/dev/client3/rdock/2013.1/src/exe/rbdock.cxx#4 $)

>  <Rbt.Library>
libRbt.so (2013.1, Build901 2013/11/27)

>  <Rbt.Parameter_File>
/export/apps/rDock/src/rDock_2013.1_src/data/scripts/dock_solv.prm

>  <Rbt.Receptor>
prm/pocket_docking_3.prm

>  <SCORE>
-10.1725

>  <SCORE.INTER>
-9.49796

>  <SCORE.INTER.CONST>
1

>  <SCORE.INTER.POLAR>
0

>  <SCORE.INTER.ROT>
5

>  <SCORE.INTER.SOLV>
13.7695

>  <SCORE.INTER.VDW>
-17.8551

>  <SCORE.INTER.norm>
-0.949796

>  <SCORE.INTRA>
-0.674515

>  <SCORE.INTRA.DIHEDRAL>
-1.96299

>  <SCORE.INTRA.DIHEDRAL.0>
4.28128

>  <SCORE.INTRA.POLAR>
0

>  <SCORE.INTRA.POLAR.0>
0

>  <SCORE.INTRA.REPUL>
0

>  <SCORE.INTRA.REPUL.0>
0

>  <SCORE.INTRA.SOLV>
-1.07121

>  <SCORE.INTRA.SOLV.lig_0>
-32.3374

>  <SCORE.INTRA.VDW>
0.842584

>  <SCORE.INTRA.VDW.0>
-0.659551

>  <SCORE.INTRA.norm>
-0.0674515

>  <SCORE.RESTR>
0

>  <SCORE.RESTR.CAVITY>
0

>  <SCORE.RESTR.norm>
0

>  <SCORE.SYSTEM>
0

>  <SCORE.SYSTEM.CONST>
0

>  <SCORE.SYSTEM.DIHEDRAL>
0

>  <SCORE.SYSTEM.SOLV>
0

>  <SCORE.SYSTEM.norm>
0

>  <SCORE.heavy>
10

>  <SCORE.norm>
-1.01725

>  <RMSD>
5.429

$$$$
ligand
 OpenBabel11021811473D
libRbt.so/2013.1/901 2013/11/27
 10  9  0  0  0  0  0  0  0  0999 V2000
   27.7051   14.7139   18.6884 N   0  0  0  0  0  0  0  0  0  0  0  0
   28.0238   14.6678   20.1429 C   0  0  2  0  0  0  0  0  0  0  0  0
   26.7997   14.9597   21.0109 C   0  0  0  0  0  0  0  0  0  0  0  0
   25.6874   15.1776   20.5198 O   0  0  0  0  0  0  0  0  0  0  0  0
   29.1771   15.6173   20.4777 C   0  0  0  0  0  0  0  0  0  0  0  0
   29.8335   15.3529   21.8263 C   0  0  0  0  0  0  0  0  0  0  0  0
   30.8952   16.4073   22.1380 C   0  0  0  0  0  0  0  0  0  0  0  0
   32.0605   16.3447   21.1569 C   0  0  0  0  0  0  0  0  0  0  0  0
   33.0773   17.4099   21.3996 N   0  0  0  0  0  0  0  0  0  0  0  0
   26.8896   14.9612   22.2368 O   0  0  0  0  0  0  0  0  0  0  0  0
  2  1  1  6  0  0  0
  2  3  1  0  0  0  0
  2  5  1  0  0  0  0
  3  4  1  0  0  0  0
  3 10  1  0  0  0  0
  5  6  1  0  0  0  0
  6  7  1  0  0  0  0
  7  8  1  0  0  0  0
  8  9  1  0  0  0  0
M  END
>  <CHROM.1>
1.31553427,-163.27267305,-175.38336708,-64.92461154,177.10612767,28.97703390
15.56230638,20.97679028,-2.93689958,0.29154588,1.41971907

>  <Name>
ligand

>  <RI>
0

>  <Rbt.Current_Directory>
/home/itssahil/PROJECTS/Mol_Feturizer/New_Systems/rnas/3DJ2

>  <Rbt.Executable>
rbdock ($Id: //depot/dev/client3/rdock/2013.1/src/exe/rbdock.cxx#4 $)

>  <Rbt.Library>
libRbt.so (2013.1, Build901 2013/11/27)

>  <Rbt.Parameter_File>
/export/apps/rDock/src/rDock_2013.1_src/data/scripts/dock_solv.prm

>  <Rbt.Receptor>
prm/pocket_docking_4.prm

>  <SCORE>
-10.1169

>  <SCORE.INTER>
-9.64853

>  <SCORE.INTER.CONST>
1

>  <SCORE.INTER.POLAR>
0

>  <SCORE.INTER.ROT>
5

>  <SCORE.INTER.SOLV>
14.4653

>  <SCORE.INTER.VDW>
-18.1874

>  <SCORE.INTER.norm>
-0.964853

>  <SCORE.INTRA>
-0.468402

>  <SCORE.INTRA.DIHEDRAL>
-1.54674

>  <SCORE.INTRA.DIHEDRAL.0>
4.28128

>  <SCORE.INTRA.POLAR>
0

>  <SCORE.INTRA.POLAR.0>
0

>  <SCORE.INTRA.REPUL>
0

>  <SCORE.INTRA.REPUL.0>
0

>  <SCORE.INTRA.SOLV>
-1.04958

>  <SCORE.INTRA.SOLV.lig_0>
-32.3374

>  <SCORE.INTRA.VDW>
0.829758

>  <SCORE.INTRA.VDW.0>
-0.659551

>  <SCORE.INTRA.norm>
-0.0468402

>  <SCORE.RESTR>
0

>  <SCORE.RESTR.CAVITY>
0

>  <SCORE.RESTR.norm>
0

>  <SCORE.SYSTEM>
0

>  <SCORE.SYSTEM.CONST>
0

>  <SCORE.SYSTEM.DIHEDRAL>
0

>  <SCORE.SYSTEM.SOLV>
0

>  <SCORE.SYSTEM.norm>
0

>  <SCORE.heavy>
10

>  <SCORE.norm>
-1.01169

>  <RMSD>
5.429

$$$$
ligand
 OpenBabel11021811473D
libRbt.so/2013.1/901 2013/11/27
 10  9  0  0  0  0  0  0  0  0999 V2000
   25.7160   15.5515   19.9075 N   0  0  0  0  0  0  0  0  0  0  0  0
   27.1772   15.3698   20.1333 C   0  0  2  0  0  0  0  0  0  0  0  0
   27.8317   14.5372   19.0307 C   0  0  0  0  0  0  0  0  0  0  0  0
   29.0423   14.6023   18.7941 O   0  0  0  0  0  0  0  0  0  0  0  0
   27.4436   14.7645   21.5140 C   0  0  0  0  0  0  0  0  0  0  0  0
   28.9193   14.6504   21.8728 C   0  0  0  0  0  0  0  0  0  0  0  0
   29.5837   16.0262   21.9144 C   0  0  0  0  0  0  0  0  0  0  0  0
   31.0762   15.9255   22.2093 C   0  0  0  0  0  0  0  0  0  0  0  0
   31.7668   17.2472   22.1500 N   0  0  0  0  0  0  0  0  0  0  0  0
   27.1629   13.7541   18.3596 O   0  0  0  0  0  0  0  0  0  0  0  0
  2  1  1  6  0  0  0
  2  3  1  0  0  0  0
  2  5  1  0  0  0  0
  3  4  1  0  0  0  0
  3 10  1  0  0  0  0
  5  6  1  0  0  0  0
  6  7  1  0  0  0  0
  7  8  1  0  0  0  0
  8  9  1  0  0  0  0
M  END
>  <CHROM.1>
157.55224572,-175.24751277,61.66815552,-177.37676171,175.53515939,28.57933087
15.22196178,20.55771504,2.42985004,-0.12434060,-1.97627803

>  <Name>
ligand

>  <RI>
0

>  <Rbt.Current_Directory>
/home/itssahil/PROJECTS/Mol_Feturizer/New_Systems/rnas/3DJ2

>  <Rbt.Executable>
rbdock ($Id: //depot/dev/client3/rdock/2013.1/src/exe/rbdock.cxx#4 $)

>  <Rbt.Library>
libRbt.so (2013.1, Build901 2013/11/27)

>  <Rbt.Parameter_File>
/export/apps/rDock/src/rDock_2013.1_src/data/scripts/dock_solv.prm

>  <Rbt.Receptor>
prm/pocket_docking_4.prm

>  <SCORE>
-10.1743

>  <SCORE.INTER>
-8.49212

>  <SCORE.INTER.CONST>
1

>  <SCORE.INTER.POLAR>
0

>  <SCORE.INTER.ROT>
5

>  <SCORE.INTER.SOLV>
17.3375

>  <SCORE.INTER.VDW>
-18.3739

>  <SCORE.INTER.norm>
-0.849212

>  <SCORE.INTRA>
-1.6822

>  <SCORE.INTRA.DIHEDRAL>
-2.61233

>  <SCORE.INTRA.DIHEDRAL.0>
4.28128

>  <SCORE.INTRA.POLAR>
0

>  <SCORE.INTRA.POLAR.0>
0

>  <SCORE.INTRA.REPUL>
0

>  <SCORE.INTRA.REPUL.0>
0

>  <SCORE.INTRA.SOLV>
-1.0568

>  <SCORE.INTRA.SOLV.lig_0>
-32.3374

>  <SCORE.INTRA.VDW>
0.152367

>  <SCORE.INTRA.VDW.0>
-0.659551

>  <SCORE.INTRA.norm>
-0.16822

>  <SCORE.RESTR>
0

>  <SCORE.RESTR.CAVITY>
0

>  <SCORE.RESTR.norm>
0

>  <SCORE.SYSTEM>
0

>  <SCORE.SYSTEM.CONST>
0

>  <SCORE.SYSTEM.DIHEDRAL>
0

>  <SCORE.SYSTEM.SOLV>
0

>  <SCORE.SYSTEM.norm>
0

>  <SCORE.heavy>
10

>  <SCORE.norm>
-1.01743

>  <RMSD>
5.429

$$$$
ligand
 OpenBabel11021811473D
libRbt.so/2013.1/901 2013/11/27
 10  9  0  0  0  0  0  0  0  0999 V2000
   28.1778   17.0677   19.5049 N   0  0  0  0  0  0  0  0  0  0  0  0
   28.4227   15.7228   20.0970 C   0  0  2  0  0  0  0  0  0  0  0  0
   27.1540   14.8706   20.1364 C   0  0  0  0  0  0  0  0  0  0  0  0
   26.9382   13.9813   19.3067 O   0  0  0  0  0  0  0  0  0  0  0  0
   29.0481   15.8465   21.4889 C   0  0  0  0  0  0  0  0  0  0  0  0
   30.3512   16.6341   21.5213 C   0  0  0  0  0  0  0  0  0  0  0  0
   31.4387   15.9329   20.7079 C   0  0  0  0  0  0  0  0  0  0  0  0
   32.7298   16.7429   20.6718 C   0  0  0  0  0  0  0  0  0  0  0  0
   33.3019   16.9780   22.0301 N   0  0  0  0  0  0  0  0  0  0  0  0
   26.3177   15.0368   21.0218 O   0  0  0  0  0  0  0  0  0  0  0  0
  2  1  1  1  0  0  0
  2  3  1  0  0  0  0
  2  5  1  0  0  0  0
  3  4  1  0  0  0  0
  3 10  1  0  0  0  0
  5  6  1  0  0  0  0
  6  7  1  0  0  0  0
  7  8  1  0  0  0  0
  8  9  1  0  0  0  0
M  END
>  <CHROM.1>
101.35882784,-57.03197266,-63.59720541,177.14320345,60.04444387,29.34925085
15.85822487,20.64634575,-2.87346138,0.27001039,1.37186449

>  <Name>
ligand

>  <RI>
0

>  <Rbt.Current_Directory>
/home/itssahil/PROJECTS/Mol_Feturizer/New_Systems/rnas/3DJ2

>  <Rbt.Executable>
rbdock ($Id: //depot/dev/client3/rdock/2013.1/src/exe/rbdock.cxx#4 $)

>  <Rbt.Library>
libRbt.so (2013.1, Build901 2013/11/27)

>  <Rbt.Parameter_File>
/export/apps/rDock/src/rDock_2013.1_src/data/scripts/dock_solv.prm

>  <Rbt.Receptor>
prm/pocket_docking_8.prm

>  <SCORE>
-7.68431

>  <SCORE.INTER>
-7.41338

>  <SCORE.INTER.CONST>
1

>  <SCORE.INTER.POLAR>
0

>  <SCORE.INTER.ROT>
5

>  <SCORE.INTER.SOLV>
16.9866

>  <SCORE.INTER.VDW>
-17.5378

>  <SCORE.INTER.norm>
-0.741338

>  <SCORE.INTRA>
-0.270929

>  <SCORE.INTRA.DIHEDRAL>
-2.60011

>  <SCORE.INTRA.DIHEDRAL.0>
4.28128

>  <SCORE.INTRA.POLAR>
0

>  <SCORE.INTRA.POLAR.0>
0

>  <SCORE.INTRA.REPUL>
0

>  <SCORE.INTRA.REPUL.0>
0

>  <SCORE.INTRA.SOLV>
1.0823

>  <SCORE.INTRA.SOLV.lig_0>
-32.3374

>  <SCORE.INTRA.VDW>
0.487976

>  <SCORE.INTRA.VDW.0>
-0.659551

>  <SCORE.INTRA.norm>
-0.0270929

>  <SCORE.RESTR>
0

>  <SCORE.RESTR.CAVITY>
0

>  <SCORE.RESTR.norm>
0

>  <SCORE.SYSTEM>
0

>  <SCORE.SYSTEM.CONST>
0

>  <SCORE.SYSTEM.DIHEDRAL>
0

>  <SCORE.SYSTEM.SOLV>
0

>  <SCORE.SYSTEM.norm>
0

>  <SCORE.heavy>
10

>  <SCORE.norm>
-0.768431

>  <RMSD>
5.431

$$$$
ligand
 OpenBabel11021811473D
libRbt.so/2013.1/901 2013/11/27
 10  9  0  0  0  0  0  0  0  0999 V2000
   28.6280   14.5675   19.2468 N   0  0  0  0  0  0  0  0  0  0  0  0
   28.2737   15.2226   20.5370 C   0  0  2  0  0  0  0  0  0  0  0  0
   26.7774   15.1325   20.8374 C   0  0  0  0  0  0  0  0  0  0  0  0
   26.3526   14.7400   21.9289 O   0  0  0  0  0  0  0  0  0  0  0  0
   28.7548   16.6758   20.5597 C   0  0  0  0  0  0  0  0  0  0  0  0
   30.2685   16.8327   20.6194 C   0  0  0  0  0  0  0  0  0  0  0  0
   30.8235   16.3170   21.9468 C   0  0  0  0  0  0  0  0  0  0  0  0
   32.3236   16.5614   22.0665 C   0  0  0  0  0  0  0  0  0  0  0  0
   32.6702   18.0123   22.1133 N   0  0  0  0  0  0  0  0  0  0  0  0
   25.9500   15.4761   19.9959 O   0  0  0  0  0  0  0  0  0  0  0  0
  2  1  1  6  0  0  0
  2  3  1  0  0  0  0
  2  5  1  0  0  0  0
  3  4  1  0  0  0  0
  3 10  1  0  0  0  0
  5  6  1  0  0  0  0
  6  7  1  0  0  0  0
  7  8  1  0  0  0  0
  8  9  1  0  0  0  0
M  END
>  <CHROM.1>
130.25017435,-69.16173564,-66.35104181,-175.74162911,65.13235467,29.03855135
15.94700648,20.98990514,-2.86637051,0.33081905,1.40331949

>  <Name>
ligand

>  <RI>
0

>  <Rbt.Current_Directory>
/home/itssahil/PROJECTS/Mol_Feturizer/New_Systems/rnas/3DJ2

>  <Rbt.Executable>
rbdock ($Id: //depot/dev/client3/rdock/2013.1/src/exe/rbdock.cxx#4 $)

>  <Rbt.Library>
libRbt.so (2013.1, Build901 2013/11/27)

>  <Rbt.Parameter_File>
/export/apps/rDock/src/rDock_2013.1_src/data/scripts/dock_solv.prm

>  <Rbt.Receptor>
prm/pocket_docking_5.prm

>  <SCORE>
-9.7471

>  <SCORE.INTER>
-9.12424

>  <SCORE.INTER.CONST>
1

>  <SCORE.INTER.POLAR>
0

>  <SCORE.INTER.ROT>
5

>  <SCORE.INTER.SOLV>
12.38

>  <SCORE.INTER.VDW>
-17.1428

>  <SCORE.INTER.norm>
-0.912424

>  <SCORE.INTRA>
-0.622857

>  <SCORE.INTRA.DIHEDRAL>
-2.09084

>  <SCORE.INTRA.DIHEDRAL.0>
4.28128

>  <SCORE.INTRA.POLAR>
0

>  <SCORE.INTRA.POLAR.0>
0

>  <SCORE.INTRA.REPUL>
0

>  <SCORE.INTRA.REPUL.0>
0

>  <SCORE.INTRA.SOLV>
0.787877

>  <SCORE.INTRA.SOLV.lig_0>
-32.3374

>  <SCORE.INTRA.VDW>
0.0286228

>  <SCORE.INTRA.VDW.0>
-0.659551

>  <SCORE.INTRA.norm>
-0.0622857

>  <SCORE.RESTR>
0

>  <SCORE.RESTR.CAVITY>
0

>  <SCORE.RESTR.norm>
0

>  <SCORE.SYSTEM>
0

>  <SCORE.SYSTEM.CONST>
0

>  <SCORE.SYSTEM.DIHEDRAL>
0

>  <SCORE.SYSTEM.SOLV>
0

>  <SCORE.SYSTEM.norm>
0

>  <SCORE.heavy>
10

>  <SCORE.norm>
-0.97471

>  <RMSD>
5.435

$$$$
ligand
 OpenBabel11021811473D
libRbt.so/2013.1/901 2013/11/27
 10  9  0  0  0  0  0  0  0  0999 V2000
   28.6138   14.5401   19.2637 N   0  0  0  0  0  0  0  0  0  0  0  0
   28.2621   15.2148   20.5445 C   0  0  2  0  0  0  0  0  0  0  0  0
   26.7656   15.1340   20.8466 C   0  0  0  0  0  0  0  0  0  0  0  0
   26.3403   14.7916   21.9547 O   0  0  0  0  0  0  0  0  0  0  0  0
   28.7479   16.6666   20.5462 C   0  0  0  0  0  0  0  0  0  0  0  0
   30.2611   16.8197   20.6248 C   0  0  0  0  0  0  0  0  0  0  0  0
   30.7995   16.2924   21.9546 C   0  0  0  0  0  0  0  0  0  0  0  0
   32.2962   16.5441   22.0993 C   0  0  0  0  0  0  0  0  0  0  0  0
   32.6327   17.9961   22.1755 N   0  0  0  0  0  0  0  0  0  0  0  0
   25.9384   15.4350   19.9887 O   0  0  0  0  0  0  0  0  0  0  0  0
  2  1  1  6  0  0  0
  2  3  1  0  0  0  0
  2  5  1  0  0  0  0
  3  4  1  0  0  0  0
  3 10  1  0  0  0  0
  5  6  1  0  0  0  0
  6  7  1  0  0  0  0
  7  8  1  0  0  0  0
  8  9  1  0  0  0  0
M  END
>  <CHROM.1>
132.15165857,-70.05856093,-64.78588852,-175.21471479,65.47372617,29.02210278
15.93691150,21.00460742,-2.85077622,0.32029879,1.37498541

>  <Name>
ligand

>  <RI>
0

>  <Rbt.Current_Directory>
/home/itssahil/PROJECTS/Mol_Feturizer/New_Systems/rnas/3DJ2

>  <Rbt.Executable>
rbdock ($Id: //depot/dev/client3/rdock/2013.1/src/exe/rbdock.cxx#4 $)

>  <Rbt.Library>
libRbt.so (2013.1, Build901 2013/11/27)

>  <Rbt.Parameter_File>
/export/apps/rDock/src/rDock_2013.1_src/data/scripts/dock_solv.prm

>  <Rbt.Receptor>
prm/pocket_docking_6.prm

>  <SCORE>
-9.7343

>  <SCORE.INTER>
-9.14174

>  <SCORE.INTER.CONST>
1

>  <SCORE.INTER.POLAR>
0

>  <SCORE.INTER.ROT>
5

>  <SCORE.INTER.SOLV>
12.3262

>  <SCORE.INTER.VDW>
-17.1366

>  <SCORE.INTER.norm>
-0.914174

>  <SCORE.INTRA>
-0.592553

>  <SCORE.INTRA.DIHEDRAL>
-2.06706

>  <SCORE.INTRA.DIHEDRAL.0>
4.28128

>  <SCORE.INTRA.POLAR>
0

>  <SCORE.INTRA.POLAR.0>
0

>  <SCORE.INTRA.REPUL>
0

>  <SCORE.INTRA.REPUL.0>
0

>  <SCORE.INTRA.SOLV>
0.788669

>  <SCORE.INTRA.SOLV.lig_0>
-32.3374

>  <SCORE.INTRA.VDW>
0.0466438

>  <SCORE.INTRA.VDW.0>
-0.659551

>  <SCORE.INTRA.norm>
-0.0592553

>  <SCORE.RESTR>
0

>  <SCORE.RESTR.CAVITY>
0

>  <SCORE.RESTR.norm>
0

>  <SCORE.SYSTEM>
0

>  <SCORE.SYSTEM.CONST>
0

>  <SCORE.SYSTEM.DIHEDRAL>
0

>  <SCORE.SYSTEM.SOLV>
0

>  <SCORE.SYSTEM.norm>
0

>  <SCORE.heavy>
10

>  <SCORE.norm>
-0.97343

>  <RMSD>
5.435

$$$$
ligand
 OpenBabel11021811473D
libRbt.so/2013.1/901 2013/11/27
 10  9  0  0  0  0  0  0  0  0999 V2000
   27.1075   13.7794   18.6553 N   0  0  0  0  0  0  0  0  0  0  0  0
   27.6888   14.6684   19.6998 C   0  0  2  0  0  0  0  0  0  0  0  0
   26.7427   14.8604   20.8852 C   0  0  0  0  0  0  0  0  0  0  0  0
   25.5231   14.9861   20.7342 O   0  0  0  0  0  0  0  0  0  0  0  0
   28.1024   16.0148   19.0999 C   0  0  0  0  0  0  0  0  0  0  0  0
   28.7446   16.9722   20.0951 C   0  0  0  0  0  0  0  0  0  0  0  0
   30.0935   16.4405   20.5787 C   0  0  0  0  0  0  0  0  0  0  0  0
   30.7435   17.3800   21.5883 C   0  0  0  0  0  0  0  0  0  0  0  0
   32.0919   16.9135   22.0260 N   0  0  0  0  0  0  0  0  0  0  0  0
   27.1768   14.8706   22.0351 O   0  0  0  0  0  0  0  0  0  0  0  0
  2  1  1  6  0  0  0
  2  3  1  0  0  0  0
  2  5  1  0  0  0  0
  3  4  1  0  0  0  0
  3 10  1  0  0  0  0
  5  6  1  0  0  0  0
  6  7  1  0  0  0  0
  7  8  1  0  0  0  0
  8  9  1  0  0  0  0
M  END
>  <CHROM.1>
-39.12659583,-178.35204281,66.48052207,-179.36184983,-177.27117011,28.37258041
15.68655507,20.56447599,-2.82756085,0.45254430,1.43259603

>  <Name>
ligand

>  <RI>
0

>  <Rbt.Current_Directory>
/home/itssahil/PROJECTS/Mol_Feturizer/New_Systems/rnas/3DJ2

>  <Rbt.Executable>
rbdock ($Id: //depot/dev/client3/rdock/2013.1/src/exe/rbdock.cxx#4 $)

>  <Rbt.Library>
libRbt.so (2013.1, Build901 2013/11/27)

>  <Rbt.Parameter_File>
/export/apps/rDock/src/rDock_2013.1_src/data/scripts/dock_solv.prm

>  <Rbt.Receptor>
prm/pocket_docking_6.prm

>  <SCORE>
-11.0973

>  <SCORE.INTER>
-9.25797

>  <SCORE.INTER.CONST>
1

>  <SCORE.INTER.POLAR>
0

>  <SCORE.INTER.ROT>
5

>  <SCORE.INTER.SOLV>
15.7007

>  <SCORE.INTER.VDW>
-18.3389

>  <SCORE.INTER.norm>
-0.925797

>  <SCORE.INTRA>
-1.83938

>  <SCORE.INTRA.DIHEDRAL>
-2.50529

>  <SCORE.INTRA.DIHEDRAL.0>
4.28128

>  <SCORE.INTRA.POLAR>
0

>  <SCORE.INTRA.POLAR.0>
0

>  <SCORE.INTRA.REPUL>
0

>  <SCORE.INTRA.REPUL.0>
0

>  <SCORE.INTRA.SOLV>
-1.11116

>  <SCORE.INTRA.SOLV.lig_0>
-32.3374

>  <SCORE.INTRA.VDW>
-0.0311551

>  <SCORE.INTRA.VDW.0>
-0.659551

>  <SCORE.INTRA.norm>
-0.183938

>  <SCORE.RESTR>
0

>  <SCORE.RESTR.CAVITY>
0

>  <SCORE.RESTR.norm>
0

>  <SCORE.SYSTEM>
0

>  <SCORE.SYSTEM.CONST>
0

>  <SCORE.SYSTEM.DIHEDRAL>
0

>  <SCORE.SYSTEM.SOLV>
0

>  <SCORE.SYSTEM.norm>
0

>  <SCORE.heavy>
10

>  <SCORE.norm>
-1.10973

>  <RMSD>
5.436

$$$$
ligand
 OpenBabel11021811473D
libRbt.so/2013.1/901 2013/11/27
 10  9  0  0  0  0  0  0  0  0999 V2000
   26.4260   14.5514   20.4827 N   0  0  0  0  0  0  0  0  0  0  0  0
   27.4937   15.2542   19.7175 C   0  0  2  0  0  0  0  0  0  0  0  0
   27.5764   14.7730   18.2688 C   0  0  0  0  0  0  0  0  0  0  0  0
   28.1822   15.4112   17.4019 O   0  0  0  0  0  0  0  0  0  0  0  0
   28.8463   15.1200   20.4219 C   0  0  0  0  0  0  0  0  0  0  0  0
   28.8592   15.6362   21.8547 C   0  0  0  0  0  0  0  0  0  0  0  0
   30.2759   15.6323   22.4285 C   0  0  0  0  0  0  0  0  0  0  0  0
   31.0969   16.8110   21.9177 C   0  0  0  0  0  0  0  0  0  0  0  0
   31.3590   16.7393   20.4503 N   0  0  0  0  0  0  0  0  0  0  0  0
   27.0546   13.7121   17.9326 O   0  0  0  0  0  0  0  0  0  0  0  0
  2  1  1  1  0  0  0
  2  3  1  0  0  0  0
  2  5  1  0  0  0  0
  3  4  1  0  0  0  0
  3 10  1  0  0  0  0
  5  6  1  0  0  0  0
  6  7  1  0  0  0  0
  7  8  1  0  0  0  0
  8  9  1  0  0  0  0
M  END
>  <CHROM.1>
164.18260512,-57.07463725,-172.82951451,77.84941766,-65.87977486,28.71128741
15.35076760,20.04849286,2.41181293,-0.48021541,-1.57976292

>  <Name>
ligand

>  <RI>
0

>  <Rbt.Current_Directory>
/home/itssahil/PROJECTS/Mol_Feturizer/New_Systems/rnas/3DJ2

>  <Rbt.Executable>
rbdock ($Id: //depot/dev/client3/rdock/2013.1/src/exe/rbdock.cxx#4 $)

>  <Rbt.Library>
libRbt.so (2013.1, Build901 2013/11/27)

>  <Rbt.Parameter_File>
/export/apps/rDock/src/rDock_2013.1_src/data/scripts/dock_solv.prm

>  <Rbt.Receptor>
prm/pocket_docking_8.prm

>  <SCORE>
-8.20979

>  <SCORE.INTER>
-8.95292

>  <SCORE.INTER.CONST>
1

>  <SCORE.INTER.POLAR>
0

>  <SCORE.INTER.ROT>
5

>  <SCORE.INTER.SOLV>
15.1404

>  <SCORE.INTER.VDW>
-17.9487

>  <SCORE.INTER.norm>
-0.895292

>  <SCORE.INTRA>
0.743133

>  <SCORE.INTRA.DIHEDRAL>
-1.18492

>  <SCORE.INTRA.DIHEDRAL.0>
4.28128

>  <SCORE.INTRA.POLAR>
0

>  <SCORE.INTRA.POLAR.0>
0

>  <SCORE.INTRA.REPUL>
0

>  <SCORE.INTRA.REPUL.0>
0

>  <SCORE.INTRA.SOLV>
1.88013

>  <SCORE.INTRA.SOLV.lig_0>
-32.3374

>  <SCORE.INTRA.VDW>
0.395528

>  <SCORE.INTRA.VDW.0>
-0.659551

>  <SCORE.INTRA.norm>
0.0743133

>  <SCORE.RESTR>
0

>  <SCORE.RESTR.CAVITY>
0

>  <SCORE.RESTR.norm>
0

>  <SCORE.SYSTEM>
0

>  <SCORE.SYSTEM.CONST>
0

>  <SCORE.SYSTEM.DIHEDRAL>
0

>  <SCORE.SYSTEM.SOLV>
0

>  <SCORE.SYSTEM.norm>
0

>  <SCORE.heavy>
10

>  <SCORE.norm>
-0.820979

>  <RMSD>
5.437

$$$$
ligand
 OpenBabel11021811473D
libRbt.so/2013.1/901 2013/11/27
 10  9  0  0  0  0  0  0  0  0999 V2000
   27.0957   13.7671   18.6347 N   0  0  0  0  0  0  0  0  0  0  0  0
   27.6895   14.6482   19.6788 C   0  0  2  0  0  0  0  0  0  0  0  0
   26.7429   14.8606   20.8604 C   0  0  0  0  0  0  0  0  0  0  0  0
   27.1492   14.8868   22.0266 O   0  0  0  0  0  0  0  0  0  0  0  0
   28.1295   15.9853   19.0768 C   0  0  0  0  0  0  0  0  0  0  0  0
   28.7539   16.9472   20.0790 C   0  0  0  0  0  0  0  0  0  0  0  0
   30.0946   16.4184   20.5879 C   0  0  0  0  0  0  0  0  0  0  0  0
   30.7359   17.3720   21.5898 C   0  0  0  0  0  0  0  0  0  0  0  0
   32.1009   16.9373   22.0083 N   0  0  0  0  0  0  0  0  0  0  0  0
   25.5408   15.0365   20.6735 O   0  0  0  0  0  0  0  0  0  0  0  0
  2  1  1  6  0  0  0
  2  3  1  0  0  0  0
  2  5  1  0  0  0  0
  3  4  1  0  0  0  0
  3 10  1  0  0  0  0
  5  6  1  0  0  0  0
  6  7  1  0  0  0  0
  7  8  1  0  0  0  0
  8  9  1  0  0  0  0
M  END
>  <CHROM.1>
140.43781772,-179.80689359,67.25445670,179.82969786,-174.86737648,28.37420584
15.68498640,20.54597462,-2.81021735,0.44299099,1.40796989

>  <Name>
ligand

>  <RI>
0

>  <Rbt.Current_Directory>
/home/itssahil/PROJECTS/Mol_Feturizer/New_Systems/rnas/3DJ2

>  <Rbt.Executable>
rbdock ($Id: //depot/dev/client3/rdock/2013.1/src/exe/rbdock.cxx#4 $)

>  <Rbt.Library>
libRbt.so (2013.1, Build901 2013/11/27)

>  <Rbt.Parameter_File>
/export/apps/rDock/src/rDock_2013.1_src/data/scripts/dock_solv.prm

>  <Rbt.Receptor>
prm/pocket_docking_3.prm

>  <SCORE>
-11.1505

>  <SCORE.INTER>
-9.34518

>  <SCORE.INTER.CONST>
1

>  <SCORE.INTER.POLAR>
0

>  <SCORE.INTER.ROT>
5

>  <SCORE.INTER.SOLV>
15.674

>  <SCORE.INTER.VDW>
-18.3881

>  <SCORE.INTER.norm>
-0.934518

>  <SCORE.INTRA>
-1.80531

>  <SCORE.INTRA.DIHEDRAL>
-2.48112

>  <SCORE.INTRA.DIHEDRAL.0>
4.28128

>  <SCORE.INTRA.POLAR>
0

>  <SCORE.INTRA.POLAR.0>
0

>  <SCORE.INTRA.REPUL>
0

>  <SCORE.INTRA.REPUL.0>
0

>  <SCORE.INTRA.SOLV>
-1.12493

>  <SCORE.INTRA.SOLV.lig_0>
-32.3374

>  <SCORE.INTRA.VDW>
-0.00228431

>  <SCORE.INTRA.VDW.0>
-0.659551

>  <SCORE.INTRA.norm>
-0.180531

>  <SCORE.RESTR>
0

>  <SCORE.RESTR.CAVITY>
0

>  <SCORE.RESTR.norm>
0

>  <SCORE.SYSTEM>
0

>  <SCORE.SYSTEM.CONST>
0

>  <SCORE.SYSTEM.DIHEDRAL>
0

>  <SCORE.SYSTEM.SOLV>
0

>  <SCORE.SYSTEM.norm>
0

>  <SCORE.heavy>
10

>  <SCORE.norm>
-1.11505

>  <RMSD>
5.438

$$$$
ligand
 OpenBabel11021811473D
libRbt.so/2013.1/901 2013/11/27
 10  9  0  0  0  0  0  0  0  0999 V2000
   27.0948   13.7607   18.6404 N   0  0  0  0  0  0  0  0  0  0  0  0
   27.6870   14.6463   19.6818 C   0  0  2  0  0  0  0  0  0  0  0  0
   26.7418   14.8571   20.8647 C   0  0  0  0  0  0  0  0  0  0  0  0
   27.1500   14.8859   22.0302 O   0  0  0  0  0  0  0  0  0  0  0  0
   28.1205   15.9839   19.0764 C   0  0  0  0  0  0  0  0  0  0  0  0
   28.7631   16.9416   20.0710 C   0  0  0  0  0  0  0  0  0  0  0  0
   30.1077   16.4056   20.5616 C   0  0  0  0  0  0  0  0  0  0  0  0
   30.7557   17.3433   21.5742 C   0  0  0  0  0  0  0  0  0  0  0  0
   32.1080   16.8820   22.0052 N   0  0  0  0  0  0  0  0  0  0  0  0
   25.5388   15.0291   20.6796 O   0  0  0  0  0  0  0  0  0  0  0  0
  2  1  1  6  0  0  0
  2  3  1  0  0  0  0
  2  5  1  0  0  0  0
  3  4  1  0  0  0  0
  3 10  1  0  0  0  0
  5  6  1  0  0  0  0
  6  7  1  0  0  0  0
  7  8  1  0  0  0  0
  8  9  1  0  0  0  0
M  END
>  <CHROM.1>
140.36637368,-178.88331019,67.01004083,-179.17687227,-176.50338715,28.37766757
15.67261524,20.54297228,-2.81864034,0.43896769,1.41630669

>  <Name>
ligand

>  <RI>
0

>  <Rbt.Current_Directory>
/home/itssahil/PROJECTS/Mol_Feturizer/New_Systems/rnas/3DJ2

>  <Rbt.Executable>
rbdock ($Id: //depot/dev/client3/rdock/2013.1/src/exe/rbdock.cxx#4 $)

>  <Rbt.Library>
libRbt.so (2013.1, Build901 2013/11/27)

>  <Rbt.Parameter_File>
/export/apps/rDock/src/rDock_2013.1_src/data/scripts/dock_solv.prm

>  <Rbt.Receptor>
prm/pocket_docking_5.prm

>  <SCORE>
-11.1646

>  <SCORE.INTER>
-9.31606

>  <SCORE.INTER.CONST>
1

>  <SCORE.INTER.POLAR>
0

>  <SCORE.INTER.ROT>
5

>  <SCORE.INTER.SOLV>
15.7598

>  <SCORE.INTER.VDW>
-18.3973

>  <SCORE.INTER.norm>
-0.931606

>  <SCORE.INTRA>
-1.84851

>  <SCORE.INTRA.DIHEDRAL>
-2.54323

>  <SCORE.INTRA.DIHEDRAL.0>
4.28128

>  <SCORE.INTRA.POLAR>
0

>  <SCORE.INTRA.POLAR.0>
0

>  <SCORE.INTRA.REPUL>
0

>  <SCORE.INTRA.REPUL.0>
0

>  <SCORE.INTRA.SOLV>
-1.11896

>  <SCORE.INTRA.SOLV.lig_0>
-32.3374

>  <SCORE.INTRA.VDW>
-0.0174134

>  <SCORE.INTRA.VDW.0>
-0.659551

>  <SCORE.INTRA.norm>
-0.184851

>  <SCORE.RESTR>
0

>  <SCORE.RESTR.CAVITY>
0

>  <SCORE.RESTR.norm>
0

>  <SCORE.SYSTEM>
0

>  <SCORE.SYSTEM.CONST>
0

>  <SCORE.SYSTEM.DIHEDRAL>
0

>  <SCORE.SYSTEM.SOLV>
0

>  <SCORE.SYSTEM.norm>
0

>  <SCORE.heavy>
10

>  <SCORE.norm>
-1.11646

>  <RMSD>
5.438

$$$$
ligand
 OpenBabel11021811473D
libRbt.so/2013.1/901 2013/11/27
 10  9  0  0  0  0  0  0  0  0999 V2000
   28.5843   14.4527   19.0639 N   0  0  0  0  0  0  0  0  0  0  0  0
   28.0655   14.3317   20.4551 C   0  0  2  0  0  0  0  0  0  0  0  0
   26.7743   15.1242   20.6598 C   0  0  0  0  0  0  0  0  0  0  0  0
   26.4982   16.1125   19.9722 O   0  0  0  0  0  0  0  0  0  0  0  0
   29.1332   14.7437   21.4719 C   0  0  0  0  0  0  0  0  0  0  0  0
   29.6378   16.1710   21.3055 C   0  0  0  0  0  0  0  0  0  0  0  0
   30.8717   16.4233   22.1715 C   0  0  0  0  0  0  0  0  0  0  0  0
   31.4396   17.8214   21.9543 C   0  0  0  0  0  0  0  0  0  0  0  0
   32.7398   18.0318   22.6560 N   0  0  0  0  0  0  0  0  0  0  0  0
   25.9572   14.7774   21.5101 O   0  0  0  0  0  0  0  0  0  0  0  0
  2  1  1  6  0  0  0
  2  3  1  0  0  0  0
  2  5  1  0  0  0  0
  3  4  1  0  0  0  0
  3 10  1  0  0  0  0
  5  6  1  0  0  0  0
  6  7  1  0  0  0  0
  7  8  1  0  0  0  0
  8  9  1  0  0  0  0
M  END
>  <CHROM.1>
-25.99011215,58.94698460,-169.32764424,176.59291090,-172.75199599,28.93084501
15.80905217,21.12282425,-2.58843514,0.07312834,0.73325203

>  <Name>
ligand

>  <RI>
0

>  <Rbt.Current_Directory>
/home/itssahil/PROJECTS/Mol_Feturizer/New_Systems/rnas/3DJ2

>  <Rbt.Executable>
rbdock ($Id: //depot/dev/client3/rdock/2013.1/src/exe/rbdock.cxx#4 $)

>  <Rbt.Library>
libRbt.so (2013.1, Build901 2013/11/27)

>  <Rbt.Parameter_File>
/export/apps/rDock/src/rDock_2013.1_src/data/scripts/dock_solv.prm

>  <Rbt.Receptor>
prm/blind_docking_100.prm

>  <SCORE>
-9.92234

>  <SCORE.INTER>
-8.61352

>  <SCORE.INTER.CONST>
1

>  <SCORE.INTER.POLAR>
0

>  <SCORE.INTER.ROT>
5

>  <SCORE.INTER.SOLV>
14.1805

>  <SCORE.INTER.VDW>
-17.4025

>  <SCORE.INTER.norm>
-0.861352

>  <SCORE.INTRA>
-1.30882

>  <SCORE.INTRA.DIHEDRAL>
-1.99153

>  <SCORE.INTRA.DIHEDRAL.0>
4.28128

>  <SCORE.INTRA.POLAR>
0

>  <SCORE.INTRA.POLAR.0>
0

>  <SCORE.INTRA.REPUL>
0

>  <SCORE.INTRA.REPUL.0>
0

>  <SCORE.INTRA.SOLV>
-0.372299

>  <SCORE.INTRA.SOLV.lig_0>
-32.3374

>  <SCORE.INTRA.VDW>
-0.126902

>  <SCORE.INTRA.VDW.0>
-0.659551

>  <SCORE.INTRA.norm>
-0.130882

>  <SCORE.RESTR>
0

>  <SCORE.RESTR.CAVITY>
0

>  <SCORE.RESTR.norm>
0

>  <SCORE.SYSTEM>
0

>  <SCORE.SYSTEM.CONST>
0

>  <SCORE.SYSTEM.DIHEDRAL>
0

>  <SCORE.SYSTEM.SOLV>
0

>  <SCORE.SYSTEM.norm>
0

>  <SCORE.heavy>
10

>  <SCORE.norm>
-0.992234

>  <RMSD>
5.439

$$$$
ligand
 OpenBabel11021811473D
libRbt.so/2013.1/901 2013/11/27
 10  9  0  0  0  0  0  0  0  0999 V2000
   27.8725   14.6356   18.6969 N   0  0  0  0  0  0  0  0  0  0  0  0
   28.0858   14.6634   20.1711 C   0  0  2  0  0  0  0  0  0  0  0  0
   26.7952   14.9608   20.9347 C   0  0  0  0  0  0  0  0  0  0  0  0
   26.7322   14.8847   22.1660 O   0  0  0  0  0  0  0  0  0  0  0  0
   29.1888   15.6578   20.5428 C   0  0  0  0  0  0  0  0  0  0  0  0
   29.6300   15.5871   21.9987 C   0  0  0  0  0  0  0  0  0  0  0  0
   30.6331   16.6934   22.3244 C   0  0  0  0  0  0  0  0  0  0  0  0
   31.9525   16.4967   21.5862 C   0  0  0  0  0  0  0  0  0  0  0  0
   32.9365   17.5841   21.8630 N   0  0  0  0  0  0  0  0  0  0  0  0
   25.7812   15.3108   20.3345 O   0  0  0  0  0  0  0  0  0  0  0  0
  2  1  1  6  0  0  0
  2  3  1  0  0  0  0
  2  5  1  0  0  0  0
  3  4  1  0  0  0  0
  3 10  1  0  0  0  0
  5  6  1  0  0  0  0
  6  7  1  0  0  0  0
  7  8  1  0  0  0  0
  8  9  1  0  0  0  0
M  END
>  <CHROM.1>
172.05562771,-170.52037037,-174.60831030,-66.88768733,178.58996099,28.92193938
15.64877575,21.07549653,-2.82415515,0.30036844,1.34228796

>  <Name>
ligand

>  <RI>
0

>  <Rbt.Current_Directory>
/home/itssahil/PROJECTS/Mol_Feturizer/New_Systems/rnas/3DJ2

>  <Rbt.Executable>
rbdock ($Id: //depot/dev/client3/rdock/2013.1/src/exe/rbdock.cxx#4 $)

>  <Rbt.Library>
libRbt.so (2013.1, Build901 2013/11/27)

>  <Rbt.Parameter_File>
/export/apps/rDock/src/rDock_2013.1_src/data/scripts/dock_solv.prm

>  <Rbt.Receptor>
prm/pocket_docking_6.prm

>  <SCORE>
-10.212

>  <SCORE.INTER>
-9.37277

>  <SCORE.INTER.CONST>
1

>  <SCORE.INTER.POLAR>
0

>  <SCORE.INTER.ROT>
5

>  <SCORE.INTER.SOLV>
13.8594

>  <SCORE.INTER.VDW>
-17.8016

>  <SCORE.INTER.norm>
-0.937277

>  <SCORE.INTRA>
-0.839281

>  <SCORE.INTRA.DIHEDRAL>
-2.1341

>  <SCORE.INTRA.DIHEDRAL.0>
4.28128

>  <SCORE.INTRA.POLAR>
0

>  <SCORE.INTRA.POLAR.0>
0

>  <SCORE.INTRA.REPUL>
0

>  <SCORE.INTRA.REPUL.0>
0

>  <SCORE.INTRA.SOLV>
-1.07609

>  <SCORE.INTRA.SOLV.lig_0>
-32.3374

>  <SCORE.INTRA.VDW>
0.765816

>  <SCORE.INTRA.VDW.0>
-0.659551

>  <SCORE.INTRA.norm>
-0.0839281

>  <SCORE.RESTR>
0

>  <SCORE.RESTR.CAVITY>
0

>  <SCORE.RESTR.norm>
0

>  <SCORE.SYSTEM>
0

>  <SCORE.SYSTEM.CONST>
0

>  <SCORE.SYSTEM.DIHEDRAL>
0

>  <SCORE.SYSTEM.SOLV>
0

>  <SCORE.SYSTEM.norm>
0

>  <SCORE.heavy>
10

>  <SCORE.norm>
-1.0212

>  <RMSD>
5.440

$$$$
ligand
 OpenBabel11021811473D
libRbt.so/2013.1/901 2013/11/27
 10  9  0  0  0  0  0  0  0  0999 V2000
   28.7384   14.1866   22.1002 N   0  0  0  0  0  0  0  0  0  0  0  0
   28.3237   15.4246   21.3827 C   0  0  2  0  0  0  0  0  0  0  0  0
   26.8837   15.3422   20.8760 C   0  0  0  0  0  0  0  0  0  0  0  0
   26.0335   14.6413   21.4344 O   0  0  0  0  0  0  0  0  0  0  0  0
   29.2932   15.7428   20.2414 C   0  0  0  0  0  0  0  0  0  0  0  0
   30.7574   15.7852   20.6581 C   0  0  0  0  0  0  0  0  0  0  0  0
   31.0242   16.9467   21.6150 C   0  0  0  0  0  0  0  0  0  0  0  0
   32.4844   16.9976   22.0505 C   0  0  0  0  0  0  0  0  0  0  0  0
   33.4212   17.2014   20.9066 N   0  0  0  0  0  0  0  0  0  0  0  0
   26.5265   15.9998   19.9008 O   0  0  0  0  0  0  0  0  0  0  0  0
  2  1  1  6  0  0  0
  2  3  1  0  0  0  0
  2  5  1  0  0  0  0
  3  4  1  0  0  0  0
  3 10  1  0  0  0  0
  5  6  1  0  0  0  0
  6  7  1  0  0  0  0
  7  8  1  0  0  0  0
  8  9  1  0  0  0  0
M  END
>  <CHROM.1>
27.49995239,-52.20314714,-65.98605876,179.58108536,61.37545936,29.30487488
15.82249257,21.10544836,-3.00302760,-0.27689748,-0.86640113

>  <Name>
ligand

>  <RI>
0

>  <Rbt.Current_Directory>
/home/itssahil/PROJECTS/Mol_Feturizer/New_Systems/rnas/3DJ2

>  <Rbt.Executable>
rbdock ($Id: //depot/dev/client3/rdock/2013.1/src/exe/rbdock.cxx#4 $)

>  <Rbt.Library>
libRbt.so (2013.1, Build901 2013/11/27)

>  <Rbt.Parameter_File>
/export/apps/rDock/src/rDock_2013.1_src/data/scripts/dock_solv.prm

>  <Rbt.Receptor>
prm/pocket_docking_8.prm

>  <SCORE>
-8.04898

>  <SCORE.INTER>
-8.22039

>  <SCORE.INTER.CONST>
1

>  <SCORE.INTER.POLAR>
0

>  <SCORE.INTER.ROT>
5

>  <SCORE.INTER.SOLV>
17.1445

>  <SCORE.INTER.VDW>
-18.1284

>  <SCORE.INTER.norm>
-0.822039

>  <SCORE.INTRA>
0.17141

>  <SCORE.INTRA.DIHEDRAL>
-2.43322

>  <SCORE.INTRA.DIHEDRAL.0>
4.28128

>  <SCORE.INTRA.POLAR>
0

>  <SCORE.INTRA.POLAR.0>
0

>  <SCORE.INTRA.REPUL>
0

>  <SCORE.INTRA.REPUL.0>
0

>  <SCORE.INTRA.SOLV>
1.16931

>  <SCORE.INTRA.SOLV.lig_0>
-32.3374

>  <SCORE.INTRA.VDW>
0.803363

>  <SCORE.INTRA.VDW.0>
-0.659551

>  <SCORE.INTRA.norm>
0.017141

>  <SCORE.RESTR>
0

>  <SCORE.RESTR.CAVITY>
0

>  <SCORE.RESTR.norm>
0

>  <SCORE.SYSTEM>
0

>  <SCORE.SYSTEM.CONST>
0

>  <SCORE.SYSTEM.DIHEDRAL>
0

>  <SCORE.SYSTEM.SOLV>
0

>  <SCORE.SYSTEM.norm>
0

>  <SCORE.heavy>
10

>  <SCORE.norm>
-0.804898

>  <RMSD>
5.440

$$$$
ligand
 OpenBabel11021811473D
libRbt.so/2013.1/901 2013/11/27
 10  9  0  0  0  0  0  0  0  0999 V2000
   27.8744   14.6288   18.7355 N   0  0  0  0  0  0  0  0  0  0  0  0
   28.0863   14.6656   20.2097 C   0  0  2  0  0  0  0  0  0  0  0  0
   26.7930   14.9572   20.9709 C   0  0  0  0  0  0  0  0  0  0  0  0
   26.7380   14.9194   22.2043 O   0  0  0  0  0  0  0  0  0  0  0  0
   29.1816   15.6701   20.5772 C   0  0  0  0  0  0  0  0  0  0  0  0
   29.6384   15.5945   22.0280 C   0  0  0  0  0  0  0  0  0  0  0  0
   30.6537   16.6925   22.3436 C   0  0  0  0  0  0  0  0  0  0  0  0
   31.9609   16.4898   21.5856 C   0  0  0  0  0  0  0  0  0  0  0  0
   32.9516   17.5760   21.8425 N   0  0  0  0  0  0  0  0  0  0  0  0
   25.7680   15.2639   20.3656 O   0  0  0  0  0  0  0  0  0  0  0  0
  2  1  1  6  0  0  0
  2  3  1  0  0  0  0
  2  5  1  0  0  0  0
  3  4  1  0  0  0  0
  3 10  1  0  0  0  0
  5  6  1  0  0  0  0
  6  7  1  0  0  0  0
  7  8  1  0  0  0  0
  8  9  1  0  0  0  0
M  END
>  <CHROM.1>
173.89450895,-169.56586419,-175.77022371,-66.62083394,178.05252518,28.92563807
15.64700284,21.09997059,-2.83062863,0.30017887,1.33867767

>  <Name>
ligand

>  <RI>
0

>  <Rbt.Current_Directory>
/home/itssahil/PROJECTS/Mol_Feturizer/New_Systems/rnas/3DJ2

>  <Rbt.Executable>
rbdock ($Id: //depot/dev/client3/rdock/2013.1/src/exe/rbdock.cxx#4 $)

>  <Rbt.Library>
libRbt.so (2013.1, Build901 2013/11/27)

>  <Rbt.Parameter_File>
/export/apps/rDock/src/rDock_2013.1_src/data/scripts/dock_solv.prm

>  <Rbt.Receptor>
prm/pocket_docking_3.prm

>  <SCORE>
-10.2142

>  <SCORE.INTER>
-9.40537

>  <SCORE.INTER.CONST>
1

>  <SCORE.INTER.POLAR>
0

>  <SCORE.INTER.ROT>
5

>  <SCORE.INTER.SOLV>
13.8245

>  <SCORE.INTER.VDW>
-17.8118

>  <SCORE.INTER.norm>
-0.940537

>  <SCORE.INTRA>
-0.808833

>  <SCORE.INTRA.DIHEDRAL>
-2.11535

>  <SCORE.INTRA.DIHEDRAL.0>
4.28128

>  <SCORE.INTRA.POLAR>
0

>  <SCORE.INTRA.POLAR.0>
0

>  <SCORE.INTRA.REPUL>
0

>  <SCORE.INTRA.REPUL.0>
0

>  <SCORE.INTRA.SOLV>
-1.06922

>  <SCORE.INTRA.SOLV.lig_0>
-32.3374

>  <SCORE.INTRA.VDW>
0.783455

>  <SCORE.INTRA.VDW.0>
-0.659551

>  <SCORE.INTRA.norm>
-0.0808833

>  <SCORE.RESTR>
0

>  <SCORE.RESTR.CAVITY>
0

>  <SCORE.RESTR.norm>
0

>  <SCORE.SYSTEM>
0

>  <SCORE.SYSTEM.CONST>
0

>  <SCORE.SYSTEM.DIHEDRAL>
0

>  <SCORE.SYSTEM.SOLV>
0

>  <SCORE.SYSTEM.norm>
0

>  <SCORE.heavy>
10

>  <SCORE.norm>
-1.02142

>  <RMSD>
5.441

$$$$
ligand
 OpenBabel11021811473D
libRbt.so/2013.1/901 2013/11/27
 10  9  0  0  0  0  0  0  0  0999 V2000
   27.0974   13.7597   18.6445 N   0  0  0  0  0  0  0  0  0  0  0  0
   27.6889   14.6400   19.6907 C   0  0  2  0  0  0  0  0  0  0  0  0
   26.7418   14.8470   20.8728 C   0  0  0  0  0  0  0  0  0  0  0  0
   25.5259   14.9993   20.7171 O   0  0  0  0  0  0  0  0  0  0  0  0
   28.1252   15.9797   19.0917 C   0  0  0  0  0  0  0  0  0  0  0  0
   28.7501   16.9396   20.0954 C   0  0  0  0  0  0  0  0  0  0  0  0
   30.1059   16.4254   20.5786 C   0  0  0  0  0  0  0  0  0  0  0  0
   30.7437   17.3728   21.5885 C   0  0  0  0  0  0  0  0  0  0  0  0
   32.1126   16.9428   21.9989 N   0  0  0  0  0  0  0  0  0  0  0  0
   27.1710   14.8430   22.0247 O   0  0  0  0  0  0  0  0  0  0  0  0
  2  1  1  6  0  0  0
  2  3  1  0  0  0  0
  2  5  1  0  0  0  0
  3  4  1  0  0  0  0
  3 10  1  0  0  0  0
  5  6  1  0  0  0  0
  6  7  1  0  0  0  0
  7  8  1  0  0  0  0
  8  9  1  0  0  0  0
M  END
>  <CHROM.1>
-39.56452150,-179.66331203,68.39119620,-179.79858988,-175.77264881,28.37728182
15.67315801,20.55495211,-2.82060714,0.44959110,1.41567902

>  <Name>
ligand

>  <RI>
0

>  <Rbt.Current_Directory>
/home/itssahil/PROJECTS/Mol_Feturizer/New_Systems/rnas/3DJ2

>  <Rbt.Executable>
rbdock ($Id: //depot/dev/client3/rdock/2013.1/src/exe/rbdock.cxx#4 $)

>  <Rbt.Library>
libRbt.so (2013.1, Build901 2013/11/27)

>  <Rbt.Parameter_File>
/export/apps/rDock/src/rDock_2013.1_src/data/scripts/dock_solv.prm

>  <Rbt.Receptor>
prm/pocket_docking_4.prm

>  <SCORE>
-11.1697

>  <SCORE.INTER>
-9.38845

>  <SCORE.INTER.CONST>
1

>  <SCORE.INTER.POLAR>
0

>  <SCORE.INTER.ROT>
5

>  <SCORE.INTER.SOLV>
15.7091

>  <SCORE.INTER.VDW>
-18.4287

>  <SCORE.INTER.norm>
-0.938845

>  <SCORE.INTRA>
-1.78121

>  <SCORE.INTRA.DIHEDRAL>
-2.35879

>  <SCORE.INTRA.DIHEDRAL.0>
4.28128

>  <SCORE.INTRA.POLAR>
0

>  <SCORE.INTRA.POLAR.0>
0

>  <SCORE.INTRA.REPUL>
0

>  <SCORE.INTRA.REPUL.0>
0

>  <SCORE.INTRA.SOLV>
-1.12881

>  <SCORE.INTRA.SOLV.lig_0>
-32.3374

>  <SCORE.INTRA.VDW>
-0.0374128

>  <SCORE.INTRA.VDW.0>
-0.659551

>  <SCORE.INTRA.norm>
-0.178121

>  <SCORE.RESTR>
0

>  <SCORE.RESTR.CAVITY>
0

>  <SCORE.RESTR.norm>
0

>  <SCORE.SYSTEM>
0

>  <SCORE.SYSTEM.CONST>
0

>  <SCORE.SYSTEM.DIHEDRAL>
0

>  <SCORE.SYSTEM.SOLV>
0

>  <SCORE.SYSTEM.norm>
0

>  <SCORE.heavy>
10

>  <SCORE.norm>
-1.11697

>  <RMSD>
5.441

$$$$
ligand
 OpenBabel11021811473D
libRbt.so/2013.1/901 2013/11/27
 10  9  0  0  0  0  0  0  0  0999 V2000
   26.9879   14.5943   20.5892 N   0  0  0  0  0  0  0  0  0  0  0  0
   27.2719   15.6082   19.5353 C   0  0  2  0  0  0  0  0  0  0  0  0
   27.8100   14.9721   18.2535 C   0  0  0  0  0  0  0  0  0  0  0  0
   28.3896   15.6361   17.3880 O   0  0  0  0  0  0  0  0  0  0  0  0
   28.2251   16.6856   20.0592 C   0  0  0  0  0  0  0  0  0  0  0  0
   29.5462   16.1466   20.5916 C   0  0  0  0  0  0  0  0  0  0  0  0
   30.3583   17.2502   21.2689 C   0  0  0  0  0  0  0  0  0  0  0  0
   31.6241   16.7037   21.9196 C   0  0  0  0  0  0  0  0  0  0  0  0
   32.5902   16.1487   20.9266 N   0  0  0  0  0  0  0  0  0  0  0  0
   27.6980   13.7631   18.0619 O   0  0  0  0  0  0  0  0  0  0  0  0
  2  1  1  1  0  0  0
  2  3  1  0  0  0  0
  2  5  1  0  0  0  0
  3  4  1  0  0  0  0
  3 10  1  0  0  0  0
  5  6  1  0  0  0  0
  6  7  1  0  0  0  0
  7  8  1  0  0  0  0
  8  9  1  0  0  0  0
M  END
>  <CHROM.1>
-162.95658368,56.62633893,-172.16981230,174.76258322,64.91213959,29.05220649
15.73373409,19.82468681,2.44662340,-0.18098033,-1.93714678

>  <Name>
ligand

>  <RI>
0

>  <Rbt.Current_Directory>
/home/itssahil/PROJECTS/Mol_Feturizer/New_Systems/rnas/3DJ2

>  <Rbt.Executable>
rbdock ($Id: //depot/dev/client3/rdock/2013.1/src/exe/rbdock.cxx#4 $)

>  <Rbt.Library>
libRbt.so (2013.1, Build901 2013/11/27)

>  <Rbt.Parameter_File>
/export/apps/rDock/src/rDock_2013.1_src/data/scripts/dock_solv.prm

>  <Rbt.Receptor>
prm/pocket_docking_4.prm

>  <SCORE>
-8.86088

>  <SCORE.INTER>
-8.32171

>  <SCORE.INTER.CONST>
1

>  <SCORE.INTER.POLAR>
0

>  <SCORE.INTER.ROT>
5

>  <SCORE.INTER.SOLV>
15.2189

>  <SCORE.INTER.VDW>
-17.5541

>  <SCORE.INTER.norm>
-0.832171

>  <SCORE.INTRA>
-0.53917

>  <SCORE.INTRA.DIHEDRAL>
-2.20978

>  <SCORE.INTRA.DIHEDRAL.0>
4.28128

>  <SCORE.INTRA.POLAR>
0

>  <SCORE.INTRA.POLAR.0>
0

>  <SCORE.INTRA.REPUL>
0

>  <SCORE.INTRA.REPUL.0>
0

>  <SCORE.INTRA.SOLV>
0.496772

>  <SCORE.INTRA.SOLV.lig_0>
-32.3374

>  <SCORE.INTRA.VDW>
0.317334

>  <SCORE.INTRA.VDW.0>
-0.659551

>  <SCORE.INTRA.norm>
-0.053917

>  <SCORE.RESTR>
0

>  <SCORE.RESTR.CAVITY>
0

>  <SCORE.RESTR.norm>
0

>  <SCORE.SYSTEM>
0

>  <SCORE.SYSTEM.CONST>
0

>  <SCORE.SYSTEM.DIHEDRAL>
0

>  <SCORE.SYSTEM.SOLV>
0

>  <SCORE.SYSTEM.norm>
0

>  <SCORE.heavy>
10

>  <SCORE.norm>
-0.886088

>  <RMSD>
5.441

$$$$
ligand
 OpenBabel11021811473D
libRbt.so/2013.1/901 2013/11/27
 10  9  0  0  0  0  0  0  0  0999 V2000
   27.9361   14.5063   18.7933 N   0  0  0  0  0  0  0  0  0  0  0  0
   28.0999   14.6248   20.2693 C   0  0  2  0  0  0  0  0  0  0  0  0
   26.7829   14.9576   20.9706 C   0  0  0  0  0  0  0  0  0  0  0  0
   26.6709   14.9249   22.2003 O   0  0  0  0  0  0  0  0  0  0  0  0
   29.1841   15.6486   20.6161 C   0  0  0  0  0  0  0  0  0  0  0  0
   29.6496   15.5999   22.0653 C   0  0  0  0  0  0  0  0  0  0  0  0
   30.6768   16.6951   22.3507 C   0  0  0  0  0  0  0  0  0  0  0  0
   31.9722   16.4715   21.5785 C   0  0  0  0  0  0  0  0  0  0  0  0
   32.9559   17.5776   21.7686 N   0  0  0  0  0  0  0  0  0  0  0  0
   25.7962   15.2936   20.3190 O   0  0  0  0  0  0  0  0  0  0  0  0
  2  1  1  6  0  0  0
  2  3  1  0  0  0  0
  2  5  1  0  0  0  0
  3  4  1  0  0  0  0
  3 10  1  0  0  0  0
  5  6  1  0  0  0  0
  6  7  1  0  0  0  0
  7  8  1  0  0  0  0
  8  9  1  0  0  0  0
M  END
>  <CHROM.1>
170.31424248,-166.27146496,-177.09662428,-66.06512339,176.07518564,28.93298276
15.63210620,21.10568700,-2.82798092,0.29183503,1.30154408

>  <Name>
ligand

>  <RI>
0

>  <Rbt.Current_Directory>
/home/itssahil/PROJECTS/Mol_Feturizer/New_Systems/rnas/3DJ2

>  <Rbt.Executable>
rbdock ($Id: //depot/dev/client3/rdock/2013.1/src/exe/rbdock.cxx#4 $)

>  <Rbt.Library>
libRbt.so (2013.1, Build901 2013/11/27)

>  <Rbt.Parameter_File>
/export/apps/rDock/src/rDock_2013.1_src/data/scripts/dock_solv.prm

>  <Rbt.Receptor>
prm/pocket_docking_6.prm

>  <SCORE>
-10.1962

>  <SCORE.INTER>
-9.40002

>  <SCORE.INTER.CONST>
1

>  <SCORE.INTER.POLAR>
0

>  <SCORE.INTER.ROT>
5

>  <SCORE.INTER.SOLV>
13.9063

>  <SCORE.INTER.VDW>
-17.8354

>  <SCORE.INTER.norm>
-0.940002

>  <SCORE.INTRA>
-0.796144

>  <SCORE.INTRA.DIHEDRAL>
-1.86424

>  <SCORE.INTRA.DIHEDRAL.0>
4.28128

>  <SCORE.INTRA.POLAR>
0

>  <SCORE.INTRA.POLAR.0>
0

>  <SCORE.INTRA.REPUL>
0

>  <SCORE.INTRA.REPUL.0>
0

>  <SCORE.INTRA.SOLV>
-1.04858

>  <SCORE.INTRA.SOLV.lig_0>
-32.3374

>  <SCORE.INTRA.VDW>
0.660262

>  <SCORE.INTRA.VDW.0>
-0.659551

>  <SCORE.INTRA.norm>
-0.0796144

>  <SCORE.RESTR>
0

>  <SCORE.RESTR.CAVITY>
0

>  <SCORE.RESTR.norm>
0

>  <SCORE.SYSTEM>
0

>  <SCORE.SYSTEM.CONST>
0

>  <SCORE.SYSTEM.DIHEDRAL>
0

>  <SCORE.SYSTEM.SOLV>
0

>  <SCORE.SYSTEM.norm>
0

>  <SCORE.heavy>
10

>  <SCORE.norm>
-1.01962

>  <RMSD>
5.441

$$$$
ligand
 OpenBabel11021811473D
libRbt.so/2013.1/901 2013/11/27
 10  9  0  0  0  0  0  0  0  0999 V2000
   28.7725   15.0448   22.5309 N   0  0  0  0  0  0  0  0  0  0  0  0
   28.5515   15.7776   21.2528 C   0  0  2  0  0  0  0  0  0  0  0  0
   27.1340   15.5829   20.7144 C   0  0  0  0  0  0  0  0  0  0  0  0
   26.3115   14.8600   21.2859 O   0  0  0  0  0  0  0  0  0  0  0  0
   29.5981   15.3793   20.2090 C   0  0  0  0  0  0  0  0  0  0  0  0
   31.0375   15.4811   20.6960 C   0  0  0  0  0  0  0  0  0  0  0  0
   31.3672   16.9041   21.1459 C   0  0  0  0  0  0  0  0  0  0  0  0
   32.7636   16.9975   21.7507 C   0  0  0  0  0  0  0  0  0  0  0  0
   33.1228   18.3864   22.1620 N   0  0  0  0  0  0  0  0  0  0  0  0
   26.7663   16.1685   19.6981 O   0  0  0  0  0  0  0  0  0  0  0  0
  2  1  1  1  0  0  0
  2  3  1  0  0  0  0
  2  5  1  0  0  0  0
  3  4  1  0  0  0  0
  3 10  1  0  0  0  0
  5  6  1  0  0  0  0
  6  7  1  0  0  0  0
  7  8  1  0  0  0  0
  8  9  1  0  0  0  0
M  END
>  <CHROM.1>
-1.97304642,-51.73933135,-58.58165190,174.97611962,178.36659327,29.49961742
16.05161335,21.13135785,-3.12445634,-0.36817886,-1.07862390

>  <Name>
ligand

>  <RI>
0

>  <Rbt.Current_Directory>
/home/itssahil/PROJECTS/Mol_Feturizer/New_Systems/rnas/3DJ2

>  <Rbt.Executable>
rbdock ($Id: //depot/dev/client3/rdock/2013.1/src/exe/rbdock.cxx#4 $)

>  <Rbt.Library>
libRbt.so (2013.1, Build901 2013/11/27)

>  <Rbt.Parameter_File>
/export/apps/rDock/src/rDock_2013.1_src/data/scripts/dock_solv.prm

>  <Rbt.Receptor>
prm/pocket_docking_3.prm

>  <SCORE>
-8.17457

>  <SCORE.INTER>
-7.71901

>  <SCORE.INTER.CONST>
1

>  <SCORE.INTER.POLAR>
0

>  <SCORE.INTER.ROT>
5

>  <SCORE.INTER.SOLV>
16.1091

>  <SCORE.INTER.VDW>
-17.4491

>  <SCORE.INTER.norm>
-0.771901

>  <SCORE.INTRA>
-0.455564

>  <SCORE.INTRA.DIHEDRAL>
-2.38293

>  <SCORE.INTRA.DIHEDRAL.0>
4.28128

>  <SCORE.INTRA.POLAR>
0

>  <SCORE.INTRA.POLAR.0>
0

>  <SCORE.INTRA.REPUL>
0

>  <SCORE.INTRA.REPUL.0>
0

>  <SCORE.INTRA.SOLV>
0.479508

>  <SCORE.INTRA.SOLV.lig_0>
-32.3374

>  <SCORE.INTRA.VDW>
0.496147

>  <SCORE.INTRA.VDW.0>
-0.659551

>  <SCORE.INTRA.norm>
-0.0455564

>  <SCORE.RESTR>
0

>  <SCORE.RESTR.CAVITY>
0

>  <SCORE.RESTR.norm>
0

>  <SCORE.SYSTEM>
0

>  <SCORE.SYSTEM.CONST>
0

>  <SCORE.SYSTEM.DIHEDRAL>
0

>  <SCORE.SYSTEM.SOLV>
0

>  <SCORE.SYSTEM.norm>
0

>  <SCORE.heavy>
10

>  <SCORE.norm>
-0.817457

>  <RMSD>
5.444

$$$$
ligand
 OpenBabel11021811473D
libRbt.so/2013.1/901 2013/11/27
 10  9  0  0  0  0  0  0  0  0999 V2000
   27.8997   14.5377   18.7432 N   0  0  0  0  0  0  0  0  0  0  0  0
   28.0898   14.6314   20.2177 C   0  0  2  0  0  0  0  0  0  0  0  0
   26.7872   14.9607   20.9471 C   0  0  0  0  0  0  0  0  0  0  0  0
   26.6944   14.9024   22.1775 O   0  0  0  0  0  0  0  0  0  0  0  0
   29.1862   15.6428   20.5620 C   0  0  0  0  0  0  0  0  0  0  0  0
   29.6281   15.6144   22.0192 C   0  0  0  0  0  0  0  0  0  0  0  0
   30.6350   16.7267   22.3110 C   0  0  0  0  0  0  0  0  0  0  0  0
   31.9615   16.4912   21.5974 C   0  0  0  0  0  0  0  0  0  0  0  0
   32.9512   17.5807   21.8442 N   0  0  0  0  0  0  0  0  0  0  0  0
   25.7935   15.3197   20.3188 O   0  0  0  0  0  0  0  0  0  0  0  0
  2  1  1  6  0  0  0
  2  3  1  0  0  0  0
  2  5  1  0  0  0  0
  3  4  1  0  0  0  0
  3 10  1  0  0  0  0
  5  6  1  0  0  0  0
  6  7  1  0  0  0  0
  7  8  1  0  0  0  0
  8  9  1  0  0  0  0
M  END
>  <CHROM.1>
169.94295280,-169.12517314,-175.20004681,-67.87231676,178.76199491,28.92353571
15.64276183,21.08682811,-2.81738366,0.29235330,1.30441113

>  <Name>
ligand

>  <RI>
0

>  <Rbt.Current_Directory>
/home/itssahil/PROJECTS/Mol_Feturizer/New_Systems/rnas/3DJ2

>  <Rbt.Executable>
rbdock ($Id: //depot/dev/client3/rdock/2013.1/src/exe/rbdock.cxx#4 $)

>  <Rbt.Library>
libRbt.so (2013.1, Build901 2013/11/27)

>  <Rbt.Parameter_File>
/export/apps/rDock/src/rDock_2013.1_src/data/scripts/dock_solv.prm

>  <Rbt.Receptor>
prm/pocket_docking_8.prm

>  <SCORE>
-10.1943

>  <SCORE.INTER>
-9.30251

>  <SCORE.INTER.CONST>
1

>  <SCORE.INTER.POLAR>
0

>  <SCORE.INTER.ROT>
5

>  <SCORE.INTER.SOLV>
13.9615

>  <SCORE.INTER.VDW>
-17.7888

>  <SCORE.INTER.norm>
-0.930251

>  <SCORE.INTRA>
-0.891819

>  <SCORE.INTRA.DIHEDRAL>
-2.00317

>  <SCORE.INTRA.DIHEDRAL.0>
4.28128

>  <SCORE.INTRA.POLAR>
0

>  <SCORE.INTRA.POLAR.0>
0

>  <SCORE.INTRA.REPUL>
0

>  <SCORE.INTRA.REPUL.0>
0

>  <SCORE.INTRA.SOLV>
-1.08184

>  <SCORE.INTRA.SOLV.lig_0>
-32.3374

>  <SCORE.INTRA.VDW>
0.650686

>  <SCORE.INTRA.VDW.0>
-0.659551

>  <SCORE.INTRA.norm>
-0.0891819

>  <SCORE.RESTR>
0

>  <SCORE.RESTR.CAVITY>
0

>  <SCORE.RESTR.norm>
0

>  <SCORE.SYSTEM>
0

>  <SCORE.SYSTEM.CONST>
0

>  <SCORE.SYSTEM.DIHEDRAL>
0

>  <SCORE.SYSTEM.SOLV>
0

>  <SCORE.SYSTEM.norm>
0

>  <SCORE.heavy>
10

>  <SCORE.norm>
-1.01943

>  <RMSD>
5.444

$$$$
ligand
 OpenBabel11021811473D
libRbt.so/2013.1/901 2013/11/27
 10  9  0  0  0  0  0  0  0  0999 V2000
   28.6088   14.5661   19.2439 N   0  0  0  0  0  0  0  0  0  0  0  0
   28.2559   15.2249   20.5326 C   0  0  2  0  0  0  0  0  0  0  0  0
   26.7566   15.1564   20.8234 C   0  0  0  0  0  0  0  0  0  0  0  0
   25.9122   15.4773   19.9809 O   0  0  0  0  0  0  0  0  0  0  0  0
   28.7580   16.6709   20.5600 C   0  0  0  0  0  0  0  0  0  0  0  0
   30.2739   16.8056   20.6166 C   0  0  0  0  0  0  0  0  0  0  0  0
   30.8217   16.3042   21.9526 C   0  0  0  0  0  0  0  0  0  0  0  0
   32.3161   16.5740   22.0889 C   0  0  0  0  0  0  0  0  0  0  0  0
   32.6358   18.0301   22.1590 N   0  0  0  0  0  0  0  0  0  0  0  0
   26.3494   14.7518   21.9103 O   0  0  0  0  0  0  0  0  0  0  0  0
  2  1  1  6  0  0  0
  2  3  1  0  0  0  0
  2  5  1  0  0  0  0
  3  4  1  0  0  0  0
  3 10  1  0  0  0  0
  5  6  1  0  0  0  0
  6  7  1  0  0  0  0
  7  8  1  0  0  0  0
  8  9  1  0  0  0  0
M  END
>  <CHROM.1>
-49.29187344,-68.63248700,-67.56648638,-173.64673862,66.17404070,29.02511045
15.94914316,20.99131751,-2.85325036,0.32359442,1.38575655

>  <Name>
ligand

>  <RI>
0

>  <Rbt.Current_Directory>
/home/itssahil/PROJECTS/Mol_Feturizer/New_Systems/rnas/3DJ2

>  <Rbt.Executable>
rbdock ($Id: //depot/dev/client3/rdock/2013.1/src/exe/rbdock.cxx#4 $)

>  <Rbt.Library>
libRbt.so (2013.1, Build901 2013/11/27)

>  <Rbt.Parameter_File>
/export/apps/rDock/src/rDock_2013.1_src/data/scripts/dock_solv.prm

>  <Rbt.Receptor>
prm/pocket_docking_3.prm

>  <SCORE>
-9.74463

>  <SCORE.INTER>
-9.17571

>  <SCORE.INTER.CONST>
1

>  <SCORE.INTER.POLAR>
0

>  <SCORE.INTER.ROT>
5

>  <SCORE.INTER.SOLV>
12.3472

>  <SCORE.INTER.VDW>
-17.1662

>  <SCORE.INTER.norm>
-0.917571

>  <SCORE.INTRA>
-0.56892

>  <SCORE.INTRA.DIHEDRAL>
-1.87802

>  <SCORE.INTRA.DIHEDRAL.0>
4.28128

>  <SCORE.INTRA.POLAR>
0

>  <SCORE.INTRA.POLAR.0>
0

>  <SCORE.INTRA.REPUL>
0

>  <SCORE.INTRA.REPUL.0>
0

>  <SCORE.INTRA.SOLV>
0.786068

>  <SCORE.INTRA.SOLV.lig_0>
-32.3374

>  <SCORE.INTRA.VDW>
-0.0229437

>  <SCORE.INTRA.VDW.0>
-0.659551

>  <SCORE.INTRA.norm>
-0.056892

>  <SCORE.RESTR>
0

>  <SCORE.RESTR.CAVITY>
0

>  <SCORE.RESTR.norm>
0

>  <SCORE.SYSTEM>
0

>  <SCORE.SYSTEM.CONST>
0

>  <SCORE.SYSTEM.DIHEDRAL>
0

>  <SCORE.SYSTEM.SOLV>
0

>  <SCORE.SYSTEM.norm>
0

>  <SCORE.heavy>
10

>  <SCORE.norm>
-0.974463

>  <RMSD>
5.445

$$$$
ligand
 OpenBabel11021811473D
libRbt.so/2013.1/901 2013/11/27
 10  9  0  0  0  0  0  0  0  0999 V2000
   28.6103   14.5338   19.2445 N   0  0  0  0  0  0  0  0  0  0  0  0
   28.2385   15.2070   20.5203 C   0  0  2  0  0  0  0  0  0  0  0  0
   26.7383   15.1203   20.8019 C   0  0  0  0  0  0  0  0  0  0  0  0
   26.2989   14.7336   21.8897 O   0  0  0  0  0  0  0  0  0  0  0  0
   28.7187   16.6606   20.5287 C   0  0  0  0  0  0  0  0  0  0  0  0
   30.2308   16.8193   20.6169 C   0  0  0  0  0  0  0  0  0  0  0  0
   30.7609   16.3080   21.9561 C   0  0  0  0  0  0  0  0  0  0  0  0
   32.2600   16.5460   22.0998 C   0  0  0  0  0  0  0  0  0  0  0  0
   32.6148   17.9954   22.1222 N   0  0  0  0  0  0  0  0  0  0  0  0
   25.9222   15.4610   19.9482 O   0  0  0  0  0  0  0  0  0  0  0  0
  2  1  1  6  0  0  0
  2  3  1  0  0  0  0
  2  5  1  0  0  0  0
  3  4  1  0  0  0  0
  3 10  1  0  0  0  0
  5  6  1  0  0  0  0
  6  7  1  0  0  0  0
  7  8  1  0  0  0  0
  8  9  1  0  0  0  0
M  END
>  <CHROM.1>
129.69494615,-69.59055883,-65.55668432,-176.12244627,64.17880138,28.99560066
15.93181964,20.97706840,-2.85527581,0.32900391,1.39764347

>  <Name>
ligand

>  <RI>
0

>  <Rbt.Current_Directory>
/home/itssahil/PROJECTS/Mol_Feturizer/New_Systems/rnas/3DJ2

>  <Rbt.Executable>
rbdock ($Id: //depot/dev/client3/rdock/2013.1/src/exe/rbdock.cxx#4 $)

>  <Rbt.Library>
libRbt.so (2013.1, Build901 2013/11/27)

>  <Rbt.Parameter_File>
/export/apps/rDock/src/rDock_2013.1_src/data/scripts/dock_solv.prm

>  <Rbt.Receptor>
prm/pocket_docking_4.prm

>  <SCORE>
-9.71244

>  <SCORE.INTER>
-9.0918

>  <SCORE.INTER.CONST>
1

>  <SCORE.INTER.POLAR>
0

>  <SCORE.INTER.ROT>
5

>  <SCORE.INTER.SOLV>
12.3778

>  <SCORE.INTER.VDW>
-17.1205

>  <SCORE.INTER.norm>
-0.90918

>  <SCORE.INTRA>
-0.62064

>  <SCORE.INTRA.DIHEDRAL>
-2.14352

>  <SCORE.INTRA.DIHEDRAL.0>
4.28128

>  <SCORE.INTRA.POLAR>
0

>  <SCORE.INTRA.POLAR.0>
0

>  <SCORE.INTRA.REPUL>
0

>  <SCORE.INTRA.REPUL.0>
0

>  <SCORE.INTRA.SOLV>
0.799743

>  <SCORE.INTRA.SOLV.lig_0>
-32.3374

>  <SCORE.INTRA.VDW>
0.0512482

>  <SCORE.INTRA.VDW.0>
-0.659551

>  <SCORE.INTRA.norm>
-0.062064

>  <SCORE.RESTR>
0

>  <SCORE.RESTR.CAVITY>
0

>  <SCORE.RESTR.norm>
0

>  <SCORE.SYSTEM>
0

>  <SCORE.SYSTEM.CONST>
0

>  <SCORE.SYSTEM.DIHEDRAL>
0

>  <SCORE.SYSTEM.SOLV>
0

>  <SCORE.SYSTEM.norm>
0

>  <SCORE.heavy>
10

>  <SCORE.norm>
-0.971244

>  <RMSD>
5.445

$$$$
ligand
 OpenBabel11021811473D
libRbt.so/2013.1/901 2013/11/27
 10  9  0  0  0  0  0  0  0  0999 V2000
   28.5644   14.4710   19.1893 N   0  0  0  0  0  0  0  0  0  0  0  0
   28.2199   15.2195   20.4303 C   0  0  2  0  0  0  0  0  0  0  0  0
   26.7242   15.1628   20.7414 C   0  0  0  0  0  0  0  0  0  0  0  0
   25.8749   15.5732   19.9438 O   0  0  0  0  0  0  0  0  0  0  0  0
   28.7120   16.6668   20.3473 C   0  0  0  0  0  0  0  0  0  0  0  0
   30.2179   16.8257   20.5090 C   0  0  0  0  0  0  0  0  0  0  0  0
   30.6747   16.3653   21.8931 C   0  0  0  0  0  0  0  0  0  0  0  0
   32.1800   16.5246   22.0746 C   0  0  0  0  0  0  0  0  0  0  0  0
   32.6077   17.9536   22.1225 N   0  0  0  0  0  0  0  0  0  0  0  0
   26.3242   14.6784   21.7980 O   0  0  0  0  0  0  0  0  0  0  0  0
  2  1  1  6  0  0  0
  2  3  1  0  0  0  0
  2  5  1  0  0  0  0
  3  4  1  0  0  0  0
  3 10  1  0  0  0  0
  5  6  1  0  0  0  0
  6  7  1  0  0  0  0
  7  8  1  0  0  0  0
  8  9  1  0  0  0  0
M  END
>  <CHROM.1>
-58.43716059,-74.07937820,-63.02852770,-179.69902749,68.24144218,28.96646593
15.93748999,20.90977305,-2.85838008,0.33342454,1.42664115

>  <Name>
ligand

>  <RI>
0

>  <Rbt.Current_Directory>
/home/itssahil/PROJECTS/Mol_Feturizer/New_Systems/rnas/3DJ2

>  <Rbt.Executable>
rbdock ($Id: //depot/dev/client3/rdock/2013.1/src/exe/rbdock.cxx#4 $)

>  <Rbt.Library>
libRbt.so (2013.1, Build901 2013/11/27)

>  <Rbt.Parameter_File>
/export/apps/rDock/src/rDock_2013.1_src/data/scripts/dock_solv.prm

>  <Rbt.Receptor>
prm/blind_docking_100.prm

>  <SCORE>
-9.71511

>  <SCORE.INTER>
-9.26082

>  <SCORE.INTER.CONST>
1

>  <SCORE.INTER.POLAR>
0

>  <SCORE.INTER.ROT>
5

>  <SCORE.INTER.SOLV>
12.4612

>  <SCORE.INTER.VDW>
-17.261

>  <SCORE.INTER.norm>
-0.926082

>  <SCORE.INTRA>
-0.454287

>  <SCORE.INTRA.DIHEDRAL>
-1.68977

>  <SCORE.INTRA.DIHEDRAL.0>
4.28128

>  <SCORE.INTRA.POLAR>
0

>  <SCORE.INTRA.POLAR.0>
0

>  <SCORE.INTRA.REPUL>
0

>  <SCORE.INTRA.REPUL.0>
0

>  <SCORE.INTRA.SOLV>
0.668481

>  <SCORE.INTRA.SOLV.lig_0>
-32.3374

>  <SCORE.INTRA.VDW>
0.0563574

>  <SCORE.INTRA.VDW.0>
-0.659551

>  <SCORE.INTRA.norm>
-0.0454287

>  <SCORE.RESTR>
0

>  <SCORE.RESTR.CAVITY>
0

>  <SCORE.RESTR.norm>
0

>  <SCORE.SYSTEM>
0

>  <SCORE.SYSTEM.CONST>
0

>  <SCORE.SYSTEM.DIHEDRAL>
0

>  <SCORE.SYSTEM.SOLV>
0

>  <SCORE.SYSTEM.norm>
0

>  <SCORE.heavy>
10

>  <SCORE.norm>
-0.971511

>  <RMSD>
5.446

$$$$
ligand
 OpenBabel11021811473D
libRbt.so/2013.1/901 2013/11/27
 10  9  0  0  0  0  0  0  0  0999 V2000
   27.8872   14.5915   18.7062 N   0  0  0  0  0  0  0  0  0  0  0  0
   28.0856   14.6585   20.1812 C   0  0  2  0  0  0  0  0  0  0  0  0
   26.7852   14.9647   20.9244 C   0  0  0  0  0  0  0  0  0  0  0  0
   25.7542   15.2941   20.3290 O   0  0  0  0  0  0  0  0  0  0  0  0
   29.1770   15.6710   20.5381 C   0  0  0  0  0  0  0  0  0  0  0  0
   29.6304   15.6158   21.9910 C   0  0  0  0  0  0  0  0  0  0  0  0
   30.6591   16.7064   22.2886 C   0  0  0  0  0  0  0  0  0  0  0  0
   31.9680   16.4684   21.5439 C   0  0  0  0  0  0  0  0  0  0  0  0
   32.9732   17.5449   21.7851 N   0  0  0  0  0  0  0  0  0  0  0  0
   26.7275   14.8660   22.1483 O   0  0  0  0  0  0  0  0  0  0  0  0
  2  1  1  6  0  0  0
  2  3  1  0  0  0  0
  2  5  1  0  0  0  0
  3  4  1  0  0  0  0
  3 10  1  0  0  0  0
  5  6  1  0  0  0  0
  6  7  1  0  0  0  0
  7  8  1  0  0  0  0
  8  9  1  0  0  0  0
M  END
>  <CHROM.1>
-9.21152911,-168.98350075,-176.71238361,-66.99374770,178.16379723,28.92556988
15.63901807,21.05711409,-2.83302517,0.29643869,1.33194514

>  <Name>
ligand

>  <RI>
0

>  <Rbt.Current_Directory>
/home/itssahil/PROJECTS/Mol_Feturizer/New_Systems/rnas/3DJ2

>  <Rbt.Executable>
rbdock ($Id: //depot/dev/client3/rdock/2013.1/src/exe/rbdock.cxx#4 $)

>  <Rbt.Library>
libRbt.so (2013.1, Build901 2013/11/27)

>  <Rbt.Parameter_File>
/export/apps/rDock/src/rDock_2013.1_src/data/scripts/dock_solv.prm

>  <Rbt.Receptor>
prm/pocket_docking_5.prm

>  <SCORE>
-10.1772

>  <SCORE.INTER>
-9.32308

>  <SCORE.INTER.CONST>
1

>  <SCORE.INTER.POLAR>
0

>  <SCORE.INTER.ROT>
5

>  <SCORE.INTER.SOLV>
13.9243

>  <SCORE.INTER.VDW>
-17.7901

>  <SCORE.INTER.norm>
-0.932308

>  <SCORE.INTRA>
-0.854092

>  <SCORE.INTRA.DIHEDRAL>
-2.03603

>  <SCORE.INTRA.DIHEDRAL.0>
4.28128

>  <SCORE.INTRA.POLAR>
0

>  <SCORE.INTRA.POLAR.0>
0

>  <SCORE.INTRA.REPUL>
0

>  <SCORE.INTRA.REPUL.0>
0

>  <SCORE.INTRA.SOLV>
-1.07795

>  <SCORE.INTRA.SOLV.lig_0>
-32.3374

>  <SCORE.INTRA.VDW>
0.7029

>  <SCORE.INTRA.VDW.0>
-0.659551

>  <SCORE.INTRA.norm>
-0.0854092

>  <SCORE.RESTR>
0

>  <SCORE.RESTR.CAVITY>
0

>  <SCORE.RESTR.norm>
0

>  <SCORE.SYSTEM>
0

>  <SCORE.SYSTEM.CONST>
0

>  <SCORE.SYSTEM.DIHEDRAL>
0

>  <SCORE.SYSTEM.SOLV>
0

>  <SCORE.SYSTEM.norm>
0

>  <SCORE.heavy>
10

>  <SCORE.norm>
-1.01772

>  <RMSD>
5.446

$$$$
ligand
 OpenBabel11021811473D
libRbt.so/2013.1/901 2013/11/27
 10  9  0  0  0  0  0  0  0  0999 V2000
   28.4995   15.3397   19.0546 N   0  0  0  0  0  0  0  0  0  0  0  0
   28.2378   14.9125   20.4576 C   0  0  2  0  0  0  0  0  0  0  0  0
   26.7671   15.0714   20.8437 C   0  0  0  0  0  0  0  0  0  0  0  0
   26.3534   14.7868   21.9723 O   0  0  0  0  0  0  0  0  0  0  0  0
   29.1488   15.6616   21.4336 C   0  0  0  0  0  0  0  0  0  0  0  0
   30.6324   15.3666   21.2562 C   0  0  0  0  0  0  0  0  0  0  0  0
   31.4777   16.1926   22.2253 C   0  0  0  0  0  0  0  0  0  0  0  0
   31.4341   17.6791   21.8893 C   0  0  0  0  0  0  0  0  0  0  0  0
   32.3646   18.4885   22.7299 N   0  0  0  0  0  0  0  0  0  0  0  0
   25.9540   15.5152   20.0357 O   0  0  0  0  0  0  0  0  0  0  0  0
  2  1  1  6  0  0  0
  2  3  1  0  0  0  0
  2  5  1  0  0  0  0
  3  4  1  0  0  0  0
  3 10  1  0  0  0  0
  5  6  1  0  0  0  0
  6  7  1  0  0  0  0
  7  8  1  0  0  0  0
  8  9  1  0  0  0  0
M  END
>  <CHROM.1>
-179.04438591,-64.17158243,177.67246830,-67.97394198,-173.89821054,29.04376709
15.89904866,21.19489300,-2.73115928,0.30685377,1.22540319

>  <Name>
ligand

>  <RI>
0

>  <Rbt.Current_Directory>
/home/itssahil/PROJECTS/Mol_Feturizer/New_Systems/rnas/3DJ2

>  <Rbt.Executable>
rbdock ($Id: //depot/dev/client3/rdock/2013.1/src/exe/rbdock.cxx#4 $)

>  <Rbt.Library>
libRbt.so (2013.1, Build901 2013/11/27)

>  <Rbt.Parameter_File>
/export/apps/rDock/src/rDock_2013.1_src/data/scripts/dock_solv.prm

>  <Rbt.Receptor>
prm/pocket_docking_8.prm

>  <SCORE>
-9.75499

>  <SCORE.INTER>
-9.10217

>  <SCORE.INTER.CONST>
1

>  <SCORE.INTER.POLAR>
0

>  <SCORE.INTER.ROT>
5

>  <SCORE.INTER.SOLV>
13.7592

>  <SCORE.INTER.VDW>
-17.5878

>  <SCORE.INTER.norm>
-0.910217

>  <SCORE.INTRA>
-0.652819

>  <SCORE.INTRA.DIHEDRAL>
-2.25452

>  <SCORE.INTRA.DIHEDRAL.0>
4.28128

>  <SCORE.INTRA.POLAR>
0

>  <SCORE.INTRA.POLAR.0>
0

>  <SCORE.INTRA.REPUL>
0

>  <SCORE.INTRA.REPUL.0>
0

>  <SCORE.INTRA.SOLV>
-0.27223

>  <SCORE.INTRA.SOLV.lig_0>
-32.3374

>  <SCORE.INTRA.VDW>
0.610554

>  <SCORE.INTRA.VDW.0>
-0.659551

>  <SCORE.INTRA.norm>
-0.0652819

>  <SCORE.RESTR>
0

>  <SCORE.RESTR.CAVITY>
0

>  <SCORE.RESTR.norm>
0

>  <SCORE.SYSTEM>
0

>  <SCORE.SYSTEM.CONST>
0

>  <SCORE.SYSTEM.DIHEDRAL>
0

>  <SCORE.SYSTEM.SOLV>
0

>  <SCORE.SYSTEM.norm>
0

>  <SCORE.heavy>
10

>  <SCORE.norm>
-0.975499

>  <RMSD>
5.448

$$$$
ligand
 OpenBabel11021811473D
libRbt.so/2013.1/901 2013/11/27
 10  9  0  0  0  0  0  0  0  0999 V2000
   27.1862   13.7504   18.7348 N   0  0  0  0  0  0  0  0  0  0  0  0
   27.7051   14.6902   19.7677 C   0  0  2  0  0  0  0  0  0  0  0  0
   26.7095   14.8994   20.9089 C   0  0  0  0  0  0  0  0  0  0  0  0
   25.4923   14.9677   20.7098 O   0  0  0  0  0  0  0  0  0  0  0  0
   28.1088   16.0248   19.1357 C   0  0  0  0  0  0  0  0  0  0  0  0
   28.8121   16.9812   20.0897 C   0  0  0  0  0  0  0  0  0  0  0  0
   30.1679   16.4263   20.5255 C   0  0  0  0  0  0  0  0  0  0  0  0
   30.8933   17.3797   21.4686 C   0  0  0  0  0  0  0  0  0  0  0  0
   32.2434   16.8829   21.8656 N   0  0  0  0  0  0  0  0  0  0  0  0
   27.1006   14.9820   22.0713 O   0  0  0  0  0  0  0  0  0  0  0  0
  2  1  1  6  0  0  0
  2  3  1  0  0  0  0
  2  5  1  0  0  0  0
  3  4  1  0  0  0  0
  3 10  1  0  0  0  0
  5  6  1  0  0  0  0
  6  7  1  0  0  0  0
  7  8  1  0  0  0  0
  8  9  1  0  0  0  0
M  END
>  <CHROM.1>
-37.98277348,-172.70077333,65.82986874,179.32284237,-177.75840482,28.41157225
15.69694700,20.55192016,-2.85223425,0.42317746,1.37789708

>  <Name>
ligand

>  <RI>
0

>  <Rbt.Current_Directory>
/home/itssahil/PROJECTS/Mol_Feturizer/New_Systems/rnas/3DJ2

>  <Rbt.Executable>
rbdock ($Id: //depot/dev/client3/rdock/2013.1/src/exe/rbdock.cxx#4 $)

>  <Rbt.Library>
libRbt.so (2013.1, Build901 2013/11/27)

>  <Rbt.Parameter_File>
/export/apps/rDock/src/rDock_2013.1_src/data/scripts/dock_solv.prm

>  <Rbt.Receptor>
prm/pocket_docking_4.prm

>  <SCORE>
-10.9563

>  <SCORE.INTER>
-9.14118

>  <SCORE.INTER.CONST>
1

>  <SCORE.INTER.POLAR>
0

>  <SCORE.INTER.ROT>
5

>  <SCORE.INTER.SOLV>
15.6119

>  <SCORE.INTER.VDW>
-18.2314

>  <SCORE.INTER.norm>
-0.914118

>  <SCORE.INTRA>
-1.81512

>  <SCORE.INTRA.DIHEDRAL>
-2.36479

>  <SCORE.INTRA.DIHEDRAL.0>
4.28128

>  <SCORE.INTRA.POLAR>
0

>  <SCORE.INTRA.POLAR.0>
0

>  <SCORE.INTRA.REPUL>
0

>  <SCORE.INTRA.REPUL.0>
0

>  <SCORE.INTRA.SOLV>
-1.06934

>  <SCORE.INTRA.SOLV.lig_0>
-32.3374

>  <SCORE.INTRA.VDW>
-0.0980508

>  <SCORE.INTRA.VDW.0>
-0.659551

>  <SCORE.INTRA.norm>
-0.181512

>  <SCORE.RESTR>
0

>  <SCORE.RESTR.CAVITY>
0

>  <SCORE.RESTR.norm>
0

>  <SCORE.SYSTEM>
0

>  <SCORE.SYSTEM.CONST>
0

>  <SCORE.SYSTEM.DIHEDRAL>
0

>  <SCORE.SYSTEM.SOLV>
0

>  <SCORE.SYSTEM.norm>
0

>  <SCORE.heavy>
10

>  <SCORE.norm>
-1.09563

>  <RMSD>
5.450

$$$$
ligand
 OpenBabel11021811473D
libRbt.so/2013.1/901 2013/11/27
 10  9  0  0  0  0  0  0  0  0999 V2000
   28.6133   14.5409   19.2306 N   0  0  0  0  0  0  0  0  0  0  0  0
   28.2389   15.1944   20.5159 C   0  0  2  0  0  0  0  0  0  0  0  0
   26.7388   15.0997   20.7952 C   0  0  0  0  0  0  0  0  0  0  0  0
   26.2995   14.6825   21.8717 O   0  0  0  0  0  0  0  0  0  0  0  0
   28.7153   16.6490   20.5460 C   0  0  0  0  0  0  0  0  0  0  0  0
   30.2272   16.8102   20.6322 C   0  0  0  0  0  0  0  0  0  0  0  0
   30.7567   16.3251   21.9814 C   0  0  0  0  0  0  0  0  0  0  0  0
   32.2574   16.5573   22.1174 C   0  0  0  0  0  0  0  0  0  0  0  0
   32.6207   18.0047   22.1083 N   0  0  0  0  0  0  0  0  0  0  0  0
   25.9225   15.4642   19.9515 O   0  0  0  0  0  0  0  0  0  0  0  0
  2  1  1  6  0  0  0
  2  3  1  0  0  0  0
  2  5  1  0  0  0  0
  3  4  1  0  0  0  0
  3 10  1  0  0  0  0
  5  6  1  0  0  0  0
  6  7  1  0  0  0  0
  7  8  1  0  0  0  0
  8  9  1  0  0  0  0
M  END
>  <CHROM.1>
128.90898407,-69.36892046,-67.58075667,-176.54595826,64.20533980,28.99528847
15.92585799,20.97918955,-2.85887704,0.33842109,1.41566562

>  <Name>
ligand

>  <RI>
0

>  <Rbt.Current_Directory>
/home/itssahil/PROJECTS/Mol_Feturizer/New_Systems/rnas/3DJ2

>  <Rbt.Executable>
rbdock ($Id: //depot/dev/client3/rdock/2013.1/src/exe/rbdock.cxx#4 $)

>  <Rbt.Library>
libRbt.so (2013.1, Build901 2013/11/27)

>  <Rbt.Parameter_File>
/export/apps/rDock/src/rDock_2013.1_src/data/scripts/dock_solv.prm

>  <Rbt.Receptor>
prm/pocket_docking_5.prm

>  <SCORE>
-9.72218

>  <SCORE.INTER>
-9.0967

>  <SCORE.INTER.CONST>
1

>  <SCORE.INTER.POLAR>
0

>  <SCORE.INTER.ROT>
5

>  <SCORE.INTER.SOLV>
12.4348

>  <SCORE.INTER.VDW>
-17.1427

>  <SCORE.INTER.norm>
-0.90967

>  <SCORE.INTRA>
-0.625477

>  <SCORE.INTRA.DIHEDRAL>
-2.06079

>  <SCORE.INTRA.DIHEDRAL.0>
4.28128

>  <SCORE.INTRA.POLAR>
0

>  <SCORE.INTRA.POLAR.0>
0

>  <SCORE.INTRA.REPUL>
0

>  <SCORE.INTRA.REPUL.0>
0

>  <SCORE.INTRA.SOLV>
0.77673

>  <SCORE.INTRA.SOLV.lig_0>
-32.3374

>  <SCORE.INTRA.VDW>
0.0165523

>  <SCORE.INTRA.VDW.0>
-0.659551

>  <SCORE.INTRA.norm>
-0.0625477

>  <SCORE.RESTR>
0

>  <SCORE.RESTR.CAVITY>
0

>  <SCORE.RESTR.norm>
0

>  <SCORE.SYSTEM>
0

>  <SCORE.SYSTEM.CONST>
0

>  <SCORE.SYSTEM.DIHEDRAL>
0

>  <SCORE.SYSTEM.SOLV>
0

>  <SCORE.SYSTEM.norm>
0

>  <SCORE.heavy>
10

>  <SCORE.norm>
-0.972218

>  <RMSD>
5.450

$$$$
ligand
 OpenBabel11021811473D
libRbt.so/2013.1/901 2013/11/27
 10  9  0  0  0  0  0  0  0  0999 V2000
   28.6284   14.5532   19.2466 N   0  0  0  0  0  0  0  0  0  0  0  0
   28.2433   15.2226   20.5205 C   0  0  2  0  0  0  0  0  0  0  0  0
   26.7380   15.1501   20.7777 C   0  0  0  0  0  0  0  0  0  0  0  0
   25.9134   15.5434   19.9463 O   0  0  0  0  0  0  0  0  0  0  0  0
   28.7385   16.6710   20.5456 C   0  0  0  0  0  0  0  0  0  0  0  0
   30.2534   16.8130   20.6100 C   0  0  0  0  0  0  0  0  0  0  0  0
   30.7980   16.3025   21.9438 C   0  0  0  0  0  0  0  0  0  0  0  0
   32.2973   16.5467   22.0739 C   0  0  0  0  0  0  0  0  0  0  0  0
   32.6457   17.9977   22.1014 N   0  0  0  0  0  0  0  0  0  0  0  0
   26.3058   14.6698   21.8234 O   0  0  0  0  0  0  0  0  0  0  0  0
  2  1  1  6  0  0  0
  2  3  1  0  0  0  0
  2  5  1  0  0  0  0
  3  4  1  0  0  0  0
  3 10  1  0  0  0  0
  5  6  1  0  0  0  0
  6  7  1  0  0  0  0
  7  8  1  0  0  0  0
  8  9  1  0  0  0  0
M  END
>  <CHROM.1>
-54.23842989,-67.57721934,-66.84952564,-175.10684320,64.46145386,29.01227162
15.93996838,20.96266693,-2.86638594,0.33095791,1.42382095

>  <Name>
ligand

>  <RI>
0

>  <Rbt.Current_Directory>
/home/itssahil/PROJECTS/Mol_Feturizer/New_Systems/rnas/3DJ2

>  <Rbt.Executable>
rbdock ($Id: //depot/dev/client3/rdock/2013.1/src/exe/rbdock.cxx#4 $)

>  <Rbt.Library>
libRbt.so (2013.1, Build901 2013/11/27)

>  <Rbt.Parameter_File>
/export/apps/rDock/src/rDock_2013.1_src/data/scripts/dock_solv.prm

>  <Rbt.Receptor>
prm/pocket_docking_8.prm

>  <SCORE>
-9.76114

>  <SCORE.INTER>
-9.13254

>  <SCORE.INTER.CONST>
1

>  <SCORE.INTER.POLAR>
0

>  <SCORE.INTER.ROT>
5

>  <SCORE.INTER.SOLV>
12.4061

>  <SCORE.INTER.VDW>
-17.1571

>  <SCORE.INTER.norm>
-0.913254

>  <SCORE.INTRA>
-0.628602

>  <SCORE.INTRA.DIHEDRAL>
-2.13551

>  <SCORE.INTRA.DIHEDRAL.0>
4.28128

>  <SCORE.INTRA.POLAR>
0

>  <SCORE.INTRA.POLAR.0>
0

>  <SCORE.INTRA.REPUL>
0

>  <SCORE.INTRA.REPUL.0>
0

>  <SCORE.INTRA.SOLV>
0.828291

>  <SCORE.INTRA.SOLV.lig_0>
-32.3374

>  <SCORE.INTRA.VDW>
0.0250067

>  <SCORE.INTRA.VDW.0>
-0.659551

>  <SCORE.INTRA.norm>
-0.0628602

>  <SCORE.RESTR>
0

>  <SCORE.RESTR.CAVITY>
0

>  <SCORE.RESTR.norm>
0

>  <SCORE.SYSTEM>
0

>  <SCORE.SYSTEM.CONST>
0

>  <SCORE.SYSTEM.DIHEDRAL>
0

>  <SCORE.SYSTEM.SOLV>
0

>  <SCORE.SYSTEM.norm>
0

>  <SCORE.heavy>
10

>  <SCORE.norm>
-0.976114

>  <RMSD>
5.450

$$$$
ligand
 OpenBabel11021811473D
libRbt.so/2013.1/901 2013/11/27
 10  9  0  0  0  0  0  0  0  0999 V2000
   27.7090   14.3963   18.3803 N   0  0  0  0  0  0  0  0  0  0  0  0
   27.8342   14.3464   19.8640 C   0  0  2  0  0  0  0  0  0  0  0  0
   26.5984   14.9094   20.5661 C   0  0  0  0  0  0  0  0  0  0  0  0
   26.3941   14.7322   21.7713 O   0  0  0  0  0  0  0  0  0  0  0  0
   29.1062   15.0614   20.3272 C   0  0  0  0  0  0  0  0  0  0  0  0
   29.3500   14.9938   21.8290 C   0  0  0  0  0  0  0  0  0  0  0  0
   30.7252   15.5551   22.1893 C   0  0  0  0  0  0  0  0  0  0  0  0
   30.8405   17.0358   21.8449 C   0  0  0  0  0  0  0  0  0  0  0  0
   32.1991   17.5886   22.1206 N   0  0  0  0  0  0  0  0  0  0  0  0
   25.7790   15.5819   19.9437 O   0  0  0  0  0  0  0  0  0  0  0  0
  2  1  1  6  0  0  0
  2  3  1  0  0  0  0
  2  5  1  0  0  0  0
  3  4  1  0  0  0  0
  3 10  1  0  0  0  0
  5  6  1  0  0  0  0
  6  7  1  0  0  0  0
  7  8  1  0  0  0  0
  8  9  1  0  0  0  0
M  END
>  <CHROM.1>
166.15893590,-176.93981146,172.08630488,63.41699761,-176.93623611,28.61664016
15.42752877,20.89491147,-2.67438956,0.26002333,1.27635589

>  <Name>
ligand

>  <RI>
0

>  <Rbt.Current_Directory>
/home/itssahil/PROJECTS/Mol_Feturizer/New_Systems/rnas/3DJ2

>  <Rbt.Executable>
rbdock ($Id: //depot/dev/client3/rdock/2013.1/src/exe/rbdock.cxx#4 $)

>  <Rbt.Library>
libRbt.so (2013.1, Build901 2013/11/27)

>  <Rbt.Parameter_File>
/export/apps/rDock/src/rDock_2013.1_src/data/scripts/dock_solv.prm

>  <Rbt.Receptor>
prm/pocket_docking_5.prm

>  <SCORE>
-10.1958

>  <SCORE.INTER>
-9.42137

>  <SCORE.INTER.CONST>
1

>  <SCORE.INTER.POLAR>
0

>  <SCORE.INTER.ROT>
5

>  <SCORE.INTER.SOLV>
14.3933

>  <SCORE.INTER.VDW>
-18.012

>  <SCORE.INTER.norm>
-0.942137

>  <SCORE.INTRA>
-0.774411

>  <SCORE.INTRA.DIHEDRAL>
-2.4204

>  <SCORE.INTRA.DIHEDRAL.0>
4.28128

>  <SCORE.INTRA.POLAR>
0

>  <SCORE.INTRA.POLAR.0>
0

>  <SCORE.INTRA.REPUL>
0

>  <SCORE.INTRA.REPUL.0>
0

>  <SCORE.INTRA.SOLV>
-1.0526

>  <SCORE.INTRA.SOLV.lig_0>
-32.3374

>  <SCORE.INTRA.VDW>
0.962091

>  <SCORE.INTRA.VDW.0>
-0.659551

>  <SCORE.INTRA.norm>
-0.0774411

>  <SCORE.RESTR>
0

>  <SCORE.RESTR.CAVITY>
0

>  <SCORE.RESTR.norm>
0

>  <SCORE.SYSTEM>
0

>  <SCORE.SYSTEM.CONST>
0

>  <SCORE.SYSTEM.DIHEDRAL>
0

>  <SCORE.SYSTEM.SOLV>
0

>  <SCORE.SYSTEM.norm>
0

>  <SCORE.heavy>
10

>  <SCORE.norm>
-1.01958

>  <RMSD>
5.452

$$$$
ligand
 OpenBabel11021811473D
libRbt.so/2013.1/901 2013/11/27
 10  9  0  0  0  0  0  0  0  0999 V2000
   27.7668   14.3821   18.7460 N   0  0  0  0  0  0  0  0  0  0  0  0
   28.0240   14.5741   20.2007 C   0  0  2  0  0  0  0  0  0  0  0  0
   26.7518   14.9335   20.9685 C   0  0  0  0  0  0  0  0  0  0  0  0
   26.7123   14.9355   22.2032 O   0  0  0  0  0  0  0  0  0  0  0  0
   29.1191   15.6198   20.4264 C   0  0  0  0  0  0  0  0  0  0  0  0
   29.6101   15.7106   21.8652 C   0  0  0  0  0  0  0  0  0  0  0  0
   30.6681   16.8031   22.0180 C   0  0  0  0  0  0  0  0  0  0  0  0
   31.9412   16.4700   21.2482 C   0  0  0  0  0  0  0  0  0  0  0  0
   33.0134   17.4909   21.4364 N   0  0  0  0  0  0  0  0  0  0  0  0
   25.7299   15.2568   20.3669 O   0  0  0  0  0  0  0  0  0  0  0  0
  2  1  1  6  0  0  0
  2  3  1  0  0  0  0
  2  5  1  0  0  0  0
  3  4  1  0  0  0  0
  3 10  1  0  0  0  0
  5  6  1  0  0  0  0
  6  7  1  0  0  0  0
  7  8  1  0  0  0  0
  8  9  1  0  0  0  0
M  END
>  <CHROM.1>
168.88283960,-170.24325192,-178.23366408,-65.83405760,-177.20600396,28.89509821
15.62017888,20.96266418,-2.86881712,0.29805507,1.25612447

>  <Name>
ligand

>  <RI>
0

>  <Rbt.Current_Directory>
/home/itssahil/PROJECTS/Mol_Feturizer/New_Systems/rnas/3DJ2

>  <Rbt.Executable>
rbdock ($Id: //depot/dev/client3/rdock/2013.1/src/exe/rbdock.cxx#4 $)

>  <Rbt.Library>
libRbt.so (2013.1, Build901 2013/11/27)

>  <Rbt.Parameter_File>
/export/apps/rDock/src/rDock_2013.1_src/data/scripts/dock_solv.prm

>  <Rbt.Receptor>
prm/blind_docking_100.prm

>  <SCORE>
-10.2056

>  <SCORE.INTER>
-9.27533

>  <SCORE.INTER.CONST>
1

>  <SCORE.INTER.POLAR>
0

>  <SCORE.INTER.ROT>
5

>  <SCORE.INTER.SOLV>
14.6282

>  <SCORE.INTER.VDW>
-17.993

>  <SCORE.INTER.norm>
-0.927533

>  <SCORE.INTRA>
-0.930271

>  <SCORE.INTRA.DIHEDRAL>
-2.26279

>  <SCORE.INTRA.DIHEDRAL.0>
4.28128

>  <SCORE.INTRA.POLAR>
0

>  <SCORE.INTRA.POLAR.0>
0

>  <SCORE.INTRA.REPUL>
0

>  <SCORE.INTRA.REPUL.0>
0

>  <SCORE.INTRA.SOLV>
-1.09193

>  <SCORE.INTRA.SOLV.lig_0>
-32.3374

>  <SCORE.INTRA.VDW>
0.747088

>  <SCORE.INTRA.VDW.0>
-0.659551

>  <SCORE.INTRA.norm>
-0.0930271

>  <SCORE.RESTR>
0

>  <SCORE.RESTR.CAVITY>
0

>  <SCORE.RESTR.norm>
0

>  <SCORE.SYSTEM>
0

>  <SCORE.SYSTEM.CONST>
0

>  <SCORE.SYSTEM.DIHEDRAL>
0

>  <SCORE.SYSTEM.SOLV>
0

>  <SCORE.SYSTEM.norm>
0

>  <SCORE.heavy>
10

>  <SCORE.norm>
-1.02056

>  <RMSD>
5.453

$$$$
ligand
 OpenBabel11021811473D
libRbt.so/2013.1/901 2013/11/27
 10  9  0  0  0  0  0  0  0  0999 V2000
   27.0853   13.7958   18.6711 N   0  0  0  0  0  0  0  0  0  0  0  0
   27.6608   14.6861   19.7177 C   0  0  2  0  0  0  0  0  0  0  0  0
   26.7036   14.8887   20.8924 C   0  0  0  0  0  0  0  0  0  0  0  0
   25.4810   14.9653   20.7334 O   0  0  0  0  0  0  0  0  0  0  0  0
   28.0882   16.0275   19.1163 C   0  0  0  0  0  0  0  0  0  0  0  0
   28.7408   16.9791   20.1103 C   0  0  0  0  0  0  0  0  0  0  0  0
   30.1004   16.4509   20.5669 C   0  0  0  0  0  0  0  0  0  0  0  0
   30.7570   17.3799   21.5820 C   0  0  0  0  0  0  0  0  0  0  0  0
   32.1219   16.9270   21.9807 N   0  0  0  0  0  0  0  0  0  0  0  0
   27.1323   14.9572   22.0424 O   0  0  0  0  0  0  0  0  0  0  0  0
  2  1  1  6  0  0  0
  2  3  1  0  0  0  0
  2  5  1  0  0  0  0
  3  4  1  0  0  0  0
  3 10  1  0  0  0  0
  5  6  1  0  0  0  0
  6  7  1  0  0  0  0
  7  8  1  0  0  0  0
  8  9  1  0  0  0  0
M  END
>  <CHROM.1>
-36.08221829,-177.65116397,67.91811147,-178.98520919,-176.54074599,28.35786245
15.70399734,20.56591545,-2.82783958,0.43895534,1.40659654

>  <Name>
ligand

>  <RI>
0

>  <Rbt.Current_Directory>
/home/itssahil/PROJECTS/Mol_Feturizer/New_Systems/rnas/3DJ2

>  <Rbt.Executable>
rbdock ($Id: //depot/dev/client3/rdock/2013.1/src/exe/rbdock.cxx#4 $)

>  <Rbt.Library>
libRbt.so (2013.1, Build901 2013/11/27)

>  <Rbt.Parameter_File>
/export/apps/rDock/src/rDock_2013.1_src/data/scripts/dock_solv.prm

>  <Rbt.Receptor>
prm/pocket_docking_3.prm

>  <SCORE>
-11.0982

>  <SCORE.INTER>
-9.29388

>  <SCORE.INTER.CONST>
1

>  <SCORE.INTER.POLAR>
0

>  <SCORE.INTER.ROT>
5

>  <SCORE.INTER.SOLV>
15.6814

>  <SCORE.INTER.VDW>
-18.3564

>  <SCORE.INTER.norm>
-0.929388

>  <SCORE.INTRA>
-1.80434

>  <SCORE.INTRA.DIHEDRAL>
-2.38825

>  <SCORE.INTRA.DIHEDRAL.0>
4.28128

>  <SCORE.INTRA.POLAR>
0

>  <SCORE.INTRA.POLAR.0>
0

>  <SCORE.INTRA.REPUL>
0

>  <SCORE.INTRA.REPUL.0>
0

>  <SCORE.INTRA.SOLV>
-1.11322

>  <SCORE.INTRA.SOLV.lig_0>
-32.3374

>  <SCORE.INTRA.VDW>
-0.0536104

>  <SCORE.INTRA.VDW.0>
-0.659551

>  <SCORE.INTRA.norm>
-0.180434

>  <SCORE.RESTR>
0

>  <SCORE.RESTR.CAVITY>
0

>  <SCORE.RESTR.norm>
0

>  <SCORE.SYSTEM>
0

>  <SCORE.SYSTEM.CONST>
0

>  <SCORE.SYSTEM.DIHEDRAL>
0

>  <SCORE.SYSTEM.SOLV>
0

>  <SCORE.SYSTEM.norm>
0

>  <SCORE.heavy>
10

>  <SCORE.norm>
-1.10982

>  <RMSD>
5.453

$$$$
ligand
 OpenBabel11021811473D
libRbt.so/2013.1/901 2013/11/27
 10  9  0  0  0  0  0  0  0  0999 V2000
   28.1290   16.3965   19.1913 N   0  0  0  0  0  0  0  0  0  0  0  0
   28.2183   15.4669   20.3520 C   0  0  2  0  0  0  0  0  0  0  0  0
   26.8453   15.1548   20.9475 C   0  0  0  0  0  0  0  0  0  0  0  0
   26.7096   14.7851   22.1183 O   0  0  0  0  0  0  0  0  0  0  0  0
   29.1703   16.0164   21.4176 C   0  0  0  0  0  0  0  0  0  0  0  0
   30.5491   16.3917   20.8908 C   0  0  0  0  0  0  0  0  0  0  0  0
   31.4866   16.7838   22.0324 C   0  0  0  0  0  0  0  0  0  0  0  0
   32.7986   17.3623   21.5143 C   0  0  0  0  0  0  0  0  0  0  0  0
   33.5175   16.4310   20.5961 N   0  0  0  0  0  0  0  0  0  0  0  0
   25.8269   15.2891   20.2725 O   0  0  0  0  0  0  0  0  0  0  0  0
  2  1  1  6  0  0  0
  2  3  1  0  0  0  0
  2  5  1  0  0  0  0
  3  4  1  0  0  0  0
  3 10  1  0  0  0  0
  5  6  1  0  0  0  0
  6  7  1  0  0  0  0
  7  8  1  0  0  0  0
  8  9  1  0  0  0  0
M  END
>  <CHROM.1>
-156.19978843,-52.82540683,-173.73483614,-171.37032261,-56.87886756,29.28255370
15.99654935,20.94485694,-3.12721130,0.26842279,1.78555547

>  <Name>
ligand

>  <RI>
0

>  <Rbt.Current_Directory>
/home/itssahil/PROJECTS/Mol_Feturizer/New_Systems/rnas/3DJ2

>  <Rbt.Executable>
rbdock ($Id: //depot/dev/client3/rdock/2013.1/src/exe/rbdock.cxx#4 $)

>  <Rbt.Library>
libRbt.so (2013.1, Build901 2013/11/27)

>  <Rbt.Parameter_File>
/export/apps/rDock/src/rDock_2013.1_src/data/scripts/dock_solv.prm

>  <Rbt.Receptor>
prm/blind_docking_60.prm

>  <SCORE>
-8.6658

>  <SCORE.INTER>
-8.48758

>  <SCORE.INTER.CONST>
1

>  <SCORE.INTER.POLAR>
0

>  <SCORE.INTER.ROT>
5

>  <SCORE.INTER.SOLV>
15.672

>  <SCORE.INTER.VDW>
-17.8157

>  <SCORE.INTER.norm>
-0.848758

>  <SCORE.INTRA>
-0.178219

>  <SCORE.INTRA.DIHEDRAL>
-2.02474

>  <SCORE.INTRA.DIHEDRAL.0>
4.28128

>  <SCORE.INTRA.POLAR>
0

>  <SCORE.INTRA.POLAR.0>
0

>  <SCORE.INTRA.REPUL>
0

>  <SCORE.INTRA.REPUL.0>
0

>  <SCORE.INTRA.SOLV>
0.578917

>  <SCORE.INTRA.SOLV.lig_0>
-32.3374

>  <SCORE.INTRA.VDW>
0.544694

>  <SCORE.INTRA.VDW.0>
-0.659551

>  <SCORE.INTRA.norm>
-0.0178219

>  <SCORE.RESTR>
0

>  <SCORE.RESTR.CAVITY>
0

>  <SCORE.RESTR.norm>
0

>  <SCORE.SYSTEM>
0

>  <SCORE.SYSTEM.CONST>
0

>  <SCORE.SYSTEM.DIHEDRAL>
0

>  <SCORE.SYSTEM.SOLV>
0

>  <SCORE.SYSTEM.norm>
0

>  <SCORE.heavy>
10

>  <SCORE.norm>
-0.86658

>  <RMSD>
5.454

$$$$
ligand
 OpenBabel11021811473D
libRbt.so/2013.1/901 2013/11/27
 10  9  0  0  0  0  0  0  0  0999 V2000
   28.8178   16.6476   19.6341 N   0  0  0  0  0  0  0  0  0  0  0  0
   28.4758   15.2923   20.1494 C   0  0  2  0  0  0  0  0  0  0  0  0
   27.0633   14.8638   19.7514 C   0  0  0  0  0  0  0  0  0  0  0  0
   26.8559   14.0886   18.8123 O   0  0  0  0  0  0  0  0  0  0  0  0
   28.6669   15.2228   21.6668 C   0  0  0  0  0  0  0  0  0  0  0  0
   30.1220   15.2460   22.1157 C   0  0  0  0  0  0  0  0  0  0  0  0
   30.7534   16.6154   21.8662 C   0  0  0  0  0  0  0  0  0  0  0  0
   32.2555   16.6022   22.1269 C   0  0  0  0  0  0  0  0  0  0  0  0
   32.8876   17.9396   21.9286 N   0  0  0  0  0  0  0  0  0  0  0  0
   26.0878   15.2678   20.3807 O   0  0  0  0  0  0  0  0  0  0  0  0
  2  1  1  1  0  0  0
  2  3  1  0  0  0  0
  2  5  1  0  0  0  0
  3  4  1  0  0  0  0
  3 10  1  0  0  0  0
  5  6  1  0  0  0  0
  6  7  1  0  0  0  0
  7  8  1  0  0  0  0
  8  9  1  0  0  0  0
M  END
>  <CHROM.1>
100.78258073,-71.01635316,69.43187117,-172.05421810,-178.30429171,29.15757368
15.76395406,20.82892227,-2.98051480,0.53407358,2.07765031

>  <Name>
ligand

>  <RI>
0

>  <Rbt.Current_Directory>
/home/itssahil/PROJECTS/Mol_Feturizer/New_Systems/rnas/3DJ2

>  <Rbt.Executable>
rbdock ($Id: //depot/dev/client3/rdock/2013.1/src/exe/rbdock.cxx#4 $)

>  <Rbt.Library>
libRbt.so (2013.1, Build901 2013/11/27)

>  <Rbt.Parameter_File>
/export/apps/rDock/src/rDock_2013.1_src/data/scripts/dock_solv.prm

>  <Rbt.Receptor>
prm/blind_docking_60.prm

>  <SCORE>
-8.76027

>  <SCORE.INTER>
-8.75882

>  <SCORE.INTER.CONST>
1

>  <SCORE.INTER.POLAR>
0

>  <SCORE.INTER.ROT>
5

>  <SCORE.INTER.SOLV>
13.5235

>  <SCORE.INTER.VDW>
-17.2804

>  <SCORE.INTER.norm>
-0.875882

>  <SCORE.INTRA>
-0.00145292

>  <SCORE.INTRA.DIHEDRAL>
-1.5872

>  <SCORE.INTRA.DIHEDRAL.0>
4.28128

>  <SCORE.INTRA.POLAR>
0

>  <SCORE.INTRA.POLAR.0>
0

>  <SCORE.INTRA.REPUL>
0

>  <SCORE.INTRA.REPUL.0>
0

>  <SCORE.INTRA.SOLV>
0.878879

>  <SCORE.INTRA.SOLV.lig_0>
-32.3374

>  <SCORE.INTRA.VDW>
0.352709

>  <SCORE.INTRA.VDW.0>
-0.659551

>  <SCORE.INTRA.norm>
-0.000145292

>  <SCORE.RESTR>
0

>  <SCORE.RESTR.CAVITY>
0

>  <SCORE.RESTR.norm>
0

>  <SCORE.SYSTEM>
0

>  <SCORE.SYSTEM.CONST>
0

>  <SCORE.SYSTEM.DIHEDRAL>
0

>  <SCORE.SYSTEM.SOLV>
0

>  <SCORE.SYSTEM.norm>
0

>  <SCORE.heavy>
10

>  <SCORE.norm>
-0.876027

>  <RMSD>
5.454

$$$$
ligand
 OpenBabel11021811473D
libRbt.so/2013.1/901 2013/11/27
 10  9  0  0  0  0  0  0  0  0999 V2000
   27.0838   13.7992   18.6737 N   0  0  0  0  0  0  0  0  0  0  0  0
   27.6612   14.6842   19.7238 C   0  0  2  0  0  0  0  0  0  0  0  0
   26.7122   14.8687   20.9081 C   0  0  0  0  0  0  0  0  0  0  0  0
   27.1255   14.9610   22.0685 O   0  0  0  0  0  0  0  0  0  0  0  0
   28.0736   16.0343   19.1314 C   0  0  0  0  0  0  0  0  0  0  0  0
   28.7511   16.9715   20.1224 C   0  0  0  0  0  0  0  0  0  0  0  0
   30.1214   16.4366   20.5376 C   0  0  0  0  0  0  0  0  0  0  0  0
   30.8125   17.3619   21.5329 C   0  0  0  0  0  0  0  0  0  0  0  0
   32.1839   16.8983   21.8959 N   0  0  0  0  0  0  0  0  0  0  0  0
   25.4992   14.9545   20.7285 O   0  0  0  0  0  0  0  0  0  0  0  0
  2  1  1  6  0  0  0
  2  3  1  0  0  0  0
  2  5  1  0  0  0  0
  3  4  1  0  0  0  0
  3 10  1  0  0  0  0
  5  6  1  0  0  0  0
  6  7  1  0  0  0  0
  7  8  1  0  0  0  0
  8  9  1  0  0  0  0
M  END
>  <CHROM.1>
144.11317090,-176.54633218,67.88700924,-179.86436770,-176.85826662,28.37309744
15.69551408,20.55694872,-2.84525317,0.43450429,1.40869816

>  <Name>
ligand

>  <RI>
0

>  <Rbt.Current_Directory>
/home/itssahil/PROJECTS/Mol_Feturizer/New_Systems/rnas/3DJ2

>  <Rbt.Executable>
rbdock ($Id: //depot/dev/client3/rdock/2013.1/src/exe/rbdock.cxx#4 $)

>  <Rbt.Library>
libRbt.so (2013.1, Build901 2013/11/27)

>  <Rbt.Parameter_File>
/export/apps/rDock/src/rDock_2013.1_src/data/scripts/dock_solv.prm

>  <Rbt.Receptor>
prm/pocket_docking_5.prm

>  <SCORE>
-11.1542

>  <SCORE.INTER>
-9.31005

>  <SCORE.INTER.CONST>
1

>  <SCORE.INTER.POLAR>
0

>  <SCORE.INTER.ROT>
5

>  <SCORE.INTER.SOLV>
15.7219

>  <SCORE.INTER.VDW>
-18.3807

>  <SCORE.INTER.norm>
-0.931005

>  <SCORE.INTRA>
-1.84415

>  <SCORE.INTRA.DIHEDRAL>
-2.47029

>  <SCORE.INTRA.DIHEDRAL.0>
4.28128

>  <SCORE.INTRA.POLAR>
0

>  <SCORE.INTRA.POLAR.0>
0

>  <SCORE.INTRA.REPUL>
0

>  <SCORE.INTRA.REPUL.0>
0

>  <SCORE.INTRA.SOLV>
-1.10724

>  <SCORE.INTRA.SOLV.lig_0>
-32.3374

>  <SCORE.INTRA.VDW>
-0.0553808

>  <SCORE.INTRA.VDW.0>
-0.659551

>  <SCORE.INTRA.norm>
-0.184415

>  <SCORE.RESTR>
0

>  <SCORE.RESTR.CAVITY>
0

>  <SCORE.RESTR.norm>
0

>  <SCORE.SYSTEM>
0

>  <SCORE.SYSTEM.CONST>
0

>  <SCORE.SYSTEM.DIHEDRAL>
0

>  <SCORE.SYSTEM.SOLV>
0

>  <SCORE.SYSTEM.norm>
0

>  <SCORE.heavy>
10

>  <SCORE.norm>
-1.11542

>  <RMSD>
5.455

$$$$
ligand
 OpenBabel11021811473D
libRbt.so/2013.1/901 2013/11/27
 10  9  0  0  0  0  0  0  0  0999 V2000
   26.6555   14.4007   20.5327 N   0  0  0  0  0  0  0  0  0  0  0  0
   26.9605   15.3191   19.4001 C   0  0  2  0  0  0  0  0  0  0  0  0
   27.7149   14.6136   18.2730 C   0  0  0  0  0  0  0  0  0  0  0  0
   28.3453   15.2411   17.4158 O   0  0  0  0  0  0  0  0  0  0  0  0
   27.7257   16.5514   19.8896 C   0  0  0  0  0  0  0  0  0  0  0  0
   28.7865   16.2523   20.9406 C   0  0  0  0  0  0  0  0  0  0  0  0
   29.9612   15.4849   20.3344 C   0  0  0  0  0  0  0  0  0  0  0  0
   31.1147   15.3435   21.3212 C   0  0  0  0  0  0  0  0  0  0  0  0
   31.7319   16.6543   21.6794 N   0  0  0  0  0  0  0  0  0  0  0  0
   27.7318   13.3863   18.2057 O   0  0  0  0  0  0  0  0  0  0  0  0
  2  1  1  1  0  0  0
  2  3  1  0  0  0  0
  2  5  1  0  0  0  0
  3  4  1  0  0  0  0
  3 10  1  0  0  0  0
  5  6  1  0  0  0  0
  6  7  1  0  0  0  0
  7  8  1  0  0  0  0
  8  9  1  0  0  0  0
M  END
>  <CHROM.1>
-161.58986531,40.38597705,69.72158049,172.19377414,-64.98905309,28.68082915
15.30659314,19.76794960,2.40310710,-0.05400303,-2.03102735

>  <Name>
ligand

>  <RI>
0

>  <Rbt.Current_Directory>
/home/itssahil/PROJECTS/Mol_Feturizer/New_Systems/rnas/3DJ2

>  <Rbt.Executable>
rbdock ($Id: //depot/dev/client3/rdock/2013.1/src/exe/rbdock.cxx#4 $)

>  <Rbt.Library>
libRbt.so (2013.1, Build901 2013/11/27)

>  <Rbt.Parameter_File>
/export/apps/rDock/src/rDock_2013.1_src/data/scripts/dock_solv.prm

>  <Rbt.Receptor>
prm/pocket_docking_7.prm

>  <SCORE>
-6.92954

>  <SCORE.INTER>
-7.82908

>  <SCORE.INTER.CONST>
1

>  <SCORE.INTER.POLAR>
0

>  <SCORE.INTER.ROT>
5

>  <SCORE.INTER.SOLV>
14.5327

>  <SCORE.INTER.VDW>
-16.9969

>  <SCORE.INTER.norm>
-0.782908

>  <SCORE.INTRA>
0.899545

>  <SCORE.INTRA.DIHEDRAL>
-0.564435

>  <SCORE.INTRA.DIHEDRAL.0>
4.28128

>  <SCORE.INTRA.POLAR>
0

>  <SCORE.INTRA.POLAR.0>
0

>  <SCORE.INTRA.REPUL>
0

>  <SCORE.INTRA.REPUL.0>
0

>  <SCORE.INTRA.SOLV>
1.38097

>  <SCORE.INTRA.SOLV.lig_0>
-32.3374

>  <SCORE.INTRA.VDW>
0.491277

>  <SCORE.INTRA.VDW.0>
-0.659551

>  <SCORE.INTRA.norm>
0.0899545

>  <SCORE.RESTR>
0

>  <SCORE.RESTR.CAVITY>
0

>  <SCORE.RESTR.norm>
0

>  <SCORE.SYSTEM>
0

>  <SCORE.SYSTEM.CONST>
0

>  <SCORE.SYSTEM.DIHEDRAL>
0

>  <SCORE.SYSTEM.SOLV>
0

>  <SCORE.SYSTEM.norm>
0

>  <SCORE.heavy>
10

>  <SCORE.norm>
-0.692954

>  <RMSD>
5.456

$$$$
ligand
 OpenBabel11021811473D
libRbt.so/2013.1/901 2013/11/27
 10  9  0  0  0  0  0  0  0  0999 V2000
   27.0742   13.8037   18.6684 N   0  0  0  0  0  0  0  0  0  0  0  0
   27.6524   14.6824   19.7234 C   0  0  2  0  0  0  0  0  0  0  0  0
   26.6997   14.8685   20.9045 C   0  0  0  0  0  0  0  0  0  0  0  0
   25.4757   14.9354   20.7525 O   0  0  0  0  0  0  0  0  0  0  0  0
   28.0745   16.0319   19.1367 C   0  0  0  0  0  0  0  0  0  0  0  0
   28.7299   16.9723   20.1394 C   0  0  0  0  0  0  0  0  0  0  0  0
   30.0999   16.4496   20.5706 C   0  0  0  0  0  0  0  0  0  0  0  0
   30.7680   17.3770   21.5795 C   0  0  0  0  0  0  0  0  0  0  0  0
   32.1333   16.9179   21.9698 N   0  0  0  0  0  0  0  0  0  0  0  0
   27.1340   14.9332   22.0526 O   0  0  0  0  0  0  0  0  0  0  0  0
  2  1  1  6  0  0  0
  2  3  1  0  0  0  0
  2  5  1  0  0  0  0
  3  4  1  0  0  0  0
  3 10  1  0  0  0  0
  5  6  1  0  0  0  0
  6  7  1  0  0  0  0
  7  8  1  0  0  0  0
  8  9  1  0  0  0  0
M  END
>  <CHROM.1>
-35.57276288,-177.62903876,68.59937894,-179.76690634,-177.46682074,28.35495828
15.69503872,20.57449253,-2.83584543,0.44237654,1.41611459

>  <Name>
ligand

>  <RI>
0

>  <Rbt.Current_Directory>
/home/itssahil/PROJECTS/Mol_Feturizer/New_Systems/rnas/3DJ2

>  <Rbt.Executable>
rbdock ($Id: //depot/dev/client3/rdock/2013.1/src/exe/rbdock.cxx#4 $)

>  <Rbt.Library>
libRbt.so (2013.1, Build901 2013/11/27)

>  <Rbt.Parameter_File>
/export/apps/rDock/src/rDock_2013.1_src/data/scripts/dock_solv.prm

>  <Rbt.Receptor>
prm/pocket_docking_3.prm

>  <SCORE>
-11.0793

>  <SCORE.INTER>
-9.27774

>  <SCORE.INTER.CONST>
1

>  <SCORE.INTER.POLAR>
0

>  <SCORE.INTER.ROT>
5

>  <SCORE.INTER.SOLV>
15.7385

>  <SCORE.INTER.VDW>
-18.3646

>  <SCORE.INTER.norm>
-0.927774

>  <SCORE.INTRA>
-1.80157

>  <SCORE.INTRA.DIHEDRAL>
-2.36667

>  <SCORE.INTRA.DIHEDRAL.0>
4.28128

>  <SCORE.INTRA.POLAR>
0

>  <SCORE.INTRA.POLAR.0>
0

>  <SCORE.INTRA.REPUL>
0

>  <SCORE.INTRA.REPUL.0>
0

>  <SCORE.INTRA.SOLV>
-1.11718

>  <SCORE.INTRA.SOLV.lig_0>
-32.3374

>  <SCORE.INTRA.VDW>
-0.0596512

>  <SCORE.INTRA.VDW.0>
-0.659551

>  <SCORE.INTRA.norm>
-0.180157

>  <SCORE.RESTR>
0

>  <SCORE.RESTR.CAVITY>
0

>  <SCORE.RESTR.norm>
0

>  <SCORE.SYSTEM>
0

>  <SCORE.SYSTEM.CONST>
0

>  <SCORE.SYSTEM.DIHEDRAL>
0

>  <SCORE.SYSTEM.SOLV>
0

>  <SCORE.SYSTEM.norm>
0

>  <SCORE.heavy>
10

>  <SCORE.norm>
-1.10793

>  <RMSD>
5.458

$$$$
ligand
 OpenBabel11021811473D
libRbt.so/2013.1/901 2013/11/27
 10  9  0  0  0  0  0  0  0  0999 V2000
   28.6366   15.9008   19.3404 N   0  0  0  0  0  0  0  0  0  0  0  0
   28.2147   15.1404   20.5500 C   0  0  2  0  0  0  0  0  0  0  0  0
   26.6960   15.1325   20.7253 C   0  0  0  0  0  0  0  0  0  0  0  0
   25.9399   15.6506   19.8972 O   0  0  0  0  0  0  0  0  0  0  0  0
   28.9122   15.6788   21.8020 C   0  0  0  0  0  0  0  0  0  0  0  0
   30.4325   15.6051   21.7515 C   0  0  0  0  0  0  0  0  0  0  0  0
   31.0020   16.6405   20.7822 C   0  0  0  0  0  0  0  0  0  0  0  0
   32.5255   16.5983   20.7392 C   0  0  0  0  0  0  0  0  0  0  0  0
   33.1509   17.0044   22.0320 N   0  0  0  0  0  0  0  0  0  0  0  0
   26.1827   14.5816   21.6969 O   0  0  0  0  0  0  0  0  0  0  0  0
  2  1  1  6  0  0  0
  2  3  1  0  0  0  0
  2  5  1  0  0  0  0
  3  4  1  0  0  0  0
  3 10  1  0  0  0  0
  5  6  1  0  0  0  0
  6  7  1  0  0  0  0
  7  8  1  0  0  0  0
  8  9  1  0  0  0  0
M  END
>  <CHROM.1>
3.46977248,-59.62526297,72.29958925,178.91934670,-65.69048836,29.12406454
15.78828166,20.93363043,-3.10268989,0.27496797,1.87267164

>  <Name>
ligand

>  <RI>
0

>  <Rbt.Current_Directory>
/home/itssahil/PROJECTS/Mol_Feturizer/New_Systems/rnas/3DJ2

>  <Rbt.Executable>
rbdock ($Id: //depot/dev/client3/rdock/2013.1/src/exe/rbdock.cxx#4 $)

>  <Rbt.Library>
libRbt.so (2013.1, Build901 2013/11/27)

>  <Rbt.Parameter_File>
/export/apps/rDock/src/rDock_2013.1_src/data/scripts/dock_solv.prm

>  <Rbt.Receptor>
prm/pocket_docking_3.prm

>  <SCORE>
-9.44506

>  <SCORE.INTER>
-10.0574

>  <SCORE.INTER.CONST>
1

>  <SCORE.INTER.POLAR>
0

>  <SCORE.INTER.ROT>
5

>  <SCORE.INTER.SOLV>
12.6111

>  <SCORE.INTER.VDW>
-17.842

>  <SCORE.INTER.norm>
-1.00574

>  <SCORE.INTRA>
0.607781

>  <SCORE.INTRA.DIHEDRAL>
-2.02341

>  <SCORE.INTRA.DIHEDRAL.0>
4.28128

>  <SCORE.INTRA.POLAR>
0

>  <SCORE.INTRA.POLAR.0>
0

>  <SCORE.INTRA.REPUL>
0

>  <SCORE.INTRA.REPUL.0>
0

>  <SCORE.INTRA.SOLV>
1.96155

>  <SCORE.INTRA.SOLV.lig_0>
-32.3374

>  <SCORE.INTRA.VDW>
0.638714

>  <SCORE.INTRA.VDW.0>
-0.659551

>  <SCORE.INTRA.norm>
0.0607781

>  <SCORE.RESTR>
0.00454773

>  <SCORE.RESTR.CAVITY>
0.00454773

>  <SCORE.RESTR.norm>
0.000454773

>  <SCORE.SYSTEM>
0

>  <SCORE.SYSTEM.CONST>
0

>  <SCORE.SYSTEM.DIHEDRAL>
0

>  <SCORE.SYSTEM.SOLV>
0

>  <SCORE.SYSTEM.norm>
0

>  <SCORE.heavy>
10

>  <SCORE.norm>
-0.944506

>  <RMSD>
5.459

$$$$
ligand
 OpenBabel11021811473D
libRbt.so/2013.1/901 2013/11/27
 10  9  0  0  0  0  0  0  0  0999 V2000
   27.0889   13.6855   18.6395 N   0  0  0  0  0  0  0  0  0  0  0  0
   27.6534   14.6183   19.6547 C   0  0  2  0  0  0  0  0  0  0  0  0
   26.6968   14.8431   20.8259 C   0  0  0  0  0  0  0  0  0  0  0  0
   25.4874   15.0281   20.6556 O   0  0  0  0  0  0  0  0  0  0  0  0
   28.0570   15.9462   19.0088 C   0  0  0  0  0  0  0  0  0  0  0  0
   28.7014   16.9380   19.9682 C   0  0  0  0  0  0  0  0  0  0  0  0
   30.0436   16.4160   20.4803 C   0  0  0  0  0  0  0  0  0  0  0  0
   30.6926   17.3877   21.4597 C   0  0  0  0  0  0  0  0  0  0  0  0
   32.0298   16.9236   21.9326 N   0  0  0  0  0  0  0  0  0  0  0  0
   27.1108   14.8213   21.9831 O   0  0  0  0  0  0  0  0  0  0  0  0
  2  1  1  6  0  0  0
  2  3  1  0  0  0  0
  2  5  1  0  0  0  0
  3  4  1  0  0  0  0
  3 10  1  0  0  0  0
  5  6  1  0  0  0  0
  6  7  1  0  0  0  0
  7  8  1  0  0  0  0
  8  9  1  0  0  0  0
M  END
>  <CHROM.1>
-43.44455286,-177.46172932,65.40314569,-179.10611571,-177.76264401,28.32703059
15.65942161,20.48542314,-2.82984510,0.45562530,1.41282817

>  <Name>
ligand

>  <RI>
0

>  <Rbt.Current_Directory>
/home/itssahil/PROJECTS/Mol_Feturizer/New_Systems/rnas/3DJ2

>  <Rbt.Executable>
rbdock ($Id: //depot/dev/client3/rdock/2013.1/src/exe/rbdock.cxx#4 $)

>  <Rbt.Library>
libRbt.so (2013.1, Build901 2013/11/27)

>  <Rbt.Parameter_File>
/export/apps/rDock/src/rDock_2013.1_src/data/scripts/dock_solv.prm

>  <Rbt.Receptor>
prm/pocket_docking_4.prm

>  <SCORE>
-11.0746

>  <SCORE.INTER>
-9.20661

>  <SCORE.INTER.CONST>
1

>  <SCORE.INTER.POLAR>
0

>  <SCORE.INTER.ROT>
5

>  <SCORE.INTER.SOLV>
15.5531

>  <SCORE.INTER.VDW>
-18.2554

>  <SCORE.INTER.norm>
-0.920661

>  <SCORE.INTRA>
-1.86802

>  <SCORE.INTRA.DIHEDRAL>
-2.56025

>  <SCORE.INTRA.DIHEDRAL.0>
4.28128

>  <SCORE.INTRA.POLAR>
0

>  <SCORE.INTRA.POLAR.0>
0

>  <SCORE.INTRA.REPUL>
0

>  <SCORE.INTRA.REPUL.0>
0

>  <SCORE.INTRA.SOLV>
-1.10145

>  <SCORE.INTRA.SOLV.lig_0>
-32.3374

>  <SCORE.INTRA.VDW>
-0.0371688

>  <SCORE.INTRA.VDW.0>
-0.659551

>  <SCORE.INTRA.norm>
-0.186802

>  <SCORE.RESTR>
0

>  <SCORE.RESTR.CAVITY>
0

>  <SCORE.RESTR.norm>
0

>  <SCORE.SYSTEM>
0

>  <SCORE.SYSTEM.CONST>
0

>  <SCORE.SYSTEM.DIHEDRAL>
0

>  <SCORE.SYSTEM.SOLV>
0

>  <SCORE.SYSTEM.norm>
0

>  <SCORE.heavy>
10

>  <SCORE.norm>
-1.10746

>  <RMSD>
5.461

$$$$
ligand
 OpenBabel11021811473D
libRbt.so/2013.1/901 2013/11/27
 10  9  0  0  0  0  0  0  0  0999 V2000
   25.5903   15.2477   20.5692 N   0  0  0  0  0  0  0  0  0  0  0  0
   27.0648   15.4432   20.4869 C   0  0  2  0  0  0  0  0  0  0  0  0
   27.6139   15.1104   19.0995 C   0  0  0  0  0  0  0  0  0  0  0  0
   28.3584   15.8840   18.4886 O   0  0  0  0  0  0  0  0  0  0  0  0
   27.7822   14.6367   21.5726 C   0  0  0  0  0  0  0  0  0  0  0  0
   29.3000   14.7566   21.5407 C   0  0  0  0  0  0  0  0  0  0  0  0
   29.7502   16.1597   21.9465 C   0  0  0  0  0  0  0  0  0  0  0  0
   31.2696   16.2841   21.9638 C   0  0  0  0  0  0  0  0  0  0  0  0
   31.7326   17.6521   22.3400 N   0  0  0  0  0  0  0  0  0  0  0  0
   27.3428   14.0390   18.5613 O   0  0  0  0  0  0  0  0  0  0  0  0
  2  1  1  6  0  0  0
  2  3  1  0  0  0  0
  2  5  1  0  0  0  0
  3  4  1  0  0  0  0
  3 10  1  0  0  0  0
  5  6  1  0  0  0  0
  6  7  1  0  0  0  0
  7  8  1  0  0  0  0
  8  9  1  0  0  0  0
M  END
>  <CHROM.1>
130.12149060,178.74496144,68.96271992,178.14409695,179.23723801,28.58468270
15.51185420,20.62053431,2.59284617,-0.39935969,-1.60686169

>  <Name>
ligand

>  <RI>
0

>  <Rbt.Current_Directory>
/home/itssahil/PROJECTS/Mol_Feturizer/New_Systems/rnas/3DJ2

>  <Rbt.Executable>
rbdock ($Id: //depot/dev/client3/rdock/2013.1/src/exe/rbdock.cxx#4 $)

>  <Rbt.Library>
libRbt.so (2013.1, Build901 2013/11/27)

>  <Rbt.Parameter_File>
/export/apps/rDock/src/rDock_2013.1_src/data/scripts/dock_solv.prm

>  <Rbt.Receptor>
prm/pocket_docking_6.prm

>  <SCORE>
-9.43884

>  <SCORE.INTER>
-7.65665

>  <SCORE.INTER.CONST>
1

>  <SCORE.INTER.POLAR>
0

>  <SCORE.INTER.ROT>
5

>  <SCORE.INTER.SOLV>
18.1406

>  <SCORE.INTER.VDW>
-18.0846

>  <SCORE.INTER.norm>
-0.765665

>  <SCORE.INTRA>
-1.78219

>  <SCORE.INTRA.DIHEDRAL>
-2.42168

>  <SCORE.INTRA.DIHEDRAL.0>
4.28128

>  <SCORE.INTRA.POLAR>
0

>  <SCORE.INTRA.POLAR.0>
0

>  <SCORE.INTRA.REPUL>
0

>  <SCORE.INTRA.REPUL.0>
0

>  <SCORE.INTRA.SOLV>
-1.15041

>  <SCORE.INTRA.SOLV.lig_0>
-32.3374

>  <SCORE.INTRA.VDW>
0.00385211

>  <SCORE.INTRA.VDW.0>
-0.659551

>  <SCORE.INTRA.norm>
-0.178219

>  <SCORE.RESTR>
0

>  <SCORE.RESTR.CAVITY>
0

>  <SCORE.RESTR.norm>
0

>  <SCORE.SYSTEM>
0

>  <SCORE.SYSTEM.CONST>
0

>  <SCORE.SYSTEM.DIHEDRAL>
0

>  <SCORE.SYSTEM.SOLV>
0

>  <SCORE.SYSTEM.norm>
0

>  <SCORE.heavy>
10

>  <SCORE.norm>
-0.943884

>  <RMSD>
5.462

$$$$
ligand
 OpenBabel11021811473D
libRbt.so/2013.1/901 2013/11/27
 10  9  0  0  0  0  0  0  0  0999 V2000
   28.6290   15.0379   19.0717 N   0  0  0  0  0  0  0  0  0  0  0  0
   28.2017   14.7656   20.4726 C   0  0  2  0  0  0  0  0  0  0  0  0
   26.7099   15.0264   20.6812 C   0  0  0  0  0  0  0  0  0  0  0  0
   26.1293   14.7028   21.7224 O   0  0  0  0  0  0  0  0  0  0  0  0
   29.0466   15.5686   21.4651 C   0  0  0  0  0  0  0  0  0  0  0  0
   30.5270   15.2109   21.4590 C   0  0  0  0  0  0  0  0  0  0  0  0
   31.3209   16.1367   22.3803 C   0  0  0  0  0  0  0  0  0  0  0  0
   31.4606   17.5365   21.7926 C   0  0  0  0  0  0  0  0  0  0  0  0
   32.3843   18.4041   22.5810 N   0  0  0  0  0  0  0  0  0  0  0  0
   26.0482   15.5941   19.8147 O   0  0  0  0  0  0  0  0  0  0  0  0
  2  1  1  6  0  0  0
  2  3  1  0  0  0  0
  2  5  1  0  0  0  0
  3  4  1  0  0  0  0
  3 10  1  0  0  0  0
  5  6  1  0  0  0  0
  6  7  1  0  0  0  0
  7  8  1  0  0  0  0
  8  9  1  0  0  0  0
M  END
>  <CHROM.1>
170.79588043,-63.09468686,174.90057693,-72.61711332,-172.21910940,29.00207276
15.79833839,21.14506503,-2.71541166,0.29282013,1.21842030

>  <Name>
ligand

>  <RI>
0

>  <Rbt.Current_Directory>
/home/itssahil/PROJECTS/Mol_Feturizer/New_Systems/rnas/3DJ2

>  <Rbt.Executable>
rbdock ($Id: //depot/dev/client3/rdock/2013.1/src/exe/rbdock.cxx#4 $)

>  <Rbt.Library>
libRbt.so (2013.1, Build901 2013/11/27)

>  <Rbt.Parameter_File>
/export/apps/rDock/src/rDock_2013.1_src/data/scripts/dock_solv.prm

>  <Rbt.Receptor>
prm/blind_docking_60.prm

>  <SCORE>
-9.87152

>  <SCORE.INTER>
-9.23719

>  <SCORE.INTER.CONST>
1

>  <SCORE.INTER.POLAR>
0

>  <SCORE.INTER.ROT>
5

>  <SCORE.INTER.SOLV>
13.7675

>  <SCORE.INTER.VDW>
-17.6806

>  <SCORE.INTER.norm>
-0.923719

>  <SCORE.INTRA>
-0.634332

>  <SCORE.INTRA.DIHEDRAL>
-1.75933

>  <SCORE.INTRA.DIHEDRAL.0>
4.28128

>  <SCORE.INTRA.POLAR>
0

>  <SCORE.INTRA.POLAR.0>
0

>  <SCORE.INTRA.REPUL>
0

>  <SCORE.INTRA.REPUL.0>
0

>  <SCORE.INTRA.SOLV>
-0.247967

>  <SCORE.INTRA.SOLV.lig_0>
-32.3374

>  <SCORE.INTRA.VDW>
0.369315

>  <SCORE.INTRA.VDW.0>
-0.659551

>  <SCORE.INTRA.norm>
-0.0634332

>  <SCORE.RESTR>
0

>  <SCORE.RESTR.CAVITY>
0

>  <SCORE.RESTR.norm>
0

>  <SCORE.SYSTEM>
0

>  <SCORE.SYSTEM.CONST>
0

>  <SCORE.SYSTEM.DIHEDRAL>
0

>  <SCORE.SYSTEM.SOLV>
0

>  <SCORE.SYSTEM.norm>
0

>  <SCORE.heavy>
10

>  <SCORE.norm>
-0.987152

>  <RMSD>
5.465

$$$$
ligand
 OpenBabel11021811473D
libRbt.so/2013.1/901 2013/11/27
 10  9  0  0  0  0  0  0  0  0999 V2000
   28.5703   14.4274   19.1028 N   0  0  0  0  0  0  0  0  0  0  0  0
   28.0163   14.3009   20.4799 C   0  0  2  0  0  0  0  0  0  0  0  0
   26.7046   15.0683   20.6462 C   0  0  0  0  0  0  0  0  0  0  0  0
   25.8354   14.7105   21.4477 O   0  0  0  0  0  0  0  0  0  0  0  0
   29.0476   14.7377   21.5237 C   0  0  0  0  0  0  0  0  0  0  0  0
   29.5752   16.1528   21.3276 C   0  0  0  0  0  0  0  0  0  0  0  0
   30.7939   16.4136   22.2124 C   0  0  0  0  0  0  0  0  0  0  0  0
   31.4025   17.7862   21.9477 C   0  0  0  0  0  0  0  0  0  0  0  0
   32.6899   17.9964   22.6727 N   0  0  0  0  0  0  0  0  0  0  0  0
   26.4907   16.0879   19.9939 O   0  0  0  0  0  0  0  0  0  0  0  0
  2  1  1  6  0  0  0
  2  3  1  0  0  0  0
  2  5  1  0  0  0  0
  3  4  1  0  0  0  0
  3 10  1  0  0  0  0
  5  6  1  0  0  0  0
  6  7  1  0  0  0  0
  7  8  1  0  0  0  0
  8  9  1  0  0  0  0
M  END
>  <CHROM.1>
150.87038018,56.31047101,-168.17934864,175.43813142,-172.79221657,28.87321308
15.77820237,21.13561363,-2.58796479,0.07313073,0.72994130

>  <Name>
ligand

>  <RI>
0

>  <Rbt.Current_Directory>
/home/itssahil/PROJECTS/Mol_Feturizer/New_Systems/rnas/3DJ2

>  <Rbt.Executable>
rbdock ($Id: //depot/dev/client3/rdock/2013.1/src/exe/rbdock.cxx#4 $)

>  <Rbt.Library>
libRbt.so (2013.1, Build901 2013/11/27)

>  <Rbt.Parameter_File>
/export/apps/rDock/src/rDock_2013.1_src/data/scripts/dock_solv.prm

>  <Rbt.Receptor>
prm/pocket_docking_4.prm

>  <SCORE>
-9.98132

>  <SCORE.INTER>
-8.74311

>  <SCORE.INTER.CONST>
1

>  <SCORE.INTER.POLAR>
0

>  <SCORE.INTER.ROT>
5

>  <SCORE.INTER.SOLV>
14.1979

>  <SCORE.INTER.VDW>
-17.4947

>  <SCORE.INTER.norm>
-0.874311

>  <SCORE.INTRA>
-1.23821

>  <SCORE.INTRA.DIHEDRAL>
-1.89435

>  <SCORE.INTRA.DIHEDRAL.0>
4.28128

>  <SCORE.INTRA.POLAR>
0

>  <SCORE.INTRA.POLAR.0>
0

>  <SCORE.INTRA.REPUL>
0

>  <SCORE.INTRA.REPUL.0>
0

>  <SCORE.INTRA.SOLV>
-0.333765

>  <SCORE.INTRA.SOLV.lig_0>
-32.3374

>  <SCORE.INTRA.VDW>
-0.124152

>  <SCORE.INTRA.VDW.0>
-0.659551

>  <SCORE.INTRA.norm>
-0.123821

>  <SCORE.RESTR>
0

>  <SCORE.RESTR.CAVITY>
0

>  <SCORE.RESTR.norm>
0

>  <SCORE.SYSTEM>
0

>  <SCORE.SYSTEM.CONST>
0

>  <SCORE.SYSTEM.DIHEDRAL>
0

>  <SCORE.SYSTEM.SOLV>
0

>  <SCORE.SYSTEM.norm>
0

>  <SCORE.heavy>
10

>  <SCORE.norm>
-0.998132

>  <RMSD>
5.465

$$$$
ligand
 OpenBabel11021811473D
libRbt.so/2013.1/901 2013/11/27
 10  9  0  0  0  0  0  0  0  0999 V2000
   27.9469   15.3380   18.9918 N   0  0  0  0  0  0  0  0  0  0  0  0
   27.9821   14.5826   20.2753 C   0  0  2  0  0  0  0  0  0  0  0  0
   26.7948   14.9220   21.1767 C   0  0  0  0  0  0  0  0  0  0  0  0
   26.9338   15.1472   22.3833 O   0  0  0  0  0  0  0  0  0  0  0  0
   29.3099   14.8079   21.0032 C   0  0  0  0  0  0  0  0  0  0  0  0
   29.6416   16.2718   21.2606 C   0  0  0  0  0  0  0  0  0  0  0  0
   31.0163   16.4186   21.9124 C   0  0  0  0  0  0  0  0  0  0  0  0
   31.4109   17.8818   22.0785 C   0  0  0  0  0  0  0  0  0  0  0  0
   32.7951   18.0496   22.6106 N   0  0  0  0  0  0  0  0  0  0  0  0
   25.6604   15.0034   20.7106 O   0  0  0  0  0  0  0  0  0  0  0  0
  2  1  1  6  0  0  0
  2  3  1  0  0  0  0
  2  5  1  0  0  0  0
  3  4  1  0  0  0  0
  3 10  1  0  0  0  0
  5  6  1  0  0  0  0
  6  7  1  0  0  0  0
  7  8  1  0  0  0  0
  8  9  1  0  0  0  0
M  END
>  <CHROM.1>
-134.64854277,55.50366382,-176.57003249,175.58130697,-175.33386034,28.91230127
15.84274066,21.25680163,-2.76513080,0.37802073,1.26284107

>  <Name>
ligand

>  <RI>
0

>  <Rbt.Current_Directory>
/home/itssahil/PROJECTS/Mol_Feturizer/New_Systems/rnas/3DJ2

>  <Rbt.Executable>
rbdock ($Id: //depot/dev/client3/rdock/2013.1/src/exe/rbdock.cxx#4 $)

>  <Rbt.Library>
libRbt.so (2013.1, Build901 2013/11/27)

>  <Rbt.Parameter_File>
/export/apps/rDock/src/rDock_2013.1_src/data/scripts/dock_solv.prm

>  <Rbt.Receptor>
prm/blind_docking_100.prm

>  <SCORE>
-10.179

>  <SCORE.INTER>
-9.37

>  <SCORE.INTER.CONST>
1

>  <SCORE.INTER.POLAR>
0

>  <SCORE.INTER.ROT>
5

>  <SCORE.INTER.SOLV>
13.2842

>  <SCORE.INTER.VDW>
-17.6081

>  <SCORE.INTER.norm>
-0.937

>  <SCORE.INTRA>
-0.808988

>  <SCORE.INTRA.DIHEDRAL>
-2.41769

>  <SCORE.INTRA.DIHEDRAL.0>
4.28128

>  <SCORE.INTRA.POLAR>
0

>  <SCORE.INTRA.POLAR.0>
0

>  <SCORE.INTRA.REPUL>
0

>  <SCORE.INTRA.REPUL.0>
0

>  <SCORE.INTRA.SOLV>
-0.376117

>  <SCORE.INTRA.SOLV.lig_0>
-32.3374

>  <SCORE.INTRA.VDW>
0.587914

>  <SCORE.INTRA.VDW.0>
-0.659551

>  <SCORE.INTRA.norm>
-0.0808988

>  <SCORE.RESTR>
0

>  <SCORE.RESTR.CAVITY>
0

>  <SCORE.RESTR.norm>
0

>  <SCORE.SYSTEM>
0

>  <SCORE.SYSTEM.CONST>
0

>  <SCORE.SYSTEM.DIHEDRAL>
0

>  <SCORE.SYSTEM.SOLV>
0

>  <SCORE.SYSTEM.norm>
0

>  <SCORE.heavy>
10

>  <SCORE.norm>
-1.0179

>  <RMSD>
5.469

$$$$
ligand
 OpenBabel11021811473D
libRbt.so/2013.1/901 2013/11/27
 10  9  0  0  0  0  0  0  0  0999 V2000
   27.9111   15.3274   19.0331 N   0  0  0  0  0  0  0  0  0  0  0  0
   27.9589   14.5826   20.3224 C   0  0  2  0  0  0  0  0  0  0  0  0
   26.7872   14.9387   21.2376 C   0  0  0  0  0  0  0  0  0  0  0  0
   26.9455   15.1766   22.4393 O   0  0  0  0  0  0  0  0  0  0  0  0
   29.2986   14.8039   21.0295 C   0  0  0  0  0  0  0  0  0  0  0  0
   29.6418   16.2671   21.2756 C   0  0  0  0  0  0  0  0  0  0  0  0
   31.0266   16.4093   21.9066 C   0  0  0  0  0  0  0  0  0  0  0  0
   31.4179   17.8714   22.0899 C   0  0  0  0  0  0  0  0  0  0  0  0
   32.8029   18.0361   22.6209 N   0  0  0  0  0  0  0  0  0  0  0  0
   25.6463   15.0210   20.7876 O   0  0  0  0  0  0  0  0  0  0  0  0
  2  1  1  6  0  0  0
  2  3  1  0  0  0  0
  2  5  1  0  0  0  0
  3  4  1  0  0  0  0
  3 10  1  0  0  0  0
  5  6  1  0  0  0  0
  6  7  1  0  0  0  0
  7  8  1  0  0  0  0
  8  9  1  0  0  0  0
M  END
>  <CHROM.1>
-134.44218408,55.78146799,-176.58573067,176.89030984,-176.19763009,28.90710170
15.84426772,21.29116793,-2.77091704,0.37193314,1.25341208

>  <Name>
ligand

>  <RI>
0

>  <Rbt.Current_Directory>
/home/itssahil/PROJECTS/Mol_Feturizer/New_Systems/rnas/3DJ2

>  <Rbt.Executable>
rbdock ($Id: //depot/dev/client3/rdock/2013.1/src/exe/rbdock.cxx#4 $)

>  <Rbt.Library>
libRbt.so (2013.1, Build901 2013/11/27)

>  <Rbt.Parameter_File>
/export/apps/rDock/src/rDock_2013.1_src/data/scripts/dock_solv.prm

>  <Rbt.Receptor>
prm/pocket_docking_4.prm

>  <SCORE>
-10.165

>  <SCORE.INTER>
-9.31823

>  <SCORE.INTER.CONST>
1

>  <SCORE.INTER.POLAR>
0

>  <SCORE.INTER.ROT>
5

>  <SCORE.INTER.SOLV>
13.1978

>  <SCORE.INTER.VDW>
-17.5447

>  <SCORE.INTER.norm>
-0.931823

>  <SCORE.INTRA>
-0.846813

>  <SCORE.INTRA.DIHEDRAL>
-2.49711

>  <SCORE.INTRA.DIHEDRAL.0>
4.28128

>  <SCORE.INTRA.POLAR>
0

>  <SCORE.INTRA.POLAR.0>
0

>  <SCORE.INTRA.REPUL>
0

>  <SCORE.INTRA.REPUL.0>
0

>  <SCORE.INTRA.SOLV>
-0.380105

>  <SCORE.INTRA.SOLV.lig_0>
-32.3374

>  <SCORE.INTRA.VDW>
0.591793

>  <SCORE.INTRA.VDW.0>
-0.659551

>  <SCORE.INTRA.norm>
-0.0846813

>  <SCORE.RESTR>
0

>  <SCORE.RESTR.CAVITY>
0

>  <SCORE.RESTR.norm>
0

>  <SCORE.SYSTEM>
0

>  <SCORE.SYSTEM.CONST>
0

>  <SCORE.SYSTEM.DIHEDRAL>
0

>  <SCORE.SYSTEM.SOLV>
0

>  <SCORE.SYSTEM.norm>
0

>  <SCORE.heavy>
10

>  <SCORE.norm>
-1.0165

>  <RMSD>
5.470

$$$$
ligand
 OpenBabel11021811473D
libRbt.so/2013.1/901 2013/11/27
 10  9  0  0  0  0  0  0  0  0999 V2000
   28.0348   15.3991   19.0386 N   0  0  0  0  0  0  0  0  0  0  0  0
   28.0339   14.6152   20.3054 C   0  0  2  0  0  0  0  0  0  0  0  0
   26.8151   14.9255   21.1745 C   0  0  0  0  0  0  0  0  0  0  0  0
   25.6733   14.9732   20.7057 O   0  0  0  0  0  0  0  0  0  0  0  0
   29.3354   14.8336   21.0815 C   0  0  0  0  0  0  0  0  0  0  0  0
   29.6789   16.2968   21.3275 C   0  0  0  0  0  0  0  0  0  0  0  0
   31.0506   16.4370   21.9870 C   0  0  0  0  0  0  0  0  0  0  0  0
   31.4735   17.8966   22.1094 C   0  0  0  0  0  0  0  0  0  0  0  0
   32.8617   18.0534   22.6344 N   0  0  0  0  0  0  0  0  0  0  0  0
   26.9415   15.1142   22.3826 O   0  0  0  0  0  0  0  0  0  0  0  0
  2  1  1  6  0  0  0
  2  3  1  0  0  0  0
  2  5  1  0  0  0  0
  3  4  1  0  0  0  0
  3 10  1  0  0  0  0
  5  6  1  0  0  0  0
  6  7  1  0  0  0  0
  7  8  1  0  0  0  0
  8  9  1  0  0  0  0
M  END
>  <CHROM.1>
46.39991036,52.87478818,-174.60156384,174.10734915,-174.70095778,28.95233040
15.85365613,21.29065431,-2.77974072,0.39029195,1.29954959

>  <Name>
ligand

>  <RI>
0

>  <Rbt.Current_Directory>
/home/itssahil/PROJECTS/Mol_Feturizer/New_Systems/rnas/3DJ2

>  <Rbt.Executable>
rbdock ($Id: //depot/dev/client3/rdock/2013.1/src/exe/rbdock.cxx#4 $)

>  <Rbt.Library>
libRbt.so (2013.1, Build901 2013/11/27)

>  <Rbt.Parameter_File>
/export/apps/rDock/src/rDock_2013.1_src/data/scripts/dock_solv.prm

>  <Rbt.Receptor>
prm/pocket_docking_7.prm

>  <SCORE>
-10.1291

>  <SCORE.INTER>
-9.57323

>  <SCORE.INTER.CONST>
1

>  <SCORE.INTER.POLAR>
0

>  <SCORE.INTER.ROT>
5

>  <SCORE.INTER.SOLV>
13.0865

>  <SCORE.INTER.VDW>
-17.6777

>  <SCORE.INTER.norm>
-0.957323

>  <SCORE.INTRA>
-0.555837

>  <SCORE.INTRA.DIHEDRAL>
-2.20543

>  <SCORE.INTRA.DIHEDRAL.0>
4.28128

>  <SCORE.INTRA.POLAR>
0

>  <SCORE.INTRA.POLAR.0>
0

>  <SCORE.INTRA.REPUL>
0

>  <SCORE.INTRA.REPUL.0>
0

>  <SCORE.INTRA.SOLV>
-0.348871

>  <SCORE.INTRA.SOLV.lig_0>
-32.3374

>  <SCORE.INTRA.VDW>
0.721313

>  <SCORE.INTRA.VDW.0>
-0.659551

>  <SCORE.INTRA.norm>
-0.0555837

>  <SCORE.RESTR>
0

>  <SCORE.RESTR.CAVITY>
0

>  <SCORE.RESTR.norm>
0

>  <SCORE.SYSTEM>
0

>  <SCORE.SYSTEM.CONST>
0

>  <SCORE.SYSTEM.DIHEDRAL>
0

>  <SCORE.SYSTEM.SOLV>
0

>  <SCORE.SYSTEM.norm>
0

>  <SCORE.heavy>
10

>  <SCORE.norm>
-1.01291

>  <RMSD>
5.471

$$$$
ligand
 OpenBabel11021811473D
libRbt.so/2013.1/901 2013/11/27
 10  9  0  0  0  0  0  0  0  0999 V2000
   27.9082   15.3419   19.0747 N   0  0  0  0  0  0  0  0  0  0  0  0
   27.9645   14.5908   20.3599 C   0  0  2  0  0  0  0  0  0  0  0  0
   26.7943   14.9359   21.2811 C   0  0  0  0  0  0  0  0  0  0  0  0
   26.9602   15.2073   22.4747 O   0  0  0  0  0  0  0  0  0  0  0  0
   29.3056   14.8155   21.0633 C   0  0  0  0  0  0  0  0  0  0  0  0
   29.6515   16.2801   21.2972 C   0  0  0  0  0  0  0  0  0  0  0  0
   31.0366   16.4249   21.9271 C   0  0  0  0  0  0  0  0  0  0  0  0
   31.4357   17.8876   22.0870 C   0  0  0  0  0  0  0  0  0  0  0  0
   32.8359   18.0538   22.5761 N   0  0  0  0  0  0  0  0  0  0  0  0
   25.6461   14.9754   20.8437 O   0  0  0  0  0  0  0  0  0  0  0  0
  2  1  1  6  0  0  0
  2  3  1  0  0  0  0
  2  5  1  0  0  0  0
  3  4  1  0  0  0  0
  3 10  1  0  0  0  0
  5  6  1  0  0  0  0
  6  7  1  0  0  0  0
  7  8  1  0  0  0  0
  8  9  1  0  0  0  0
M  END
>  <CHROM.1>
-132.25608033,54.92110185,-176.66997357,176.38820132,-174.40907809,28.91726671
15.85192015,21.31565145,-2.78291164,0.37884370,1.25664170

>  <Name>
ligand

>  <RI>
0

>  <Rbt.Current_Directory>
/home/itssahil/PROJECTS/Mol_Feturizer/New_Systems/rnas/3DJ2

>  <Rbt.Executable>
rbdock ($Id: //depot/dev/client3/rdock/2013.1/src/exe/rbdock.cxx#4 $)

>  <Rbt.Library>
libRbt.so (2013.1, Build901 2013/11/27)

>  <Rbt.Parameter_File>
/export/apps/rDock/src/rDock_2013.1_src/data/scripts/dock_solv.prm

>  <Rbt.Receptor>
prm/pocket_docking_7.prm

>  <SCORE>
-10.2141

>  <SCORE.INTER>
-9.43831

>  <SCORE.INTER.CONST>
1

>  <SCORE.INTER.POLAR>
0

>  <SCORE.INTER.ROT>
5

>  <SCORE.INTER.SOLV>
13.0914

>  <SCORE.INTER.VDW>
-17.5893

>  <SCORE.INTER.norm>
-0.943831

>  <SCORE.INTRA>
-0.775828

>  <SCORE.INTRA.DIHEDRAL>
-2.39326

>  <SCORE.INTRA.DIHEDRAL.0>
4.28128

>  <SCORE.INTRA.POLAR>
0

>  <SCORE.INTRA.POLAR.0>
0

>  <SCORE.INTRA.REPUL>
0

>  <SCORE.INTRA.REPUL.0>
0

>  <SCORE.INTRA.SOLV>
-0.370219

>  <SCORE.INTRA.SOLV.lig_0>
-32.3374

>  <SCORE.INTRA.VDW>
0.605912

>  <SCORE.INTRA.VDW.0>
-0.659551

>  <SCORE.INTRA.norm>
-0.0775828

>  <SCORE.RESTR>
0

>  <SCORE.RESTR.CAVITY>
0

>  <SCORE.RESTR.norm>
0

>  <SCORE.SYSTEM>
0

>  <SCORE.SYSTEM.CONST>
0

>  <SCORE.SYSTEM.DIHEDRAL>
0

>  <SCORE.SYSTEM.SOLV>
0

>  <SCORE.SYSTEM.norm>
0

>  <SCORE.heavy>
10

>  <SCORE.norm>
-1.02141

>  <RMSD>
5.471

$$$$
ligand
 OpenBabel11021811473D
libRbt.so/2013.1/901 2013/11/27
 10  9  0  0  0  0  0  0  0  0999 V2000
   27.8995   15.3474   19.0637 N   0  0  0  0  0  0  0  0  0  0  0  0
   27.9565   14.5920   20.3465 C   0  0  2  0  0  0  0  0  0  0  0  0
   26.7871   14.9348   21.2697 C   0  0  0  0  0  0  0  0  0  0  0  0
   25.6180   14.9345   20.8710 O   0  0  0  0  0  0  0  0  0  0  0  0
   29.2982   14.8137   21.0495 C   0  0  0  0  0  0  0  0  0  0  0  0
   29.6481   16.2775   21.2823 C   0  0  0  0  0  0  0  0  0  0  0  0
   31.0360   16.4194   21.9065 C   0  0  0  0  0  0  0  0  0  0  0  0
   31.4376   17.8813   22.0677 C   0  0  0  0  0  0  0  0  0  0  0  0
   32.8312   18.0444   22.5762 N   0  0  0  0  0  0  0  0  0  0  0  0
   26.9835   15.1995   22.4539 O   0  0  0  0  0  0  0  0  0  0  0  0
  2  1  1  6  0  0  0
  2  3  1  0  0  0  0
  2  5  1  0  0  0  0
  3  4  1  0  0  0  0
  3 10  1  0  0  0  0
  5  6  1  0  0  0  0
  6  7  1  0  0  0  0
  7  8  1  0  0  0  0
  8  9  1  0  0  0  0
M  END
>  <CHROM.1>
49.21272431,54.65926115,-176.43231225,176.50878234,-175.51747731,28.91308331
15.84441172,21.30626442,-2.78721593,0.38217163,1.26317204

>  <Name>
ligand

>  <RI>
0

>  <Rbt.Current_Directory>
/home/itssahil/PROJECTS/Mol_Feturizer/New_Systems/rnas/3DJ2

>  <Rbt.Executable>
rbdock ($Id: //depot/dev/client3/rdock/2013.1/src/exe/rbdock.cxx#4 $)

>  <Rbt.Library>
libRbt.so (2013.1, Build901 2013/11/27)

>  <Rbt.Parameter_File>
/export/apps/rDock/src/rDock_2013.1_src/data/scripts/dock_solv.prm

>  <Rbt.Receptor>
prm/blind_docking_100.prm

>  <SCORE>
-10.1691

>  <SCORE.INTER>
-9.4964

>  <SCORE.INTER.CONST>
1

>  <SCORE.INTER.POLAR>
0

>  <SCORE.INTER.ROT>
5

>  <SCORE.INTER.SOLV>
13.127

>  <SCORE.INTER.VDW>
-17.6399

>  <SCORE.INTER.norm>
-0.94964

>  <SCORE.INTRA>
-0.672675

>  <SCORE.INTRA.DIHEDRAL>
-2.4816

>  <SCORE.INTRA.DIHEDRAL.0>
4.28128

>  <SCORE.INTRA.POLAR>
0

>  <SCORE.INTRA.POLAR.0>
0

>  <SCORE.INTRA.REPUL>
0

>  <SCORE.INTRA.REPUL.0>
0

>  <SCORE.INTRA.SOLV>
-0.381514

>  <SCORE.INTRA.SOLV.lig_0>
-32.3374

>  <SCORE.INTRA.VDW>
0.75888

>  <SCORE.INTRA.VDW.0>
-0.659551

>  <SCORE.INTRA.norm>
-0.0672675

>  <SCORE.RESTR>
0

>  <SCORE.RESTR.CAVITY>
0

>  <SCORE.RESTR.norm>
0

>  <SCORE.SYSTEM>
0

>  <SCORE.SYSTEM.CONST>
0

>  <SCORE.SYSTEM.DIHEDRAL>
0

>  <SCORE.SYSTEM.SOLV>
0

>  <SCORE.SYSTEM.norm>
0

>  <SCORE.heavy>
10

>  <SCORE.norm>
-1.01691

>  <RMSD>
5.473

$$$$
ligand
 OpenBabel11021811473D
libRbt.so/2013.1/901 2013/11/27
 10  9  0  0  0  0  0  0  0  0999 V2000
   28.6546   14.9764   19.0809 N   0  0  0  0  0  0  0  0  0  0  0  0
   28.2664   14.9478   20.5189 C   0  0  2  0  0  0  0  0  0  0  0  0
   26.7538   15.0596   20.7099 C   0  0  0  0  0  0  0  0  0  0  0  0
   26.1931   14.6580   21.7347 O   0  0  0  0  0  0  0  0  0  0  0  0
   29.0039   16.0359   21.3036 C   0  0  0  0  0  0  0  0  0  0  0  0
   30.5194   15.8857   21.3078 C   0  0  0  0  0  0  0  0  0  0  0  0
   31.1845   17.0351   22.0646 C   0  0  0  0  0  0  0  0  0  0  0  0
   32.7037   16.9063   22.0686 C   0  0  0  0  0  0  0  0  0  0  0  0
   33.2939   16.9916   20.7006 N   0  0  0  0  0  0  0  0  0  0  0  0
   26.0522   15.5810   19.8457 O   0  0  0  0  0  0  0  0  0  0  0  0
  2  1  1  6  0  0  0
  2  3  1  0  0  0  0
  2  5  1  0  0  0  0
  3  4  1  0  0  0  0
  3 10  1  0  0  0  0
  5  6  1  0  0  0  0
  6  7  1  0  0  0  0
  7  8  1  0  0  0  0
  8  9  1  0  0  0  0
M  END
>  <CHROM.1>
157.44593936,-61.94800494,177.87026328,-179.53030524,63.46707805,29.21724365
15.80527150,20.93597148,-2.93793871,0.26955668,1.38923773

>  <Name>
ligand

>  <RI>
0

>  <Rbt.Current_Directory>
/home/itssahil/PROJECTS/Mol_Feturizer/New_Systems/rnas/3DJ2

>  <Rbt.Executable>
rbdock ($Id: //depot/dev/client3/rdock/2013.1/src/exe/rbdock.cxx#4 $)

>  <Rbt.Library>
libRbt.so (2013.1, Build901 2013/11/27)

>  <Rbt.Parameter_File>
/export/apps/rDock/src/rDock_2013.1_src/data/scripts/dock_solv.prm

>  <Rbt.Receptor>
prm/pocket_docking_3.prm

>  <SCORE>
-10.6516

>  <SCORE.INTER>
-9.44888

>  <SCORE.INTER.CONST>
1

>  <SCORE.INTER.POLAR>
0

>  <SCORE.INTER.ROT>
5

>  <SCORE.INTER.SOLV>
13.1496

>  <SCORE.INTER.VDW>
-17.6158

>  <SCORE.INTER.norm>
-0.944888

>  <SCORE.INTRA>
-1.20277

>  <SCORE.INTRA.DIHEDRAL>
-2.71827

>  <SCORE.INTRA.DIHEDRAL.0>
4.28128

>  <SCORE.INTRA.POLAR>
0

>  <SCORE.INTRA.POLAR.0>
0

>  <SCORE.INTRA.REPUL>
0

>  <SCORE.INTRA.REPUL.0>
0

>  <SCORE.INTRA.SOLV>
0.447624

>  <SCORE.INTRA.SOLV.lig_0>
-32.3374

>  <SCORE.INTRA.VDW>
-0.0674486

>  <SCORE.INTRA.VDW.0>
-0.659551

>  <SCORE.INTRA.norm>
-0.120277

>  <SCORE.RESTR>
0

>  <SCORE.RESTR.CAVITY>
0

>  <SCORE.RESTR.norm>
0

>  <SCORE.SYSTEM>
0

>  <SCORE.SYSTEM.CONST>
0

>  <SCORE.SYSTEM.DIHEDRAL>
0

>  <SCORE.SYSTEM.SOLV>
0

>  <SCORE.SYSTEM.norm>
0

>  <SCORE.heavy>
10

>  <SCORE.norm>
-1.06516

>  <RMSD>
5.474

$$$$
ligand
 OpenBabel11021811473D
libRbt.so/2013.1/901 2013/11/27
 10  9  0  0  0  0  0  0  0  0999 V2000
   27.8787   15.3446   19.0617 N   0  0  0  0  0  0  0  0  0  0  0  0
   27.9412   14.5872   20.3430 C   0  0  2  0  0  0  0  0  0  0  0  0
   26.7801   14.9342   21.2750 C   0  0  0  0  0  0  0  0  0  0  0  0
   26.9577   15.2066   22.4667 O   0  0  0  0  0  0  0  0  0  0  0  0
   29.2890   14.8015   21.0367 C   0  0  0  0  0  0  0  0  0  0  0  0
   29.6329   16.2620   21.2976 C   0  0  0  0  0  0  0  0  0  0  0  0
   31.0371   16.4005   21.8851 C   0  0  0  0  0  0  0  0  0  0  0  0
   31.4336   17.8615   22.0661 C   0  0  0  0  0  0  0  0  0  0  0  0
   32.8340   18.0232   22.5561 N   0  0  0  0  0  0  0  0  0  0  0  0
   25.6279   14.9742   20.8487 O   0  0  0  0  0  0  0  0  0  0  0  0
  2  1  1  6  0  0  0
  2  3  1  0  0  0  0
  2  5  1  0  0  0  0
  3  4  1  0  0  0  0
  3 10  1  0  0  0  0
  5  6  1  0  0  0  0
  6  7  1  0  0  0  0
  7  8  1  0  0  0  0
  8  9  1  0  0  0  0
M  END
>  <CHROM.1>
-131.83190139,55.98317929,-175.33086254,176.20408739,-176.30697074,28.90480373
15.84024469,21.30112704,-2.78771078,0.37521314,1.25873240

>  <Name>
ligand

>  <RI>
0

>  <Rbt.Current_Directory>
/home/itssahil/PROJECTS/Mol_Feturizer/New_Systems/rnas/3DJ2

>  <Rbt.Executable>
rbdock ($Id: //depot/dev/client3/rdock/2013.1/src/exe/rbdock.cxx#4 $)

>  <Rbt.Library>
libRbt.so (2013.1, Build901 2013/11/27)

>  <Rbt.Parameter_File>
/export/apps/rDock/src/rDock_2013.1_src/data/scripts/dock_solv.prm

>  <Rbt.Receptor>
prm/pocket_docking_4.prm

>  <SCORE>
-10.2201

>  <SCORE.INTER>
-9.42494

>  <SCORE.INTER.CONST>
1

>  <SCORE.INTER.POLAR>
0

>  <SCORE.INTER.ROT>
5

>  <SCORE.INTER.SOLV>
13.1353

>  <SCORE.INTER.VDW>
-17.5951

>  <SCORE.INTER.norm>
-0.942494

>  <SCORE.INTRA>
-0.795138

>  <SCORE.INTRA.DIHEDRAL>
-2.44997

>  <SCORE.INTRA.DIHEDRAL.0>
4.28128

>  <SCORE.INTRA.POLAR>
0

>  <SCORE.INTRA.POLAR.0>
0

>  <SCORE.INTRA.REPUL>
0

>  <SCORE.INTRA.REPUL.0>
0

>  <SCORE.INTRA.SOLV>
-0.377087

>  <SCORE.INTRA.SOLV.lig_0>
-32.3374

>  <SCORE.INTRA.VDW>
0.618389

>  <SCORE.INTRA.VDW.0>
-0.659551

>  <SCORE.INTRA.norm>
-0.0795138

>  <SCORE.RESTR>
0

>  <SCORE.RESTR.CAVITY>
0

>  <SCORE.RESTR.norm>
0

>  <SCORE.SYSTEM>
0

>  <SCORE.SYSTEM.CONST>
0

>  <SCORE.SYSTEM.DIHEDRAL>
0

>  <SCORE.SYSTEM.SOLV>
0

>  <SCORE.SYSTEM.norm>
0

>  <SCORE.heavy>
10

>  <SCORE.norm>
-1.02201

>  <RMSD>
5.474

$$$$
ligand
 OpenBabel11021811473D
libRbt.so/2013.1/901 2013/11/27
 10  9  0  0  0  0  0  0  0  0999 V2000
   25.6895   15.5512   19.9201 N   0  0  0  0  0  0  0  0  0  0  0  0
   27.1479   15.3364   20.1350 C   0  0  2  0  0  0  0  0  0  0  0  0
   27.7633   14.4403   19.0601 C   0  0  0  0  0  0  0  0  0  0  0  0
   27.0886   13.6221   18.4267 O   0  0  0  0  0  0  0  0  0  0  0  0
   27.4156   14.7811   21.5364 C   0  0  0  0  0  0  0  0  0  0  0  0
   28.8915   14.6819   21.8984 C   0  0  0  0  0  0  0  0  0  0  0  0
   29.5441   16.0635   21.9327 C   0  0  0  0  0  0  0  0  0  0  0  0
   31.0319   15.9792   22.2549 C   0  0  0  0  0  0  0  0  0  0  0  0
   31.7005   17.3135   22.2490 N   0  0  0  0  0  0  0  0  0  0  0  0
   28.9567   14.5308   18.7800 O   0  0  0  0  0  0  0  0  0  0  0  0
  2  1  1  6  0  0  0
  2  3  1  0  0  0  0
  2  5  1  0  0  0  0
  3  4  1  0  0  0  0
  3 10  1  0  0  0  0
  5  6  1  0  0  0  0
  6  7  1  0  0  0  0
  7  8  1  0  0  0  0
  8  9  1  0  0  0  0
M  END
>  <CHROM.1>
-24.94318085,-173.34069117,63.41391716,-178.37718494,178.08013136,28.52959671
15.20791304,20.58857335,2.40515570,-0.10621085,-2.02833936

>  <Name>
ligand

>  <RI>
0

>  <Rbt.Current_Directory>
/home/itssahil/PROJECTS/Mol_Feturizer/New_Systems/rnas/3DJ2

>  <Rbt.Executable>
rbdock ($Id: //depot/dev/client3/rdock/2013.1/src/exe/rbdock.cxx#4 $)

>  <Rbt.Library>
libRbt.so (2013.1, Build901 2013/11/27)

>  <Rbt.Parameter_File>
/export/apps/rDock/src/rDock_2013.1_src/data/scripts/dock_solv.prm

>  <Rbt.Receptor>
prm/pocket_docking_5.prm

>  <SCORE>
-10.1149

>  <SCORE.INTER>
-8.38643

>  <SCORE.INTER.CONST>
1

>  <SCORE.INTER.POLAR>
0

>  <SCORE.INTER.ROT>
5

>  <SCORE.INTER.SOLV>
17.535

>  <SCORE.INTER.VDW>
-18.3693

>  <SCORE.INTER.norm>
-0.838643

>  <SCORE.INTRA>
-1.72851

>  <SCORE.INTRA.DIHEDRAL>
-2.48111

>  <SCORE.INTRA.DIHEDRAL.0>
4.28128

>  <SCORE.INTRA.POLAR>
0

>  <SCORE.INTRA.POLAR.0>
0

>  <SCORE.INTRA.REPUL>
0

>  <SCORE.INTRA.REPUL.0>
0

>  <SCORE.INTRA.SOLV>
-1.05748

>  <SCORE.INTRA.SOLV.lig_0>
-32.3374

>  <SCORE.INTRA.VDW>
0.0407793

>  <SCORE.INTRA.VDW.0>
-0.659551

>  <SCORE.INTRA.norm>
-0.172851

>  <SCORE.RESTR>
0

>  <SCORE.RESTR.CAVITY>
0

>  <SCORE.RESTR.norm>
0

>  <SCORE.SYSTEM>
0

>  <SCORE.SYSTEM.CONST>
0

>  <SCORE.SYSTEM.DIHEDRAL>
0

>  <SCORE.SYSTEM.SOLV>
0

>  <SCORE.SYSTEM.norm>
0

>  <SCORE.heavy>
10

>  <SCORE.norm>
-1.01149

>  <RMSD>
5.474

$$$$
ligand
 OpenBabel11021811473D
libRbt.so/2013.1/901 2013/11/27
 10  9  0  0  0  0  0  0  0  0999 V2000
   28.6593   14.9634   19.0757 N   0  0  0  0  0  0  0  0  0  0  0  0
   28.2726   14.9409   20.5142 C   0  0  2  0  0  0  0  0  0  0  0  0
   26.7597   15.0472   20.7061 C   0  0  0  0  0  0  0  0  0  0  0  0
   26.1992   14.6294   21.7246 O   0  0  0  0  0  0  0  0  0  0  0  0
   29.0061   16.0366   21.2921 C   0  0  0  0  0  0  0  0  0  0  0  0
   30.5217   15.8879   21.3034 C   0  0  0  0  0  0  0  0  0  0  0  0
   31.1817   17.0336   22.0700 C   0  0  0  0  0  0  0  0  0  0  0  0
   32.7012   16.9083   22.0782 C   0  0  0  0  0  0  0  0  0  0  0  0
   33.2959   17.0064   20.7129 N   0  0  0  0  0  0  0  0  0  0  0  0
   26.0576   15.5801   19.8493 O   0  0  0  0  0  0  0  0  0  0  0  0
  2  1  1  6  0  0  0
  2  3  1  0  0  0  0
  2  5  1  0  0  0  0
  3  4  1  0  0  0  0
  3 10  1  0  0  0  0
  5  6  1  0  0  0  0
  6  7  1  0  0  0  0
  7  8  1  0  0  0  0
  8  9  1  0  0  0  0
M  END
>  <CHROM.1>
156.27033974,-62.33446442,178.69045285,-179.38305917,63.56893391,29.22019764
15.80076050,20.93508151,-2.93554049,0.27277735,1.38964875

>  <Name>
ligand

>  <RI>
0

>  <Rbt.Current_Directory>
/home/itssahil/PROJECTS/Mol_Feturizer/New_Systems/rnas/3DJ2

>  <Rbt.Executable>
rbdock ($Id: //depot/dev/client3/rdock/2013.1/src/exe/rbdock.cxx#4 $)

>  <Rbt.Library>
libRbt.so (2013.1, Build901 2013/11/27)

>  <Rbt.Parameter_File>
/export/apps/rDock/src/rDock_2013.1_src/data/scripts/dock_solv.prm

>  <Rbt.Receptor>
prm/pocket_docking_5.prm

>  <SCORE>
-10.6581

>  <SCORE.INTER>
-9.43909

>  <SCORE.INTER.CONST>
1

>  <SCORE.INTER.POLAR>
0

>  <SCORE.INTER.ROT>
5

>  <SCORE.INTER.SOLV>
13.1731

>  <SCORE.INTER.VDW>
-17.6171

>  <SCORE.INTER.norm>
-0.943909

>  <SCORE.INTRA>
-1.21911

>  <SCORE.INTRA.DIHEDRAL>
-2.72008

>  <SCORE.INTRA.DIHEDRAL.0>
4.28128

>  <SCORE.INTRA.POLAR>
0

>  <SCORE.INTRA.POLAR.0>
0

>  <SCORE.INTRA.REPUL>
0

>  <SCORE.INTRA.REPUL.0>
0

>  <SCORE.INTRA.SOLV>
0.437283

>  <SCORE.INTRA.SOLV.lig_0>
-32.3374

>  <SCORE.INTRA.VDW>
-0.0777079

>  <SCORE.INTRA.VDW.0>
-0.659551

>  <SCORE.INTRA.norm>
-0.121911

>  <SCORE.RESTR>
0.000119328

>  <SCORE.RESTR.CAVITY>
0.000119328

>  <SCORE.RESTR.norm>
1.19328e-05

>  <SCORE.SYSTEM>
0

>  <SCORE.SYSTEM.CONST>
0

>  <SCORE.SYSTEM.DIHEDRAL>
0

>  <SCORE.SYSTEM.SOLV>
0

>  <SCORE.SYSTEM.norm>
0

>  <SCORE.heavy>
10

>  <SCORE.norm>
-1.06581

>  <RMSD>
5.475

$$$$
ligand
 OpenBabel11021811473D
libRbt.so/2013.1/901 2013/11/27
 10  9  0  0  0  0  0  0  0  0999 V2000
   28.6175   15.0399   19.0968 N   0  0  0  0  0  0  0  0  0  0  0  0
   28.2654   14.9819   20.5431 C   0  0  2  0  0  0  0  0  0  0  0  0
   26.7566   15.0702   20.7731 C   0  0  0  0  0  0  0  0  0  0  0  0
   25.9890   15.5109   19.9115 O   0  0  0  0  0  0  0  0  0  0  0  0
   29.0078   16.0666   21.3280 C   0  0  0  0  0  0  0  0  0  0  0  0
   30.5207   15.8940   21.3553 C   0  0  0  0  0  0  0  0  0  0  0  0
   31.1948   17.0592   22.0793 C   0  0  0  0  0  0  0  0  0  0  0  0
   32.7144   16.9395   22.0525 C   0  0  0  0  0  0  0  0  0  0  0  0
   33.2792   17.0649   20.6767 N   0  0  0  0  0  0  0  0  0  0  0  0
   26.2617   14.6768   21.8273 O   0  0  0  0  0  0  0  0  0  0  0  0
  2  1  1  6  0  0  0
  2  3  1  0  0  0  0
  2  5  1  0  0  0  0
  3  4  1  0  0  0  0
  3 10  1  0  0  0  0
  5  6  1  0  0  0  0
  6  7  1  0  0  0  0
  7  8  1  0  0  0  0
  8  9  1  0  0  0  0
M  END
>  <CHROM.1>
-18.88490344,-65.08577517,176.40035652,-177.02386405,65.91992833,29.21546128
15.82664185,20.96774906,-2.95294777,0.28253030,1.41343805

>  <Name>
ligand

>  <RI>
0

>  <Rbt.Current_Directory>
/home/itssahil/PROJECTS/Mol_Feturizer/New_Systems/rnas/3DJ2

>  <Rbt.Executable>
rbdock ($Id: //depot/dev/client3/rdock/2013.1/src/exe/rbdock.cxx#4 $)

>  <Rbt.Library>
libRbt.so (2013.1, Build901 2013/11/27)

>  <Rbt.Parameter_File>
/export/apps/rDock/src/rDock_2013.1_src/data/scripts/dock_solv.prm

>  <Rbt.Receptor>
prm/blind_docking_100.prm

>  <SCORE>
-10.5526

>  <SCORE.INTER>
-9.45296

>  <SCORE.INTER.CONST>
1

>  <SCORE.INTER.POLAR>
0

>  <SCORE.INTER.ROT>
5

>  <SCORE.INTER.SOLV>
13.0743

>  <SCORE.INTER.VDW>
-17.5934

>  <SCORE.INTER.norm>
-0.945296

>  <SCORE.INTRA>
-1.10049

>  <SCORE.INTRA.DIHEDRAL>
-2.37798

>  <SCORE.INTRA.DIHEDRAL.0>
4.28128

>  <SCORE.INTRA.POLAR>
0

>  <SCORE.INTRA.POLAR.0>
0

>  <SCORE.INTRA.REPUL>
0

>  <SCORE.INTRA.REPUL.0>
0

>  <SCORE.INTRA.SOLV>
0.394082

>  <SCORE.INTRA.SOLV.lig_0>
-32.3374

>  <SCORE.INTRA.VDW>
-0.108543

>  <SCORE.INTRA.VDW.0>
-0.659551

>  <SCORE.INTRA.norm>
-0.110049

>  <SCORE.RESTR>
0.000831559

>  <SCORE.RESTR.CAVITY>
0.000831559

>  <SCORE.RESTR.norm>
8.31559e-05

>  <SCORE.SYSTEM>
0

>  <SCORE.SYSTEM.CONST>
0

>  <SCORE.SYSTEM.DIHEDRAL>
0

>  <SCORE.SYSTEM.SOLV>
0

>  <SCORE.SYSTEM.norm>
0

>  <SCORE.heavy>
10

>  <SCORE.norm>
-1.05526

>  <RMSD>
5.476

$$$$
ligand
 OpenBabel11021811473D
libRbt.so/2013.1/901 2013/11/27
 10  9  0  0  0  0  0  0  0  0999 V2000
   28.6945   14.8093   19.1382 N   0  0  0  0  0  0  0  0  0  0  0  0
   28.2618   14.8936   20.5612 C   0  0  2  0  0  0  0  0  0  0  0  0
   26.7462   15.0433   20.6949 C   0  0  0  0  0  0  0  0  0  0  0  0
   26.1378   14.6600   21.6993 O   0  0  0  0  0  0  0  0  0  0  0  0
   28.9944   16.0253   21.2867 C   0  0  0  0  0  0  0  0  0  0  0  0
   30.5084   15.8657   21.3265 C   0  0  0  0  0  0  0  0  0  0  0  0
   31.1697   17.0575   22.0183 C   0  0  0  0  0  0  0  0  0  0  0  0
   32.6883   16.9255   22.0451 C   0  0  0  0  0  0  0  0  0  0  0  0
   33.2961   16.9735   20.6828 N   0  0  0  0  0  0  0  0  0  0  0  0
   26.0906   15.5780   19.8031 O   0  0  0  0  0  0  0  0  0  0  0  0
  2  1  1  6  0  0  0
  2  3  1  0  0  0  0
  2  5  1  0  0  0  0
  3  4  1  0  0  0  0
  3 10  1  0  0  0  0
  5  6  1  0  0  0  0
  6  7  1  0  0  0  0
  7  8  1  0  0  0  0
  8  9  1  0  0  0  0
M  END
>  <CHROM.1>
153.38478365,-60.80022101,177.83596378,-178.99795385,65.46802675,29.21336771
15.78147715,20.92691406,-2.92267183,0.26195048,1.32567937

>  <Name>
ligand

>  <RI>
0

>  <Rbt.Current_Directory>
/home/itssahil/PROJECTS/Mol_Feturizer/New_Systems/rnas/3DJ2

>  <Rbt.Executable>
rbdock ($Id: //depot/dev/client3/rdock/2013.1/src/exe/rbdock.cxx#4 $)

>  <Rbt.Library>
libRbt.so (2013.1, Build901 2013/11/27)

>  <Rbt.Parameter_File>
/export/apps/rDock/src/rDock_2013.1_src/data/scripts/dock_solv.prm

>  <Rbt.Receptor>
prm/pocket_docking_6.prm

>  <SCORE>
-10.6721

>  <SCORE.INTER>
-9.46415

>  <SCORE.INTER.CONST>
1

>  <SCORE.INTER.POLAR>
0

>  <SCORE.INTER.ROT>
5

>  <SCORE.INTER.SOLV>
13.3567

>  <SCORE.INTER.VDW>
-17.695

>  <SCORE.INTER.norm>
-0.946415

>  <SCORE.INTRA>
-1.20798

>  <SCORE.INTRA.DIHEDRAL>
-2.66486

>  <SCORE.INTRA.DIHEDRAL.0>
4.28128

>  <SCORE.INTRA.POLAR>
0

>  <SCORE.INTRA.POLAR.0>
0

>  <SCORE.INTRA.REPUL>
0

>  <SCORE.INTRA.REPUL.0>
0

>  <SCORE.INTRA.SOLV>
0.435152

>  <SCORE.INTRA.SOLV.lig_0>
-32.3374

>  <SCORE.INTRA.VDW>
-0.093127

>  <SCORE.INTRA.VDW.0>
-0.659551

>  <SCORE.INTRA.norm>
-0.120798

>  <SCORE.RESTR>
0

>  <SCORE.RESTR.CAVITY>
0

>  <SCORE.RESTR.norm>
0

>  <SCORE.SYSTEM>
0

>  <SCORE.SYSTEM.CONST>
0

>  <SCORE.SYSTEM.DIHEDRAL>
0

>  <SCORE.SYSTEM.SOLV>
0

>  <SCORE.SYSTEM.norm>
0

>  <SCORE.heavy>
10

>  <SCORE.norm>
-1.06721

>  <RMSD>
5.477

$$$$
ligand
 OpenBabel11021811473D
libRbt.so/2013.1/901 2013/11/27
 10  9  0  0  0  0  0  0  0  0999 V2000
   28.6537   14.9718   19.0814 N   0  0  0  0  0  0  0  0  0  0  0  0
   28.2653   14.9562   20.5195 C   0  0  2  0  0  0  0  0  0  0  0  0
   26.7525   15.0692   20.7093 C   0  0  0  0  0  0  0  0  0  0  0  0
   26.0252   15.5966   19.8616 O   0  0  0  0  0  0  0  0  0  0  0  0
   29.0022   16.0518   21.2942 C   0  0  0  0  0  0  0  0  0  0  0  0
   30.5162   15.8890   21.3201 C   0  0  0  0  0  0  0  0  0  0  0  0
   31.1834   17.0582   22.0440 C   0  0  0  0  0  0  0  0  0  0  0  0
   32.7016   16.9198   22.0638 C   0  0  0  0  0  0  0  0  0  0  0  0
   33.3020   16.9516   20.6978 N   0  0  0  0  0  0  0  0  0  0  0  0
   26.2134   14.6099   21.7140 O   0  0  0  0  0  0  0  0  0  0  0  0
  2  1  1  6  0  0  0
  2  3  1  0  0  0  0
  2  5  1  0  0  0  0
  3  4  1  0  0  0  0
  3 10  1  0  0  0  0
  5  6  1  0  0  0  0
  6  7  1  0  0  0  0
  7  8  1  0  0  0  0
  8  9  1  0  0  0  0
M  END
>  <CHROM.1>
-24.89808782,-62.94156736,176.88836921,-179.28362804,63.25906038,29.21617264
15.80431570,20.93295547,-2.93715113,0.26867580,1.38450094

>  <Name>
ligand

>  <RI>
0

>  <Rbt.Current_Directory>
/home/itssahil/PROJECTS/Mol_Feturizer/New_Systems/rnas/3DJ2

>  <Rbt.Executable>
rbdock ($Id: //depot/dev/client3/rdock/2013.1/src/exe/rbdock.cxx#4 $)

>  <Rbt.Library>
libRbt.so (2013.1, Build901 2013/11/27)

>  <Rbt.Parameter_File>
/export/apps/rDock/src/rDock_2013.1_src/data/scripts/dock_solv.prm

>  <Rbt.Receptor>
prm/pocket_docking_8.prm

>  <SCORE>
-10.6414

>  <SCORE.INTER>
-9.46916

>  <SCORE.INTER.CONST>
1

>  <SCORE.INTER.POLAR>
0

>  <SCORE.INTER.ROT>
5

>  <SCORE.INTER.SOLV>
13.1874

>  <SCORE.INTER.VDW>
-17.6419

>  <SCORE.INTER.norm>
-0.946916

>  <SCORE.INTRA>
-1.17223

>  <SCORE.INTRA.DIHEDRAL>
-2.58519

>  <SCORE.INTRA.DIHEDRAL.0>
4.28128

>  <SCORE.INTRA.POLAR>
0

>  <SCORE.INTRA.POLAR.0>
0

>  <SCORE.INTRA.REPUL>
0

>  <SCORE.INTRA.REPUL.0>
0

>  <SCORE.INTRA.SOLV>
0.441631

>  <SCORE.INTRA.SOLV.lig_0>
-32.3374

>  <SCORE.INTRA.VDW>
-0.100445

>  <SCORE.INTRA.VDW.0>
-0.659551

>  <SCORE.INTRA.norm>
-0.117223

>  <SCORE.RESTR>
0

>  <SCORE.RESTR.CAVITY>
0

>  <SCORE.RESTR.norm>
0

>  <SCORE.SYSTEM>
0

>  <SCORE.SYSTEM.CONST>
0

>  <SCORE.SYSTEM.DIHEDRAL>
0

>  <SCORE.SYSTEM.SOLV>
0

>  <SCORE.SYSTEM.norm>
0

>  <SCORE.heavy>
10

>  <SCORE.norm>
-1.06414

>  <RMSD>
5.477

$$$$
ligand
 OpenBabel11021811473D
libRbt.so/2013.1/901 2013/11/27
 10  9  0  0  0  0  0  0  0  0999 V2000
   26.1515   15.4569   20.2007 N   0  0  0  0  0  0  0  0  0  0  0  0
   27.5614   15.3123   19.7420 C   0  0  2  0  0  0  0  0  0  0  0  0
   27.6498   14.8683   18.2818 C   0  0  0  0  0  0  0  0  0  0  0  0
   27.0902   13.8449   17.8749 O   0  0  0  0  0  0  0  0  0  0  0  0
   28.3364   14.3601   20.6565 C   0  0  0  0  0  0  0  0  0  0  0  0
   28.5418   14.8817   22.0725 C   0  0  0  0  0  0  0  0  0  0  0  0
   29.5066   16.0670   22.0881 C   0  0  0  0  0  0  0  0  0  0  0  0
   30.9179   15.6538   21.6856 C   0  0  0  0  0  0  0  0  0  0  0  0
   31.8709   16.8020   21.6614 N   0  0  0  0  0  0  0  0  0  0  0  0
   28.2693   15.5416   17.4609 O   0  0  0  0  0  0  0  0  0  0  0  0
  2  1  1  1  0  0  0
  2  3  1  0  0  0  0
  2  5  1  0  0  0  0
  3  4  1  0  0  0  0
  3 10  1  0  0  0  0
  5  6  1  0  0  0  0
  6  7  1  0  0  0  0
  7  8  1  0  0  0  0
  8  9  1  0  0  0  0
M  END
>  <CHROM.1>
-55.39005203,-66.63929797,-69.01228370,-66.36338101,178.60067209,28.58479143
15.26788561,20.13227402,2.36167051,-0.33912407,-1.60249595

>  <Name>
ligand

>  <RI>
0

>  <Rbt.Current_Directory>
/home/itssahil/PROJECTS/Mol_Feturizer/New_Systems/rnas/3DJ2

>  <Rbt.Executable>
rbdock ($Id: //depot/dev/client3/rdock/2013.1/src/exe/rbdock.cxx#4 $)

>  <Rbt.Library>
libRbt.so (2013.1, Build901 2013/11/27)

>  <Rbt.Parameter_File>
/export/apps/rDock/src/rDock_2013.1_src/data/scripts/dock_solv.prm

>  <Rbt.Receptor>
prm/pocket_docking_7.prm

>  <SCORE>
-9.72484

>  <SCORE.INTER>
-9.30399

>  <SCORE.INTER.CONST>
1

>  <SCORE.INTER.POLAR>
0

>  <SCORE.INTER.ROT>
5

>  <SCORE.INTER.SOLV>
15.6481

>  <SCORE.INTER.VDW>
-18.352

>  <SCORE.INTER.norm>
-0.930399

>  <SCORE.INTRA>
-0.420849

>  <SCORE.INTRA.DIHEDRAL>
-2.05113

>  <SCORE.INTRA.DIHEDRAL.0>
4.28128

>  <SCORE.INTRA.POLAR>
0

>  <SCORE.INTRA.POLAR.0>
0

>  <SCORE.INTRA.REPUL>
0

>  <SCORE.INTRA.REPUL.0>
0

>  <SCORE.INTRA.SOLV>
0.163242

>  <SCORE.INTRA.SOLV.lig_0>
-32.3374

>  <SCORE.INTRA.VDW>
0.523093

>  <SCORE.INTRA.VDW.0>
-0.659551

>  <SCORE.INTRA.norm>
-0.0420849

>  <SCORE.RESTR>
0

>  <SCORE.RESTR.CAVITY>
0

>  <SCORE.RESTR.norm>
0

>  <SCORE.SYSTEM>
0

>  <SCORE.SYSTEM.CONST>
0

>  <SCORE.SYSTEM.DIHEDRAL>
0

>  <SCORE.SYSTEM.SOLV>
0

>  <SCORE.SYSTEM.norm>
0

>  <SCORE.heavy>
10

>  <SCORE.norm>
-0.972484

>  <RMSD>
5.478

$$$$
ligand
 OpenBabel11021811473D
libRbt.so/2013.1/901 2013/11/27
 10  9  0  0  0  0  0  0  0  0999 V2000
   28.4854   15.3013   19.0334 N   0  0  0  0  0  0  0  0  0  0  0  0
   28.2016   14.8983   20.4393 C   0  0  2  0  0  0  0  0  0  0  0  0
   26.7287   15.0822   20.8055 C   0  0  0  0  0  0  0  0  0  0  0  0
   25.9005   15.5029   19.9912 O   0  0  0  0  0  0  0  0  0  0  0  0
   29.1110   15.6497   21.4150 C   0  0  0  0  0  0  0  0  0  0  0  0
   30.5809   15.2617   21.3251 C   0  0  0  0  0  0  0  0  0  0  0  0
   31.4300   16.0947   22.2849 C   0  0  0  0  0  0  0  0  0  0  0  0
   31.6535   17.5090   21.7613 C   0  0  0  0  0  0  0  0  0  0  0  0
   32.6293   18.2819   22.5847 N   0  0  0  0  0  0  0  0  0  0  0  0
   26.3233   14.7889   21.9282 O   0  0  0  0  0  0  0  0  0  0  0  0
  2  1  1  6  0  0  0
  2  3  1  0  0  0  0
  2  5  1  0  0  0  0
  3  4  1  0  0  0  0
  3 10  1  0  0  0  0
  5  6  1  0  0  0  0
  6  7  1  0  0  0  0
  7  8  1  0  0  0  0
  8  9  1  0  0  0  0
M  END
>  <CHROM.1>
0.89957019,-68.18262121,177.57494225,-76.08313142,-172.17749373,29.06073490
15.83496156,21.16159331,-2.80807562,0.33778361,1.40102484

>  <Name>
ligand

>  <RI>
0

>  <Rbt.Current_Directory>
/home/itssahil/PROJECTS/Mol_Feturizer/New_Systems/rnas/3DJ2

>  <Rbt.Executable>
rbdock ($Id: //depot/dev/client3/rdock/2013.1/src/exe/rbdock.cxx#4 $)

>  <Rbt.Library>
libRbt.so (2013.1, Build901 2013/11/27)

>  <Rbt.Parameter_File>
/export/apps/rDock/src/rDock_2013.1_src/data/scripts/dock_solv.prm

>  <Rbt.Receptor>
prm/pocket_docking_6.prm

>  <SCORE>
-9.79562

>  <SCORE.INTER>
-9.32611

>  <SCORE.INTER.CONST>
1

>  <SCORE.INTER.POLAR>
0

>  <SCORE.INTER.ROT>
5

>  <SCORE.INTER.SOLV>
13.0901

>  <SCORE.INTER.VDW>
-17.5141

>  <SCORE.INTER.norm>
-0.932611

>  <SCORE.INTRA>
-0.469507

>  <SCORE.INTRA.DIHEDRAL>
-1.20148

>  <SCORE.INTRA.DIHEDRAL.0>
4.28128

>  <SCORE.INTRA.POLAR>
0

>  <SCORE.INTRA.POLAR.0>
0

>  <SCORE.INTRA.REPUL>
0

>  <SCORE.INTRA.REPUL.0>
0

>  <SCORE.INTRA.SOLV>
-0.390268

>  <SCORE.INTRA.SOLV.lig_0>
-32.3374

>  <SCORE.INTRA.VDW>
0.326369

>  <SCORE.INTRA.VDW.0>
-0.659551

>  <SCORE.INTRA.norm>
-0.0469507

>  <SCORE.RESTR>
0

>  <SCORE.RESTR.CAVITY>
0

>  <SCORE.RESTR.norm>
0

>  <SCORE.SYSTEM>
0

>  <SCORE.SYSTEM.CONST>
0

>  <SCORE.SYSTEM.DIHEDRAL>
0

>  <SCORE.SYSTEM.SOLV>
0

>  <SCORE.SYSTEM.norm>
0

>  <SCORE.heavy>
10

>  <SCORE.norm>
-0.979562

>  <RMSD>
5.479

$$$$
ligand
 OpenBabel11021811473D
libRbt.so/2013.1/901 2013/11/27
 10  9  0  0  0  0  0  0  0  0999 V2000
   28.6921   14.8126   19.1485 N   0  0  0  0  0  0  0  0  0  0  0  0
   28.2556   14.9028   20.5700 C   0  0  2  0  0  0  0  0  0  0  0  0
   26.7409   15.0645   20.6988 C   0  0  0  0  0  0  0  0  0  0  0  0
   26.0638   15.6020   19.8165 O   0  0  0  0  0  0  0  0  0  0  0  0
   28.9948   16.0299   21.2959 C   0  0  0  0  0  0  0  0  0  0  0  0
   30.5067   15.8542   21.3482 C   0  0  0  0  0  0  0  0  0  0  0  0
   31.1735   17.0309   22.0601 C   0  0  0  0  0  0  0  0  0  0  0  0
   32.6920   16.8961   22.0763 C   0  0  0  0  0  0  0  0  0  0  0  0
   33.2910   16.9504   20.7104 N   0  0  0  0  0  0  0  0  0  0  0  0
   26.1491   14.6359   21.6872 O   0  0  0  0  0  0  0  0  0  0  0  0
  2  1  1  6  0  0  0
  2  3  1  0  0  0  0
  2  5  1  0  0  0  0
  3  4  1  0  0  0  0
  3 10  1  0  0  0  0
  5  6  1  0  0  0  0
  6  7  1  0  0  0  0
  7  8  1  0  0  0  0
  8  9  1  0  0  0  0
M  END
>  <CHROM.1>
-27.98395429,-61.15853036,178.77168613,-177.90737652,64.63271987,29.21048484
15.77592021,20.94229622,-2.92097408,0.25733649,1.33486757

>  <Name>
ligand

>  <RI>
0

>  <Rbt.Current_Directory>
/home/itssahil/PROJECTS/Mol_Feturizer/New_Systems/rnas/3DJ2

>  <Rbt.Executable>
rbdock ($Id: //depot/dev/client3/rdock/2013.1/src/exe/rbdock.cxx#4 $)

>  <Rbt.Library>
libRbt.so (2013.1, Build901 2013/11/27)

>  <Rbt.Parameter_File>
/export/apps/rDock/src/rDock_2013.1_src/data/scripts/dock_solv.prm

>  <Rbt.Receptor>
prm/pocket_docking_7.prm

>  <SCORE>
-10.6611

>  <SCORE.INTER>
-9.47507

>  <SCORE.INTER.CONST>
1

>  <SCORE.INTER.POLAR>
0

>  <SCORE.INTER.ROT>
5

>  <SCORE.INTER.SOLV>
13.3017

>  <SCORE.INTER.VDW>
-17.6839

>  <SCORE.INTER.norm>
-0.947507

>  <SCORE.INTRA>
-1.18599

>  <SCORE.INTRA.DIHEDRAL>
-2.59484

>  <SCORE.INTRA.DIHEDRAL.0>
4.28128

>  <SCORE.INTRA.POLAR>
0

>  <SCORE.INTRA.POLAR.0>
0

>  <SCORE.INTRA.REPUL>
0

>  <SCORE.INTRA.REPUL.0>
0

>  <SCORE.INTRA.SOLV>
0.44171

>  <SCORE.INTRA.SOLV.lig_0>
-32.3374

>  <SCORE.INTRA.VDW>
-0.109424

>  <SCORE.INTRA.VDW.0>
-0.659551

>  <SCORE.INTRA.norm>
-0.118599

>  <SCORE.RESTR>
0

>  <SCORE.RESTR.CAVITY>
0

>  <SCORE.RESTR.norm>
0

>  <SCORE.SYSTEM>
0

>  <SCORE.SYSTEM.CONST>
0

>  <SCORE.SYSTEM.DIHEDRAL>
0

>  <SCORE.SYSTEM.SOLV>
0

>  <SCORE.SYSTEM.norm>
0

>  <SCORE.heavy>
10

>  <SCORE.norm>
-1.06611

>  <RMSD>
5.479

$$$$
ligand
 OpenBabel11021811473D
libRbt.so/2013.1/901 2013/11/27
 10  9  0  0  0  0  0  0  0  0999 V2000
   28.9595   14.3982   21.5530 N   0  0  0  0  0  0  0  0  0  0  0  0
   28.0901   15.5628   21.2259 C   0  0  2  0  0  0  0  0  0  0  0  0
   26.6871   15.1325   20.7975 C   0  0  0  0  0  0  0  0  0  0  0  0
   26.2727   15.3074   19.6470 O   0  0  0  0  0  0  0  0  0  0  0  0
   28.7444   16.4490   20.1628 C   0  0  0  0  0  0  0  0  0  0  0  0
   30.0433   17.1066   20.6098 C   0  0  0  0  0  0  0  0  0  0  0  0
   31.1681   16.0786   20.7296 C   0  0  0  0  0  0  0  0  0  0  0  0
   32.5051   16.7371   21.0511 C   0  0  0  0  0  0  0  0  0  0  0  0
   32.4684   17.5314   22.3140 N   0  0  0  0  0  0  0  0  0  0  0  0
   25.9357   14.5725   21.5930 O   0  0  0  0  0  0  0  0  0  0  0  0
  2  1  1  6  0  0  0
  2  3  1  0  0  0  0
  2  5  1  0  0  0  0
  3  4  1  0  0  0  0
  3 10  1  0  0  0  0
  5  6  1  0  0  0  0
  6  7  1  0  0  0  0
  7  8  1  0  0  0  0
  8  9  1  0  0  0  0
M  END
>  <CHROM.1>
-113.34890998,-64.21946036,70.98516498,174.75393992,58.02789509,29.04498495
15.87418590,20.95895760,-3.01782395,-0.33885050,-0.90432473

>  <Name>
ligand

>  <RI>
0

>  <Rbt.Current_Directory>
/home/itssahil/PROJECTS/Mol_Feturizer/New_Systems/rnas/3DJ2

>  <Rbt.Executable>
rbdock ($Id: //depot/dev/client3/rdock/2013.1/src/exe/rbdock.cxx#4 $)

>  <Rbt.Library>
libRbt.so (2013.1, Build901 2013/11/27)

>  <Rbt.Parameter_File>
/export/apps/rDock/src/rDock_2013.1_src/data/scripts/dock_solv.prm

>  <Rbt.Receptor>
prm/blind_docking_60.prm

>  <SCORE>
-8.78624

>  <SCORE.INTER>
-9.69038

>  <SCORE.INTER.CONST>
1

>  <SCORE.INTER.POLAR>
0

>  <SCORE.INTER.ROT>
5

>  <SCORE.INTER.SOLV>
13.4698

>  <SCORE.INTER.VDW>
-17.8835

>  <SCORE.INTER.norm>
-0.969038

>  <SCORE.INTRA>
0.904142

>  <SCORE.INTRA.DIHEDRAL>
-2.0681

>  <SCORE.INTRA.DIHEDRAL.0>
4.28128

>  <SCORE.INTRA.POLAR>
0

>  <SCORE.INTRA.POLAR.0>
0

>  <SCORE.INTRA.REPUL>
0

>  <SCORE.INTRA.REPUL.0>
0

>  <SCORE.INTRA.SOLV>
1.91414

>  <SCORE.INTRA.SOLV.lig_0>
-32.3374

>  <SCORE.INTRA.VDW>
0.981124

>  <SCORE.INTRA.VDW.0>
-0.659551

>  <SCORE.INTRA.norm>
0.0904142

>  <SCORE.RESTR>
0

>  <SCORE.RESTR.CAVITY>
0

>  <SCORE.RESTR.norm>
0

>  <SCORE.SYSTEM>
0

>  <SCORE.SYSTEM.CONST>
0

>  <SCORE.SYSTEM.DIHEDRAL>
0

>  <SCORE.SYSTEM.SOLV>
0

>  <SCORE.SYSTEM.norm>
0

>  <SCORE.heavy>
10

>  <SCORE.norm>
-0.878624

>  <RMSD>
5.480

$$$$
ligand
 OpenBabel11021811473D
libRbt.so/2013.1/901 2013/11/27
 10  9  0  0  0  0  0  0  0  0999 V2000
   25.7455   14.9266   20.7271 N   0  0  0  0  0  0  0  0  0  0  0  0
   27.0244   15.5736   20.3208 C   0  0  2  0  0  0  0  0  0  0  0  0
   27.5133   15.0794   18.9592 C   0  0  0  0  0  0  0  0  0  0  0  0
   27.2537   13.9454   18.5438 O   0  0  0  0  0  0  0  0  0  0  0  0
   28.0973   15.3811   21.3957 C   0  0  0  0  0  0  0  0  0  0  0  0
   29.3855   16.1517   21.1387 C   0  0  0  0  0  0  0  0  0  0  0  0
   30.4207   15.8728   22.2281 C   0  0  0  0  0  0  0  0  0  0  0  0
   31.6827   16.7064   22.0368 C   0  0  0  0  0  0  0  0  0  0  0  0
   32.3955   16.3909   20.7641 N   0  0  0  0  0  0  0  0  0  0  0  0
   28.1658   15.8180   18.2245 O   0  0  0  0  0  0  0  0  0  0  0  0
  2  1  1  1  0  0  0
  2  3  1  0  0  0  0
  2  5  1  0  0  0  0
  3  4  1  0  0  0  0
  3 10  1  0  0  0  0
  5  6  1  0  0  0  0
  6  7  1  0  0  0  0
  7  8  1  0  0  0  0
  8  9  1  0  0  0  0
M  END
>  <CHROM.1>
-29.08252817,-173.04237257,-178.13805184,-176.24865654,-62.94479971,28.76914682
15.57221150,20.39835312,2.66906297,-0.25256553,-1.71458884

>  <Name>
ligand

>  <RI>
0

>  <Rbt.Current_Directory>
/home/itssahil/PROJECTS/Mol_Feturizer/New_Systems/rnas/3DJ2

>  <Rbt.Executable>
rbdock ($Id: //depot/dev/client3/rdock/2013.1/src/exe/rbdock.cxx#4 $)

>  <Rbt.Library>
libRbt.so (2013.1, Build901 2013/11/27)

>  <Rbt.Parameter_File>
/export/apps/rDock/src/rDock_2013.1_src/data/scripts/dock_solv.prm

>  <Rbt.Receptor>
prm/blind_docking_60.prm

>  <SCORE>
-9.76542

>  <SCORE.INTER>
-8.26547

>  <SCORE.INTER.CONST>
1

>  <SCORE.INTER.POLAR>
0

>  <SCORE.INTER.ROT>
5

>  <SCORE.INTER.SOLV>
18.1638

>  <SCORE.INTER.VDW>
-18.4982

>  <SCORE.INTER.norm>
-0.826547

>  <SCORE.INTRA>
-1.49994

>  <SCORE.INTRA.DIHEDRAL>
-2.43305

>  <SCORE.INTRA.DIHEDRAL.0>
4.28128

>  <SCORE.INTRA.POLAR>
0

>  <SCORE.INTRA.POLAR.0>
0

>  <SCORE.INTRA.REPUL>
0

>  <SCORE.INTRA.REPUL.0>
0

>  <SCORE.INTRA.SOLV>
-0.444164

>  <SCORE.INTRA.SOLV.lig_0>
-32.3374

>  <SCORE.INTRA.VDW>
-0.0613393

>  <SCORE.INTRA.VDW.0>
-0.659551

>  <SCORE.INTRA.norm>
-0.149994

>  <SCORE.RESTR>
0

>  <SCORE.RESTR.CAVITY>
0

>  <SCORE.RESTR.norm>
0

>  <SCORE.SYSTEM>
0

>  <SCORE.SYSTEM.CONST>
0

>  <SCORE.SYSTEM.DIHEDRAL>
0

>  <SCORE.SYSTEM.SOLV>
0

>  <SCORE.SYSTEM.norm>
0

>  <SCORE.heavy>
10

>  <SCORE.norm>
-0.976542

>  <RMSD>
5.481

$$$$
ligand
 OpenBabel11021811473D
libRbt.so/2013.1/901 2013/11/27
 10  9  0  0  0  0  0  0  0  0999 V2000
   28.5739   15.0150   19.0390 N   0  0  0  0  0  0  0  0  0  0  0  0
   28.1526   14.7549   20.4440 C   0  0  2  0  0  0  0  0  0  0  0  0
   26.6656   15.0360   20.6613 C   0  0  0  0  0  0  0  0  0  0  0  0
   26.0783   14.6877   21.6907 O   0  0  0  0  0  0  0  0  0  0  0  0
   29.0144   15.5515   21.4271 C   0  0  0  0  0  0  0  0  0  0  0  0
   30.4580   15.0757   21.5210 C   0  0  0  0  0  0  0  0  0  0  0  0
   31.2934   16.0187   22.3865 C   0  0  0  0  0  0  0  0  0  0  0  0
   31.6084   17.3225   21.6617 C   0  0  0  0  0  0  0  0  0  0  0  0
   32.5540   18.1917   22.4219 N   0  0  0  0  0  0  0  0  0  0  0  0
   26.0152   15.6452   19.8146 O   0  0  0  0  0  0  0  0  0  0  0  0
  2  1  1  6  0  0  0
  2  3  1  0  0  0  0
  2  5  1  0  0  0  0
  3  4  1  0  0  0  0
  3 10  1  0  0  0  0
  5  6  1  0  0  0  0
  6  7  1  0  0  0  0
  7  8  1  0  0  0  0
  8  9  1  0  0  0  0
M  END
>  <CHROM.1>
168.50098586,-69.28735921,173.08238742,-74.29700000,-173.28979010,28.99751967
15.73076151,21.10808460,-2.81712802,0.34553832,1.45962413

>  <Name>
ligand

>  <RI>
0

>  <Rbt.Current_Directory>
/home/itssahil/PROJECTS/Mol_Feturizer/New_Systems/rnas/3DJ2

>  <Rbt.Executable>
rbdock ($Id: //depot/dev/client3/rdock/2013.1/src/exe/rbdock.cxx#4 $)

>  <Rbt.Library>
libRbt.so (2013.1, Build901 2013/11/27)

>  <Rbt.Parameter_File>
/export/apps/rDock/src/rDock_2013.1_src/data/scripts/dock_solv.prm

>  <Rbt.Receptor>
prm/pocket_docking_5.prm

>  <SCORE>
-9.91581

>  <SCORE.INTER>
-9.39494

>  <SCORE.INTER.CONST>
1

>  <SCORE.INTER.POLAR>
0

>  <SCORE.INTER.ROT>
5

>  <SCORE.INTER.SOLV>
13.0907

>  <SCORE.INTER.VDW>
-17.5602

>  <SCORE.INTER.norm>
-0.939494

>  <SCORE.INTRA>
-0.521316

>  <SCORE.INTRA.DIHEDRAL>
-1.2479

>  <SCORE.INTRA.DIHEDRAL.0>
4.28128

>  <SCORE.INTRA.POLAR>
0

>  <SCORE.INTRA.POLAR.0>
0

>  <SCORE.INTRA.REPUL>
0

>  <SCORE.INTRA.REPUL.0>
0

>  <SCORE.INTRA.SOLV>
-0.303259

>  <SCORE.INTRA.SOLV.lig_0>
-32.3374

>  <SCORE.INTRA.VDW>
0.254262

>  <SCORE.INTRA.VDW.0>
-0.659551

>  <SCORE.INTRA.norm>
-0.0521316

>  <SCORE.RESTR>
0.000445421

>  <SCORE.RESTR.CAVITY>
0.000445421

>  <SCORE.RESTR.norm>
4.45421e-05

>  <SCORE.SYSTEM>
0

>  <SCORE.SYSTEM.CONST>
0

>  <SCORE.SYSTEM.DIHEDRAL>
0

>  <SCORE.SYSTEM.SOLV>
0

>  <SCORE.SYSTEM.norm>
0

>  <SCORE.heavy>
10

>  <SCORE.norm>
-0.991581

>  <RMSD>
5.481

$$$$
ligand
 OpenBabel11021811473D
libRbt.so/2013.1/901 2013/11/27
 10  9  0  0  0  0  0  0  0  0999 V2000
   27.8565   14.6002   18.5166 N   0  0  0  0  0  0  0  0  0  0  0  0
   27.9774   14.5838   20.0013 C   0  0  2  0  0  0  0  0  0  0  0  0
   26.6546   14.9179   20.6911 C   0  0  0  0  0  0  0  0  0  0  0  0
   26.4520   14.6513   21.8801 O   0  0  0  0  0  0  0  0  0  0  0  0
   29.0949   15.5208   20.4669 C   0  0  0  0  0  0  0  0  0  0  0  0
   29.4504   15.3860   21.9416 C   0  0  0  0  0  0  0  0  0  0  0  0
   30.3931   16.5043   22.3852 C   0  0  0  0  0  0  0  0  0  0  0  0
   31.7431   16.4192   21.6818 C   0  0  0  0  0  0  0  0  0  0  0  0
   32.6451   17.5579   22.0239 N   0  0  0  0  0  0  0  0  0  0  0  0
   25.7569   15.4897   20.0761 O   0  0  0  0  0  0  0  0  0  0  0  0
  2  1  1  6  0  0  0
  2  3  1  0  0  0  0
  2  5  1  0  0  0  0
  3  4  1  0  0  0  0
  3 10  1  0  0  0  0
  5  6  1  0  0  0  0
  6  7  1  0  0  0  0
  7  8  1  0  0  0  0
  8  9  1  0  0  0  0
M  END
>  <CHROM.1>
162.34015574,-169.89608223,-170.30345993,-64.78785207,175.81194343,28.76313599
15.56540982,20.97781148,-2.77011871,0.29345272,1.36723360

>  <Name>
ligand

>  <RI>
0

>  <Rbt.Current_Directory>
/home/itssahil/PROJECTS/Mol_Feturizer/New_Systems/rnas/3DJ2

>  <Rbt.Executable>
rbdock ($Id: //depot/dev/client3/rdock/2013.1/src/exe/rbdock.cxx#4 $)

>  <Rbt.Library>
libRbt.so (2013.1, Build901 2013/11/27)

>  <Rbt.Parameter_File>
/export/apps/rDock/src/rDock_2013.1_src/data/scripts/dock_solv.prm

>  <Rbt.Receptor>
prm/pocket_docking_6.prm

>  <SCORE>
-10.1277

>  <SCORE.INTER>
-9.31786

>  <SCORE.INTER.CONST>
1

>  <SCORE.INTER.POLAR>
0

>  <SCORE.INTER.ROT>
5

>  <SCORE.INTER.SOLV>
13.8881

>  <SCORE.INTER.VDW>
-17.7746

>  <SCORE.INTER.norm>
-0.931786

>  <SCORE.INTRA>
-0.809814

>  <SCORE.INTRA.DIHEDRAL>
-1.88548

>  <SCORE.INTRA.DIHEDRAL.0>
4.28128

>  <SCORE.INTRA.POLAR>
0

>  <SCORE.INTRA.POLAR.0>
0

>  <SCORE.INTRA.REPUL>
0

>  <SCORE.INTRA.REPUL.0>
0

>  <SCORE.INTRA.SOLV>
-1.04888

>  <SCORE.INTRA.SOLV.lig_0>
-32.3374

>  <SCORE.INTRA.VDW>
0.657367

>  <SCORE.INTRA.VDW.0>
-0.659551

>  <SCORE.INTRA.norm>
-0.0809814

>  <SCORE.RESTR>
0

>  <SCORE.RESTR.CAVITY>
0

>  <SCORE.RESTR.norm>
0

>  <SCORE.SYSTEM>
0

>  <SCORE.SYSTEM.CONST>
0

>  <SCORE.SYSTEM.DIHEDRAL>
0

>  <SCORE.SYSTEM.SOLV>
0

>  <SCORE.SYSTEM.norm>
0

>  <SCORE.heavy>
10

>  <SCORE.norm>
-1.01277

>  <RMSD>
5.481

$$$$
ligand
 OpenBabel11021811473D
libRbt.so/2013.1/901 2013/11/27
 10  9  0  0  0  0  0  0  0  0999 V2000
   28.6284   16.8493   19.6537 N   0  0  0  0  0  0  0  0  0  0  0  0
   28.4067   15.4005   19.9204 C   0  0  2  0  0  0  0  0  0  0  0  0
   27.0323   14.9303   19.4439 C   0  0  0  0  0  0  0  0  0  0  0  0
   26.9034   14.1004   18.5380 O   0  0  0  0  0  0  0  0  0  0  0  0
   28.6158   15.0818   21.4031 C   0  0  0  0  0  0  0  0  0  0  0  0
   30.0699   15.1271   21.8536 C   0  0  0  0  0  0  0  0  0  0  0  0
   30.6144   16.5547   21.8140 C   0  0  0  0  0  0  0  0  0  0  0  0
   32.1004   16.6034   22.1513 C   0  0  0  0  0  0  0  0  0  0  0  0
   32.6546   17.9888   22.1187 N   0  0  0  0  0  0  0  0  0  0  0  0
   26.0084   15.3554   19.9749 O   0  0  0  0  0  0  0  0  0  0  0  0
  2  1  1  1  0  0  0
  2  3  1  0  0  0  0
  2  5  1  0  0  0  0
  3  4  1  0  0  0  0
  3 10  1  0  0  0  0
  5  6  1  0  0  0  0
  6  7  1  0  0  0  0
  7  8  1  0  0  0  0
  8  9  1  0  0  0  0
M  END
>  <CHROM.1>
115.47806064,-71.95511592,67.98646395,-175.30286569,179.99552865,29.06353906
15.78401113,20.67033851,3.10120629,0.59841203,2.54314795

>  <Name>
ligand

>  <RI>
0

>  <Rbt.Current_Directory>
/home/itssahil/PROJECTS/Mol_Feturizer/New_Systems/rnas/3DJ2

>  <Rbt.Executable>
rbdock ($Id: //depot/dev/client3/rdock/2013.1/src/exe/rbdock.cxx#4 $)

>  <Rbt.Library>
libRbt.so (2013.1, Build901 2013/11/27)

>  <Rbt.Parameter_File>
/export/apps/rDock/src/rDock_2013.1_src/data/scripts/dock_solv.prm

>  <Rbt.Receptor>
prm/pocket_docking_3.prm

>  <SCORE>
-8.92511

>  <SCORE.INTER>
-8.65718

>  <SCORE.INTER.CONST>
1

>  <SCORE.INTER.POLAR>
0

>  <SCORE.INTER.ROT>
5

>  <SCORE.INTER.SOLV>
13.9871

>  <SCORE.INTER.VDW>
-17.3671

>  <SCORE.INTER.norm>
-0.865718

>  <SCORE.INTRA>
-0.267931

>  <SCORE.INTRA.DIHEDRAL>
-1.81552

>  <SCORE.INTRA.DIHEDRAL.0>
4.28128

>  <SCORE.INTRA.POLAR>
0

>  <SCORE.INTRA.POLAR.0>
0

>  <SCORE.INTRA.REPUL>
0

>  <SCORE.INTRA.REPUL.0>
0

>  <SCORE.INTRA.SOLV>
0.854994

>  <SCORE.INTRA.SOLV.lig_0>
-32.3374

>  <SCORE.INTRA.VDW>
0.212329

>  <SCORE.INTRA.VDW.0>
-0.659551

>  <SCORE.INTRA.norm>
-0.0267931

>  <SCORE.RESTR>
0

>  <SCORE.RESTR.CAVITY>
0

>  <SCORE.RESTR.norm>
0

>  <SCORE.SYSTEM>
0

>  <SCORE.SYSTEM.CONST>
0

>  <SCORE.SYSTEM.DIHEDRAL>
0

>  <SCORE.SYSTEM.SOLV>
0

>  <SCORE.SYSTEM.norm>
0

>  <SCORE.heavy>
10

>  <SCORE.norm>
-0.892511

>  <RMSD>
5.484

$$$$
ligand
 OpenBabel11021811473D
libRbt.so/2013.1/901 2013/11/27
 10  9  0  0  0  0  0  0  0  0999 V2000
   27.1098   14.2493   18.6153 N   0  0  0  0  0  0  0  0  0  0  0  0
   27.7238   14.5940   19.9281 C   0  0  2  0  0  0  0  0  0  0  0  0
   26.6713   14.8677   21.0026 C   0  0  0  0  0  0  0  0  0  0  0  0
   26.9641   14.9416   22.2004 O   0  0  0  0  0  0  0  0  0  0  0  0
   28.6869   15.7754   19.7851 C   0  0  0  0  0  0  0  0  0  0  0  0
   29.4797   16.0922   21.0462 C   0  0  0  0  0  0  0  0  0  0  0  0
   30.4244   17.2725   20.8208 C   0  0  0  0  0  0  0  0  0  0  0  0
   31.2331   17.5974   22.0717 C   0  0  0  0  0  0  0  0  0  0  0  0
   32.1824   16.5078   22.4445 N   0  0  0  0  0  0  0  0  0  0  0  0
   25.4952   15.0468   20.6931 O   0  0  0  0  0  0  0  0  0  0  0  0
  2  1  1  6  0  0  0
  2  3  1  0  0  0  0
  2  5  1  0  0  0  0
  3  4  1  0  0  0  0
  3 10  1  0  0  0  0
  5  6  1  0  0  0  0
  6  7  1  0  0  0  0
  7  8  1  0  0  0  0
  8  9  1  0  0  0  0
M  END
>  <CHROM.1>
167.24576047,-173.31810344,179.51975775,-179.62330611,65.78655929,28.56432335
15.69464475,20.88188435,-2.77976146,0.38423103,1.37197408

>  <Name>
ligand

>  <RI>
0

>  <Rbt.Current_Directory>
/home/itssahil/PROJECTS/Mol_Feturizer/New_Systems/rnas/3DJ2

>  <Rbt.Executable>
rbdock ($Id: //depot/dev/client3/rdock/2013.1/src/exe/rbdock.cxx#4 $)

>  <Rbt.Library>
libRbt.so (2013.1, Build901 2013/11/27)

>  <Rbt.Parameter_File>
/export/apps/rDock/src/rDock_2013.1_src/data/scripts/dock_solv.prm

>  <Rbt.Receptor>
prm/pocket_docking_3.prm

>  <SCORE>
-9.34252

>  <SCORE.INTER>
-7.99341

>  <SCORE.INTER.CONST>
1

>  <SCORE.INTER.POLAR>
0

>  <SCORE.INTER.ROT>
5

>  <SCORE.INTER.SOLV>
16.5714

>  <SCORE.INTER.VDW>
-17.7861

>  <SCORE.INTER.norm>
-0.799341

>  <SCORE.INTRA>
-1.34911

>  <SCORE.INTRA.DIHEDRAL>
-2.50718

>  <SCORE.INTRA.DIHEDRAL.0>
4.28128

>  <SCORE.INTRA.POLAR>
0

>  <SCORE.INTRA.POLAR.0>
0

>  <SCORE.INTRA.REPUL>
0

>  <SCORE.INTRA.REPUL.0>
0

>  <SCORE.INTRA.SOLV>
-0.455355

>  <SCORE.INTRA.SOLV.lig_0>
-32.3374

>  <SCORE.INTRA.VDW>
0.132157

>  <SCORE.INTRA.VDW.0>
-0.659551

>  <SCORE.INTRA.norm>
-0.134911

>  <SCORE.RESTR>
0

>  <SCORE.RESTR.CAVITY>
0

>  <SCORE.RESTR.norm>
0

>  <SCORE.SYSTEM>
0

>  <SCORE.SYSTEM.CONST>
0

>  <SCORE.SYSTEM.DIHEDRAL>
0

>  <SCORE.SYSTEM.SOLV>
0

>  <SCORE.SYSTEM.norm>
0

>  <SCORE.heavy>
10

>  <SCORE.norm>
-0.934252

>  <RMSD>
5.486

$$$$
ligand
 OpenBabel11021811473D
libRbt.so/2013.1/901 2013/11/27
 10  9  0  0  0  0  0  0  0  0999 V2000
   28.5843   14.3075   19.2760 N   0  0  0  0  0  0  0  0  0  0  0  0
   28.0114   14.6156   20.6162 C   0  0  2  0  0  0  0  0  0  0  0  0
   26.5977   15.1897   20.5207 C   0  0  0  0  0  0  0  0  0  0  0  0
   25.6578   14.7241   21.1731 O   0  0  0  0  0  0  0  0  0  0  0  0
   28.9351   15.5506   21.4012 C   0  0  0  0  0  0  0  0  0  0  0  0
   30.3033   14.9597   21.7148 C   0  0  0  0  0  0  0  0  0  0  0  0
   31.1795   15.9655   22.4609 C   0  0  0  0  0  0  0  0  0  0  0  0
   31.6295   17.1061   21.5547 C   0  0  0  0  0  0  0  0  0  0  0  0
   32.5746   18.0424   22.2313 N   0  0  0  0  0  0  0  0  0  0  0  0
   26.3645   16.1577   19.7998 O   0  0  0  0  0  0  0  0  0  0  0  0
  2  1  1  6  0  0  0
  2  3  1  0  0  0  0
  2  5  1  0  0  0  0
  3  4  1  0  0  0  0
  3 10  1  0  0  0  0
  5  6  1  0  0  0  0
  6  7  1  0  0  0  0
  7  8  1  0  0  0  0
  8  9  1  0  0  0  0
M  END
>  <CHROM.1>
128.59748749,-63.02791894,178.28859801,-71.05492597,-175.41941948,28.94122451
15.66977582,21.06970402,-2.75254899,-0.22755209,0.21386871

>  <Name>
ligand

>  <RI>
0

>  <Rbt.Current_Directory>
/home/itssahil/PROJECTS/Mol_Feturizer/New_Systems/rnas/3DJ2

>  <Rbt.Executable>
rbdock ($Id: //depot/dev/client3/rdock/2013.1/src/exe/rbdock.cxx#4 $)

>  <Rbt.Library>
libRbt.so (2013.1, Build901 2013/11/27)

>  <Rbt.Parameter_File>
/export/apps/rDock/src/rDock_2013.1_src/data/scripts/dock_solv.prm

>  <Rbt.Receptor>
prm/blind_docking_100.prm

>  <SCORE>
-9.86683

>  <SCORE.INTER>
-8.94499

>  <SCORE.INTER.CONST>
1

>  <SCORE.INTER.POLAR>
0

>  <SCORE.INTER.ROT>
5

>  <SCORE.INTER.SOLV>
13.916

>  <SCORE.INTER.VDW>
-17.5353

>  <SCORE.INTER.norm>
-0.894499

>  <SCORE.INTRA>
-0.921845

>  <SCORE.INTRA.DIHEDRAL>
-2.14153

>  <SCORE.INTRA.DIHEDRAL.0>
4.28128

>  <SCORE.INTRA.POLAR>
0

>  <SCORE.INTRA.POLAR.0>
0

>  <SCORE.INTRA.REPUL>
0

>  <SCORE.INTRA.REPUL.0>
0

>  <SCORE.INTRA.SOLV>
-0.298227

>  <SCORE.INTRA.SOLV.lig_0>
-32.3374

>  <SCORE.INTRA.VDW>
0.298031

>  <SCORE.INTRA.VDW.0>
-0.659551

>  <SCORE.INTRA.norm>
-0.0921845

>  <SCORE.RESTR>
0

>  <SCORE.RESTR.CAVITY>
0

>  <SCORE.RESTR.norm>
0

>  <SCORE.SYSTEM>
0

>  <SCORE.SYSTEM.CONST>
0

>  <SCORE.SYSTEM.DIHEDRAL>
0

>  <SCORE.SYSTEM.SOLV>
0

>  <SCORE.SYSTEM.norm>
0

>  <SCORE.heavy>
10

>  <SCORE.norm>
-0.986683

>  <RMSD>
5.488

$$$$
ligand
 OpenBabel11021811473D
libRbt.so/2013.1/901 2013/11/27
 10  9  0  0  0  0  0  0  0  0999 V2000
   25.7428   15.1157   20.5293 N   0  0  0  0  0  0  0  0  0  0  0  0
   27.1690   15.4040   20.2094 C   0  0  2  0  0  0  0  0  0  0  0  0
   27.5555   14.9197   18.8118 C   0  0  0  0  0  0  0  0  0  0  0  0
   28.2332   15.6112   18.0448 O   0  0  0  0  0  0  0  0  0  0  0  0
   28.0960   14.8126   21.2746 C   0  0  0  0  0  0  0  0  0  0  0  0
   29.5688   15.1457   21.0766 C   0  0  0  0  0  0  0  0  0  0  0  0
   29.8094   16.6525   21.1658 C   0  0  0  0  0  0  0  0  0  0  0  0
   31.2628   17.0118   20.8780 C   0  0  0  0  0  0  0  0  0  0  0  0
   32.2060   16.4602   21.8946 N   0  0  0  0  0  0  0  0  0  0  0  0
   27.2160   13.8046   18.4215 O   0  0  0  0  0  0  0  0  0  0  0  0
  2  1  1  1  0  0  0
  2  3  1  0  0  0  0
  2  5  1  0  0  0  0
  3  4  1  0  0  0  0
  3 10  1  0  0  0  0
  5  6  1  0  0  0  0
  6  7  1  0  0  0  0
  7  8  1  0  0  0  0
  8  9  1  0  0  0  0
M  END
>  <CHROM.1>
136.21894769,-175.90384062,62.49232265,-176.20953932,-64.48636784,28.68597556
15.48060033,20.19492967,2.65707952,-0.33914039,-1.69477173

>  <Name>
ligand

>  <RI>
0

>  <Rbt.Current_Directory>
/home/itssahil/PROJECTS/Mol_Feturizer/New_Systems/rnas/3DJ2

>  <Rbt.Executable>
rbdock ($Id: //depot/dev/client3/rdock/2013.1/src/exe/rbdock.cxx#4 $)

>  <Rbt.Library>
libRbt.so (2013.1, Build901 2013/11/27)

>  <Rbt.Parameter_File>
/export/apps/rDock/src/rDock_2013.1_src/data/scripts/dock_solv.prm

>  <Rbt.Receptor>
prm/blind_docking_100.prm

>  <SCORE>
-9.22658

>  <SCORE.INTER>
-7.90937

>  <SCORE.INTER.CONST>
1

>  <SCORE.INTER.POLAR>
0

>  <SCORE.INTER.ROT>
5

>  <SCORE.INTER.SOLV>
17.4447

>  <SCORE.INTER.VDW>
-18.0212

>  <SCORE.INTER.norm>
-0.790937

>  <SCORE.INTRA>
-1.31722

>  <SCORE.INTRA.DIHEDRAL>
-2.57466

>  <SCORE.INTRA.DIHEDRAL.0>
4.28128

>  <SCORE.INTRA.POLAR>
0

>  <SCORE.INTRA.POLAR.0>
0

>  <SCORE.INTRA.REPUL>
0

>  <SCORE.INTRA.REPUL.0>
0

>  <SCORE.INTRA.SOLV>
-0.213378

>  <SCORE.INTRA.SOLV.lig_0>
-32.3374

>  <SCORE.INTRA.VDW>
0.0768008

>  <SCORE.INTRA.VDW.0>
-0.659551

>  <SCORE.INTRA.norm>
-0.131722

>  <SCORE.RESTR>
0

>  <SCORE.RESTR.CAVITY>
0

>  <SCORE.RESTR.norm>
0

>  <SCORE.SYSTEM>
0

>  <SCORE.SYSTEM.CONST>
0

>  <SCORE.SYSTEM.DIHEDRAL>
0

>  <SCORE.SYSTEM.SOLV>
0

>  <SCORE.SYSTEM.norm>
0

>  <SCORE.heavy>
10

>  <SCORE.norm>
-0.922658

>  <RMSD>
5.488

$$$$
ligand
 OpenBabel11021811473D
libRbt.so/2013.1/901 2013/11/27
 10  9  0  0  0  0  0  0  0  0999 V2000
   28.7638   16.3896   19.6126 N   0  0  0  0  0  0  0  0  0  0  0  0
   28.4337   15.0476   20.1687 C   0  0  2  0  0  0  0  0  0  0  0  0
   27.0370   14.5810   19.7578 C   0  0  0  0  0  0  0  0  0  0  0  0
   26.0204   14.9672   20.3436 O   0  0  0  0  0  0  0  0  0  0  0  0
   28.5943   15.0348   21.6911 C   0  0  0  0  0  0  0  0  0  0  0  0
   30.0369   15.1368   22.1687 C   0  0  0  0  0  0  0  0  0  0  0  0
   30.6078   16.5294   21.9026 C   0  0  0  0  0  0  0  0  0  0  0  0
   32.0902   16.6094   22.2495 C   0  0  0  0  0  0  0  0  0  0  0  0
   32.6520   17.9803   22.0698 N   0  0  0  0  0  0  0  0  0  0  0  0
   26.8888   13.8179   18.8057 O   0  0  0  0  0  0  0  0  0  0  0  0
  2  1  1  1  0  0  0
  2  3  1  0  0  0  0
  2  5  1  0  0  0  0
  3  4  1  0  0  0  0
  3 10  1  0  0  0  0
  5  6  1  0  0  0  0
  6  7  1  0  0  0  0
  7  8  1  0  0  0  0
  8  9  1  0  0  0  0
M  END
>  <CHROM.1>
-81.09599471,-69.44607361,70.10084467,-174.45628246,-176.80049833,29.07222135
15.59362230,20.86166491,-2.96505877,0.58495438,2.04106761

>  <Name>
ligand

>  <RI>
0

>  <Rbt.Current_Directory>
/home/itssahil/PROJECTS/Mol_Feturizer/New_Systems/rnas/3DJ2

>  <Rbt.Executable>
rbdock ($Id: //depot/dev/client3/rdock/2013.1/src/exe/rbdock.cxx#4 $)

>  <Rbt.Library>
libRbt.so (2013.1, Build901 2013/11/27)

>  <Rbt.Parameter_File>
/export/apps/rDock/src/rDock_2013.1_src/data/scripts/dock_solv.prm

>  <Rbt.Receptor>
prm/blind_docking_100.prm

>  <SCORE>
-9.00777

>  <SCORE.INTER>
-8.85253

>  <SCORE.INTER.CONST>
1

>  <SCORE.INTER.POLAR>
0

>  <SCORE.INTER.ROT>
5

>  <SCORE.INTER.SOLV>
12.8396

>  <SCORE.INTER.VDW>
-17.1149

>  <SCORE.INTER.norm>
-0.885253

>  <SCORE.INTRA>
-0.155243

>  <SCORE.INTRA.DIHEDRAL>
-1.85134

>  <SCORE.INTRA.DIHEDRAL.0>
4.28128

>  <SCORE.INTRA.POLAR>
0

>  <SCORE.INTRA.POLAR.0>
0

>  <SCORE.INTRA.REPUL>
0

>  <SCORE.INTRA.REPUL.0>
0

>  <SCORE.INTRA.SOLV>
0.905607

>  <SCORE.INTRA.SOLV.lig_0>
-32.3374

>  <SCORE.INTRA.VDW>
0.317624

>  <SCORE.INTRA.VDW.0>
-0.659551

>  <SCORE.INTRA.norm>
-0.0155243

>  <SCORE.RESTR>
0

>  <SCORE.RESTR.CAVITY>
0

>  <SCORE.RESTR.norm>
0

>  <SCORE.SYSTEM>
0

>  <SCORE.SYSTEM.CONST>
0

>  <SCORE.SYSTEM.DIHEDRAL>
0

>  <SCORE.SYSTEM.SOLV>
0

>  <SCORE.SYSTEM.norm>
0

>  <SCORE.heavy>
10

>  <SCORE.norm>
-0.900777

>  <RMSD>
5.488

$$$$
ligand
 OpenBabel11021811473D
libRbt.so/2013.1/901 2013/11/27
 10  9  0  0  0  0  0  0  0  0999 V2000
   25.7813   15.0723   20.5588 N   0  0  0  0  0  0  0  0  0  0  0  0
   27.1261   15.5734   20.1594 C   0  0  2  0  0  0  0  0  0  0  0  0
   27.5741   15.0098   18.8107 C   0  0  0  0  0  0  0  0  0  0  0  0
   27.2742   13.8678   18.4475 O   0  0  0  0  0  0  0  0  0  0  0  0
   28.1609   15.2837   21.2498 C   0  0  0  0  0  0  0  0  0  0  0  0
   29.4616   16.0616   21.1003 C   0  0  0  0  0  0  0  0  0  0  0  0
   30.4573   15.6853   22.1972 C   0  0  0  0  0  0  0  0  0  0  0  0
   31.7245   16.5301   22.1256 C   0  0  0  0  0  0  0  0  0  0  0  0
   32.4728   16.3411   20.8482 N   0  0  0  0  0  0  0  0  0  0  0  0
   28.2329   15.6982   18.0342 O   0  0  0  0  0  0  0  0  0  0  0  0
  2  1  1  1  0  0  0
  2  3  1  0  0  0  0
  2  5  1  0  0  0  0
  3  4  1  0  0  0  0
  3 10  1  0  0  0  0
  5  6  1  0  0  0  0
  6  7  1  0  0  0  0
  7  8  1  0  0  0  0
  8  9  1  0  0  0  0
M  END
>  <CHROM.1>
-34.11070689,-164.99319521,-178.15970190,-175.69939207,-62.14797319,28.82651944
15.49861872,20.31743589,2.62527670,-0.21974181,-1.71879036

>  <Name>
ligand

>  <RI>
0

>  <Rbt.Current_Directory>
/home/itssahil/PROJECTS/Mol_Feturizer/New_Systems/rnas/3DJ2

>  <Rbt.Executable>
rbdock ($Id: //depot/dev/client3/rdock/2013.1/src/exe/rbdock.cxx#4 $)

>  <Rbt.Library>
libRbt.so (2013.1, Build901 2013/11/27)

>  <Rbt.Parameter_File>
/export/apps/rDock/src/rDock_2013.1_src/data/scripts/dock_solv.prm

>  <Rbt.Receptor>
prm/pocket_docking_5.prm

>  <SCORE>
-9.80285

>  <SCORE.INTER>
-8.48447

>  <SCORE.INTER.CONST>
1

>  <SCORE.INTER.POLAR>
0

>  <SCORE.INTER.ROT>
5

>  <SCORE.INTER.SOLV>
17.8783

>  <SCORE.INTER.VDW>
-18.5491

>  <SCORE.INTER.norm>
-0.848447

>  <SCORE.INTRA>
-1.31838

>  <SCORE.INTRA.DIHEDRAL>
-1.80021

>  <SCORE.INTRA.DIHEDRAL.0>
4.28128

>  <SCORE.INTRA.POLAR>
0

>  <SCORE.INTRA.POLAR.0>
0

>  <SCORE.INTRA.REPUL>
0

>  <SCORE.INTRA.REPUL.0>
0

>  <SCORE.INTRA.SOLV>
-0.425594

>  <SCORE.INTRA.SOLV.lig_0>
-32.3374

>  <SCORE.INTRA.VDW>
-0.205479

>  <SCORE.INTRA.VDW.0>
-0.659551

>  <SCORE.INTRA.norm>
-0.131838

>  <SCORE.RESTR>
0

>  <SCORE.RESTR.CAVITY>
0

>  <SCORE.RESTR.norm>
0

>  <SCORE.SYSTEM>
0

>  <SCORE.SYSTEM.CONST>
0

>  <SCORE.SYSTEM.DIHEDRAL>
0

>  <SCORE.SYSTEM.SOLV>
0

>  <SCORE.SYSTEM.norm>
0

>  <SCORE.heavy>
10

>  <SCORE.norm>
-0.980285

>  <RMSD>
5.491

$$$$
ligand
 OpenBabel11021811473D
libRbt.so/2013.1/901 2013/11/27
 10  9  0  0  0  0  0  0  0  0999 V2000
   27.1465   14.2064   18.6464 N   0  0  0  0  0  0  0  0  0  0  0  0
   27.7346   14.5678   19.9666 C   0  0  2  0  0  0  0  0  0  0  0  0
   26.6611   14.8550   21.0166 C   0  0  0  0  0  0  0  0  0  0  0  0
   26.9304   14.9451   22.2187 O   0  0  0  0  0  0  0  0  0  0  0  0
   28.7004   15.7475   19.8276 C   0  0  0  0  0  0  0  0  0  0  0  0
   29.5289   16.0278   21.0744 C   0  0  0  0  0  0  0  0  0  0  0  0
   30.4224   17.2522   20.8780 C   0  0  0  0  0  0  0  0  0  0  0  0
   31.2549   17.5506   22.1198 C   0  0  0  0  0  0  0  0  0  0  0  0
   32.2451   16.4759   22.4229 N   0  0  0  0  0  0  0  0  0  0  0  0
   25.4912   15.0291   20.6818 O   0  0  0  0  0  0  0  0  0  0  0  0
  2  1  1  6  0  0  0
  2  3  1  0  0  0  0
  2  5  1  0  0  0  0
  3  4  1  0  0  0  0
  3 10  1  0  0  0  0
  5  6  1  0  0  0  0
  6  7  1  0  0  0  0
  7  8  1  0  0  0  0
  8  9  1  0  0  0  0
M  END
>  <CHROM.1>
167.29612344,-169.84021886,-177.58624964,179.75779866,65.22639772,28.57824989
15.66626749,20.90586900,-2.77196226,0.36693292,1.34177894

>  <Name>
ligand

>  <RI>
0

>  <Rbt.Current_Directory>
/home/itssahil/PROJECTS/Mol_Feturizer/New_Systems/rnas/3DJ2

>  <Rbt.Executable>
rbdock ($Id: //depot/dev/client3/rdock/2013.1/src/exe/rbdock.cxx#4 $)

>  <Rbt.Library>
libRbt.so (2013.1, Build901 2013/11/27)

>  <Rbt.Parameter_File>
/export/apps/rDock/src/rDock_2013.1_src/data/scripts/dock_solv.prm

>  <Rbt.Receptor>
prm/pocket_docking_4.prm

>  <SCORE>
-9.4038

>  <SCORE.INTER>
-8.07358

>  <SCORE.INTER.CONST>
1

>  <SCORE.INTER.POLAR>
0

>  <SCORE.INTER.ROT>
5

>  <SCORE.INTER.SOLV>
16.6851

>  <SCORE.INTER.VDW>
-17.8774

>  <SCORE.INTER.norm>
-0.807358

>  <SCORE.INTRA>
-1.33022

>  <SCORE.INTRA.DIHEDRAL>
-2.29365

>  <SCORE.INTRA.DIHEDRAL.0>
4.28128

>  <SCORE.INTRA.POLAR>
0

>  <SCORE.INTRA.POLAR.0>
0

>  <SCORE.INTRA.REPUL>
0

>  <SCORE.INTRA.REPUL.0>
0

>  <SCORE.INTRA.SOLV>
-0.446852

>  <SCORE.INTRA.SOLV.lig_0>
-32.3374

>  <SCORE.INTRA.VDW>
0.0400338

>  <SCORE.INTRA.VDW.0>
-0.659551

>  <SCORE.INTRA.norm>
-0.133022

>  <SCORE.RESTR>
0

>  <SCORE.RESTR.CAVITY>
0

>  <SCORE.RESTR.norm>
0

>  <SCORE.SYSTEM>
0

>  <SCORE.SYSTEM.CONST>
0

>  <SCORE.SYSTEM.DIHEDRAL>
0

>  <SCORE.SYSTEM.SOLV>
0

>  <SCORE.SYSTEM.norm>
0

>  <SCORE.heavy>
10

>  <SCORE.norm>
-0.94038

>  <RMSD>
5.492

$$$$
ligand
 OpenBabel11021811473D
libRbt.so/2013.1/901 2013/11/27
 10  9  0  0  0  0  0  0  0  0999 V2000
   28.8096   16.2787   19.5565 N   0  0  0  0  0  0  0  0  0  0  0  0
   28.4301   14.9752   20.1700 C   0  0  2  0  0  0  0  0  0  0  0  0
   27.0275   14.5298   19.7559 C   0  0  0  0  0  0  0  0  0  0  0  0
   26.0173   14.9087   20.3574 O   0  0  0  0  0  0  0  0  0  0  0  0
   28.5640   15.0315   21.6940 C   0  0  0  0  0  0  0  0  0  0  0  0
   29.9997   15.1301   22.1925 C   0  0  0  0  0  0  0  0  0  0  0  0
   30.6001   16.4993   21.8745 C   0  0  0  0  0  0  0  0  0  0  0  0
   32.0631   16.5873   22.2943 C   0  0  0  0  0  0  0  0  0  0  0  0
   32.6556   17.9339   22.0435 N   0  0  0  0  0  0  0  0  0  0  0  0
   26.8677   13.7923   18.7856 O   0  0  0  0  0  0  0  0  0  0  0  0
  2  1  1  6  0  0  0
  2  3  1  0  0  0  0
  2  5  1  0  0  0  0
  3  4  1  0  0  0  0
  3 10  1  0  0  0  0
  5  6  1  0  0  0  0
  6  7  1  0  0  0  0
  7  8  1  0  0  0  0
  8  9  1  0  0  0  0
M  END
>  <CHROM.1>
-85.69884930,-68.81213696,70.22512413,-176.68772740,-177.69857200,29.06306449
15.55126878,20.85702280,-2.90905817,0.57004403,1.93839793

>  <Name>
ligand

>  <RI>
0

>  <Rbt.Current_Directory>
/home/itssahil/PROJECTS/Mol_Feturizer/New_Systems/rnas/3DJ2

>  <Rbt.Executable>
rbdock ($Id: //depot/dev/client3/rdock/2013.1/src/exe/rbdock.cxx#4 $)

>  <Rbt.Library>
libRbt.so (2013.1, Build901 2013/11/27)

>  <Rbt.Parameter_File>
/export/apps/rDock/src/rDock_2013.1_src/data/scripts/dock_solv.prm

>  <Rbt.Receptor>
prm/blind_docking_100.prm

>  <SCORE>
-9.00207

>  <SCORE.INTER>
-8.8518

>  <SCORE.INTER.CONST>
1

>  <SCORE.INTER.POLAR>
0

>  <SCORE.INTER.ROT>
5

>  <SCORE.INTER.SOLV>
12.4515

>  <SCORE.INTER.VDW>
-16.985

>  <SCORE.INTER.norm>
-0.88518

>  <SCORE.INTRA>
-0.150267

>  <SCORE.INTRA.DIHEDRAL>
-1.99018

>  <SCORE.INTRA.DIHEDRAL.0>
4.28128

>  <SCORE.INTRA.POLAR>
0

>  <SCORE.INTRA.POLAR.0>
0

>  <SCORE.INTRA.REPUL>
0

>  <SCORE.INTRA.REPUL.0>
0

>  <SCORE.INTRA.SOLV>
0.90525

>  <SCORE.INTRA.SOLV.lig_0>
-32.3374

>  <SCORE.INTRA.VDW>
0.392197

>  <SCORE.INTRA.VDW.0>
-0.659551

>  <SCORE.INTRA.norm>
-0.0150267

>  <SCORE.RESTR>
0

>  <SCORE.RESTR.CAVITY>
0

>  <SCORE.RESTR.norm>
0

>  <SCORE.SYSTEM>
0

>  <SCORE.SYSTEM.CONST>
0

>  <SCORE.SYSTEM.DIHEDRAL>
0

>  <SCORE.SYSTEM.SOLV>
0

>  <SCORE.SYSTEM.norm>
0

>  <SCORE.heavy>
10

>  <SCORE.norm>
-0.900207

>  <RMSD>
5.493

$$$$
ligand
 OpenBabel11021811473D
libRbt.so/2013.1/901 2013/11/27
 10  9  0  0  0  0  0  0  0  0999 V2000
   25.7254   15.0968   20.5299 N   0  0  0  0  0  0  0  0  0  0  0  0
   27.0738   15.5964   20.1406 C   0  0  2  0  0  0  0  0  0  0  0  0
   27.5596   14.9812   18.8280 C   0  0  0  0  0  0  0  0  0  0  0  0
   27.2739   13.8242   18.5034 O   0  0  0  0  0  0  0  0  0  0  0  0
   28.0856   15.3657   21.2661 C   0  0  0  0  0  0  0  0  0  0  0  0
   29.4268   16.0548   21.0524 C   0  0  0  0  0  0  0  0  0  0  0  0
   30.3631   15.8166   22.2368 C   0  0  0  0  0  0  0  0  0  0  0  0
   31.6612   16.6043   22.0997 C   0  0  0  0  0  0  0  0  0  0  0  0
   32.4394   16.2274   20.8833 N   0  0  0  0  0  0  0  0  0  0  0  0
   28.2362   15.6412   18.0420 O   0  0  0  0  0  0  0  0  0  0  0  0
  2  1  1  1  0  0  0
  2  3  1  0  0  0  0
  2  5  1  0  0  0  0
  3  4  1  0  0  0  0
  3 10  1  0  0  0  0
  5  6  1  0  0  0  0
  6  7  1  0  0  0  0
  7  8  1  0  0  0  0
  8  9  1  0  0  0  0
M  END
>  <CHROM.1>
-33.65127105,-170.09450251,178.08834425,-174.71538499,-60.89317040,28.78536725
15.50595874,20.32322428,2.61397211,-0.19661409,-1.77300963

>  <Name>
ligand

>  <RI>
0

>  <Rbt.Current_Directory>
/home/itssahil/PROJECTS/Mol_Feturizer/New_Systems/rnas/3DJ2

>  <Rbt.Executable>
rbdock ($Id: //depot/dev/client3/rdock/2013.1/src/exe/rbdock.cxx#4 $)

>  <Rbt.Library>
libRbt.so (2013.1, Build901 2013/11/27)

>  <Rbt.Parameter_File>
/export/apps/rDock/src/rDock_2013.1_src/data/scripts/dock_solv.prm

>  <Rbt.Receptor>
prm/pocket_docking_4.prm

>  <SCORE>
-9.82151

>  <SCORE.INTER>
-8.37782

>  <SCORE.INTER.CONST>
1

>  <SCORE.INTER.POLAR>
0

>  <SCORE.INTER.ROT>
5

>  <SCORE.INTER.SOLV>
17.9905

>  <SCORE.INTER.VDW>
-18.5154

>  <SCORE.INTER.norm>
-0.837782

>  <SCORE.INTRA>
-1.44368

>  <SCORE.INTRA.DIHEDRAL>
-2.225

>  <SCORE.INTRA.DIHEDRAL.0>
4.28128

>  <SCORE.INTRA.POLAR>
0

>  <SCORE.INTRA.POLAR.0>
0

>  <SCORE.INTRA.REPUL>
0

>  <SCORE.INTRA.REPUL.0>
0

>  <SCORE.INTRA.SOLV>
-0.420412

>  <SCORE.INTRA.SOLV.lig_0>
-32.3374

>  <SCORE.INTRA.VDW>
-0.120979

>  <SCORE.INTRA.VDW.0>
-0.659551

>  <SCORE.INTRA.norm>
-0.144368

>  <SCORE.RESTR>
0

>  <SCORE.RESTR.CAVITY>
0

>  <SCORE.RESTR.norm>
0

>  <SCORE.SYSTEM>
0

>  <SCORE.SYSTEM.CONST>
0

>  <SCORE.SYSTEM.DIHEDRAL>
0

>  <SCORE.SYSTEM.SOLV>
0

>  <SCORE.SYSTEM.norm>
0

>  <SCORE.heavy>
10

>  <SCORE.norm>
-0.982151

>  <RMSD>
5.493

$$$$
ligand
 OpenBabel11021811473D
libRbt.so/2013.1/901 2013/11/27
 10  9  0  0  0  0  0  0  0  0999 V2000
   25.6684   15.0258   20.6405 N   0  0  0  0  0  0  0  0  0  0  0  0
   26.9875   15.6055   20.2620 C   0  0  2  0  0  0  0  0  0  0  0  0
   27.4808   15.0836   18.9124 C   0  0  0  0  0  0  0  0  0  0  0  0
   27.1692   13.9650   18.4909 O   0  0  0  0  0  0  0  0  0  0  0  0
   28.0249   15.3611   21.3610 C   0  0  0  0  0  0  0  0  0  0  0  0
   29.3434   16.0937   21.1506 C   0  0  0  0  0  0  0  0  0  0  0  0
   30.3438   15.7552   22.2555 C   0  0  0  0  0  0  0  0  0  0  0  0
   31.6355   16.5525   22.1135 C   0  0  0  0  0  0  0  0  0  0  0  0
   32.3551   16.2636   20.8384 N   0  0  0  0  0  0  0  0  0  0  0  0
   28.1901   15.7843   18.1935 O   0  0  0  0  0  0  0  0  0  0  0  0
  2  1  1  1  0  0  0
  2  3  1  0  0  0  0
  2  5  1  0  0  0  0
  3  4  1  0  0  0  0
  3 10  1  0  0  0  0
  5  6  1  0  0  0  0
  6  7  1  0  0  0  0
  7  8  1  0  0  0  0
  8  9  1  0  0  0  0
M  END
>  <CHROM.1>
-28.83711774,-171.50784849,-177.68247006,-176.10979572,-61.93458990,28.72078373
15.53637891,20.38632040,2.64747340,-0.21472733,-1.71688166

>  <Name>
ligand

>  <RI>
0

>  <Rbt.Current_Directory>
/home/itssahil/PROJECTS/Mol_Feturizer/New_Systems/rnas/3DJ2

>  <Rbt.Executable>
rbdock ($Id: //depot/dev/client3/rdock/2013.1/src/exe/rbdock.cxx#4 $)

>  <Rbt.Library>
libRbt.so (2013.1, Build901 2013/11/27)

>  <Rbt.Parameter_File>
/export/apps/rDock/src/rDock_2013.1_src/data/scripts/dock_solv.prm

>  <Rbt.Receptor>
prm/pocket_docking_5.prm

>  <SCORE>
-9.81097

>  <SCORE.INTER>
-8.34117

>  <SCORE.INTER.CONST>
1

>  <SCORE.INTER.POLAR>
0

>  <SCORE.INTER.ROT>
5

>  <SCORE.INTER.SOLV>
18.1385

>  <SCORE.INTER.VDW>
-18.5403

>  <SCORE.INTER.norm>
-0.834117

>  <SCORE.INTRA>
-1.4698

>  <SCORE.INTRA.DIHEDRAL>
-2.35268

>  <SCORE.INTRA.DIHEDRAL.0>
4.28128

>  <SCORE.INTRA.POLAR>
0

>  <SCORE.INTRA.POLAR.0>
0

>  <SCORE.INTRA.REPUL>
0

>  <SCORE.INTRA.REPUL.0>
0

>  <SCORE.INTRA.SOLV>
-0.42904

>  <SCORE.INTRA.SOLV.lig_0>
-32.3374

>  <SCORE.INTRA.VDW>
-0.0789438

>  <SCORE.INTRA.VDW.0>
-0.659551

>  <SCORE.INTRA.norm>
-0.14698

>  <SCORE.RESTR>
0

>  <SCORE.RESTR.CAVITY>
0

>  <SCORE.RESTR.norm>
0

>  <SCORE.SYSTEM>
0

>  <SCORE.SYSTEM.CONST>
0

>  <SCORE.SYSTEM.DIHEDRAL>
0

>  <SCORE.SYSTEM.SOLV>
0

>  <SCORE.SYSTEM.norm>
0

>  <SCORE.heavy>
10

>  <SCORE.norm>
-0.981097

>  <RMSD>
5.494

$$$$
ligand
 OpenBabel11021811473D
libRbt.so/2013.1/901 2013/11/27
 10  9  0  0  0  0  0  0  0  0999 V2000
   25.7371   15.0899   20.5439 N   0  0  0  0  0  0  0  0  0  0  0  0
   27.0835   15.5882   20.1463 C   0  0  2  0  0  0  0  0  0  0  0  0
   27.5574   14.9784   18.8269 C   0  0  0  0  0  0  0  0  0  0  0  0
   27.2686   13.8227   18.5002 O   0  0  0  0  0  0  0  0  0  0  0  0
   28.1036   15.3497   21.2626 C   0  0  0  0  0  0  0  0  0  0  0  0
   29.4329   16.0643   21.0583 C   0  0  0  0  0  0  0  0  0  0  0  0
   30.3864   15.7970   22.2226 C   0  0  0  0  0  0  0  0  0  0  0  0
   31.6886   16.5766   22.0784 C   0  0  0  0  0  0  0  0  0  0  0  0
   32.4511   16.2047   20.8505 N   0  0  0  0  0  0  0  0  0  0  0  0
   28.2269   15.6415   18.0376 O   0  0  0  0  0  0  0  0  0  0  0  0
  2  1  1  1  0  0  0
  2  3  1  0  0  0  0
  2  5  1  0  0  0  0
  3  4  1  0  0  0  0
  3 10  1  0  0  0  0
  5  6  1  0  0  0  0
  6  7  1  0  0  0  0
  7  8  1  0  0  0  0
  8  9  1  0  0  0  0
M  END
>  <CHROM.1>
-33.79967798,-168.68017560,179.02483693,-176.33495660,-61.52965770,28.79414228
15.49652190,20.31766194,2.62024194,-0.19596639,-1.76820048

>  <Name>
ligand

>  <RI>
0

>  <Rbt.Current_Directory>
/home/itssahil/PROJECTS/Mol_Feturizer/New_Systems/rnas/3DJ2

>  <Rbt.Executable>
rbdock ($Id: //depot/dev/client3/rdock/2013.1/src/exe/rbdock.cxx#4 $)

>  <Rbt.Library>
libRbt.so (2013.1, Build901 2013/11/27)

>  <Rbt.Parameter_File>
/export/apps/rDock/src/rDock_2013.1_src/data/scripts/dock_solv.prm

>  <Rbt.Receptor>
prm/pocket_docking_7.prm

>  <SCORE>
-9.85422

>  <SCORE.INTER>
-8.40294

>  <SCORE.INTER.CONST>
1

>  <SCORE.INTER.POLAR>
0

>  <SCORE.INTER.ROT>
5

>  <SCORE.INTER.SOLV>
18.093

>  <SCORE.INTER.VDW>
-18.5663

>  <SCORE.INTER.norm>
-0.840294

>  <SCORE.INTRA>
-1.45128

>  <SCORE.INTRA.DIHEDRAL>
-2.18245

>  <SCORE.INTRA.DIHEDRAL.0>
4.28128

>  <SCORE.INTRA.POLAR>
0

>  <SCORE.INTRA.POLAR.0>
0

>  <SCORE.INTRA.REPUL>
0

>  <SCORE.INTRA.REPUL.0>
0

>  <SCORE.INTRA.SOLV>
-0.420318

>  <SCORE.INTRA.SOLV.lig_0>
-32.3374

>  <SCORE.INTRA.VDW>
-0.149895

>  <SCORE.INTRA.VDW.0>
-0.659551

>  <SCORE.INTRA.norm>
-0.145128

>  <SCORE.RESTR>
0

>  <SCORE.RESTR.CAVITY>
0

>  <SCORE.RESTR.norm>
0

>  <SCORE.SYSTEM>
0

>  <SCORE.SYSTEM.CONST>
0

>  <SCORE.SYSTEM.DIHEDRAL>
0

>  <SCORE.SYSTEM.SOLV>
0

>  <SCORE.SYSTEM.norm>
0

>  <SCORE.heavy>
10

>  <SCORE.norm>
-0.985422

>  <RMSD>
5.494

$$$$
ligand
 OpenBabel11021811473D
libRbt.so/2013.1/901 2013/11/27
 10  9  0  0  0  0  0  0  0  0999 V2000
   25.7025   15.0122   20.6042 N   0  0  0  0  0  0  0  0  0  0  0  0
   27.0272   15.5802   20.2276 C   0  0  2  0  0  0  0  0  0  0  0  0
   27.5131   15.0616   18.8740 C   0  0  0  0  0  0  0  0  0  0  0  0
   27.2122   13.9379   18.4585 O   0  0  0  0  0  0  0  0  0  0  0  0
   28.0634   15.3177   21.3236 C   0  0  0  0  0  0  0  0  0  0  0  0
   29.3784   16.0616   21.1321 C   0  0  0  0  0  0  0  0  0  0  0  0
   30.3712   15.7196   22.2428 C   0  0  0  0  0  0  0  0  0  0  0  0
   31.6530   16.5372   22.1280 C   0  0  0  0  0  0  0  0  0  0  0  0
   32.4146   16.2443   20.8784 N   0  0  0  0  0  0  0  0  0  0  0  0
   28.2052   15.7701   18.1460 O   0  0  0  0  0  0  0  0  0  0  0  0
  2  1  1  1  0  0  0
  2  3  1  0  0  0  0
  2  5  1  0  0  0  0
  3  4  1  0  0  0  0
  3 10  1  0  0  0  0
  5  6  1  0  0  0  0
  6  7  1  0  0  0  0
  7  8  1  0  0  0  0
  8  9  1  0  0  0  0
M  END
>  <CHROM.1>
-30.40430604,-170.22863865,-178.47157293,-175.55712315,-63.90325864,28.75481717
15.51169210,20.36578444,2.63805094,-0.21452048,-1.71219641

>  <Name>
ligand

>  <RI>
0

>  <Rbt.Current_Directory>
/home/itssahil/PROJECTS/Mol_Feturizer/New_Systems/rnas/3DJ2

>  <Rbt.Executable>
rbdock ($Id: //depot/dev/client3/rdock/2013.1/src/exe/rbdock.cxx#4 $)

>  <Rbt.Library>
libRbt.so (2013.1, Build901 2013/11/27)

>  <Rbt.Parameter_File>
/export/apps/rDock/src/rDock_2013.1_src/data/scripts/dock_solv.prm

>  <Rbt.Receptor>
prm/pocket_docking_8.prm

>  <SCORE>
-9.8402

>  <SCORE.INTER>
-8.372

>  <SCORE.INTER.CONST>
1

>  <SCORE.INTER.POLAR>
0

>  <SCORE.INTER.ROT>
5

>  <SCORE.INTER.SOLV>
18.1457

>  <SCORE.INTER.VDW>
-18.5632

>  <SCORE.INTER.norm>
-0.8372

>  <SCORE.INTRA>
-1.4682

>  <SCORE.INTRA.DIHEDRAL>
-2.21815

>  <SCORE.INTRA.DIHEDRAL.0>
4.28128

>  <SCORE.INTRA.POLAR>
0

>  <SCORE.INTRA.POLAR.0>
0

>  <SCORE.INTRA.REPUL>
0

>  <SCORE.INTRA.REPUL.0>
0

>  <SCORE.INTRA.SOLV>
-0.45799

>  <SCORE.INTRA.SOLV.lig_0>
-32.3374

>  <SCORE.INTRA.VDW>
-0.13013

>  <SCORE.INTRA.VDW.0>
-0.659551

>  <SCORE.INTRA.norm>
-0.14682

>  <SCORE.RESTR>
0

>  <SCORE.RESTR.CAVITY>
0

>  <SCORE.RESTR.norm>
0

>  <SCORE.SYSTEM>
0

>  <SCORE.SYSTEM.CONST>
0

>  <SCORE.SYSTEM.DIHEDRAL>
0

>  <SCORE.SYSTEM.SOLV>
0

>  <SCORE.SYSTEM.norm>
0

>  <SCORE.heavy>
10

>  <SCORE.norm>
-0.98402

>  <RMSD>
5.494

$$$$
ligand
 OpenBabel11021811473D
libRbt.so/2013.1/901 2013/11/27
 10  9  0  0  0  0  0  0  0  0999 V2000
   25.7629   15.0308   20.5629 N   0  0  0  0  0  0  0  0  0  0  0  0
   27.0895   15.5685   20.1505 C   0  0  2  0  0  0  0  0  0  0  0  0
   27.5607   14.9824   18.8195 C   0  0  0  0  0  0  0  0  0  0  0  0
   27.2639   13.8357   18.4688 O   0  0  0  0  0  0  0  0  0  0  0  0
   28.1317   15.3487   21.2502 C   0  0  0  0  0  0  0  0  0  0  0  0
   29.4207   16.1364   21.0568 C   0  0  0  0  0  0  0  0  0  0  0  0
   30.4142   15.8517   22.1829 C   0  0  0  0  0  0  0  0  0  0  0  0
   31.6979   16.6584   22.0228 C   0  0  0  0  0  0  0  0  0  0  0  0
   32.4444   16.3142   20.7772 N   0  0  0  0  0  0  0  0  0  0  0  0
   28.2361   15.6565   18.0447 O   0  0  0  0  0  0  0  0  0  0  0  0
  2  1  1  1  0  0  0
  2  3  1  0  0  0  0
  2  5  1  0  0  0  0
  3  4  1  0  0  0  0
  3 10  1  0  0  0  0
  5  6  1  0  0  0  0
  6  7  1  0  0  0  0
  7  8  1  0  0  0  0
  8  9  1  0  0  0  0
M  END
>  <CHROM.1>
-31.53116341,-166.77084678,-179.32196667,-178.62017135,-62.86257829,28.80265584
15.52388407,20.29842163,2.62859777,-0.22313301,-1.76265562

>  <Name>
ligand

>  <RI>
0

>  <Rbt.Current_Directory>
/home/itssahil/PROJECTS/Mol_Feturizer/New_Systems/rnas/3DJ2

>  <Rbt.Executable>
rbdock ($Id: //depot/dev/client3/rdock/2013.1/src/exe/rbdock.cxx#4 $)

>  <Rbt.Library>
libRbt.so (2013.1, Build901 2013/11/27)

>  <Rbt.Parameter_File>
/export/apps/rDock/src/rDock_2013.1_src/data/scripts/dock_solv.prm

>  <Rbt.Receptor>
prm/pocket_docking_4.prm

>  <SCORE>
-9.88174

>  <SCORE.INTER>
-8.46969

>  <SCORE.INTER.CONST>
1

>  <SCORE.INTER.POLAR>
0

>  <SCORE.INTER.ROT>
5

>  <SCORE.INTER.SOLV>
17.9522

>  <SCORE.INTER.VDW>
-18.5639

>  <SCORE.INTER.norm>
-0.846969

>  <SCORE.INTRA>
-1.41205

>  <SCORE.INTRA.DIHEDRAL>
-2.04234

>  <SCORE.INTRA.DIHEDRAL.0>
4.28128

>  <SCORE.INTRA.POLAR>
0

>  <SCORE.INTRA.POLAR.0>
0

>  <SCORE.INTRA.REPUL>
0

>  <SCORE.INTRA.REPUL.0>
0

>  <SCORE.INTRA.SOLV>
-0.424251

>  <SCORE.INTRA.SOLV.lig_0>
-32.3374

>  <SCORE.INTRA.VDW>
-0.178751

>  <SCORE.INTRA.VDW.0>
-0.659551

>  <SCORE.INTRA.norm>
-0.141205

>  <SCORE.RESTR>
0

>  <SCORE.RESTR.CAVITY>
0

>  <SCORE.RESTR.norm>
0

>  <SCORE.SYSTEM>
0

>  <SCORE.SYSTEM.CONST>
0

>  <SCORE.SYSTEM.DIHEDRAL>
0

>  <SCORE.SYSTEM.SOLV>
0

>  <SCORE.SYSTEM.norm>
0

>  <SCORE.heavy>
10

>  <SCORE.norm>
-0.988174

>  <RMSD>
5.495

$$$$
ligand
 OpenBabel11021811473D
libRbt.so/2013.1/901 2013/11/27
 10  9  0  0  0  0  0  0  0  0999 V2000
   25.6920   15.0441   20.6077 N   0  0  0  0  0  0  0  0  0  0  0  0
   27.0203   15.5971   20.2217 C   0  0  2  0  0  0  0  0  0  0  0  0
   27.5047   15.0492   18.8791 C   0  0  0  0  0  0  0  0  0  0  0  0
   28.1739   15.7328   18.0976 O   0  0  0  0  0  0  0  0  0  0  0  0
   28.0538   15.3502   21.3239 C   0  0  0  0  0  0  0  0  0  0  0  0
   29.3707   16.0884   21.1232 C   0  0  0  0  0  0  0  0  0  0  0  0
   30.3478   15.7902   22.2600 C   0  0  0  0  0  0  0  0  0  0  0  0
   31.6362   16.5940   22.1247 C   0  0  0  0  0  0  0  0  0  0  0  0
   32.4076   16.2455   20.8955 N   0  0  0  0  0  0  0  0  0  0  0  0
   27.2563   13.8909   18.5513 O   0  0  0  0  0  0  0  0  0  0  0  0
  2  1  1  1  0  0  0
  2  3  1  0  0  0  0
  2  5  1  0  0  0  0
  3  4  1  0  0  0  0
  3 10  1  0  0  0  0
  5  6  1  0  0  0  0
  6  7  1  0  0  0  0
  7  8  1  0  0  0  0
  8  9  1  0  0  0  0
M  END
>  <CHROM.1>
146.17088194,-169.92858059,-179.91553908,-176.15744908,-63.63028032,28.74746280
15.52446945,20.37327482,2.63224831,-0.21087538,-1.73584182

>  <Name>
ligand

>  <RI>
0

>  <Rbt.Current_Directory>
/home/itssahil/PROJECTS/Mol_Feturizer/New_Systems/rnas/3DJ2

>  <Rbt.Executable>
rbdock ($Id: //depot/dev/client3/rdock/2013.1/src/exe/rbdock.cxx#4 $)

>  <Rbt.Library>
libRbt.so (2013.1, Build901 2013/11/27)

>  <Rbt.Parameter_File>
/export/apps/rDock/src/rDock_2013.1_src/data/scripts/dock_solv.prm

>  <Rbt.Receptor>
prm/pocket_docking_4.prm

>  <SCORE>
-9.90275

>  <SCORE.INTER>
-8.37171

>  <SCORE.INTER.CONST>
1

>  <SCORE.INTER.POLAR>
0

>  <SCORE.INTER.ROT>
5

>  <SCORE.INTER.SOLV>
18.0911

>  <SCORE.INTER.VDW>
-18.5448

>  <SCORE.INTER.norm>
-0.837171

>  <SCORE.INTRA>
-1.53104

>  <SCORE.INTRA.DIHEDRAL>
-2.32998

>  <SCORE.INTRA.DIHEDRAL.0>
4.28128

>  <SCORE.INTRA.POLAR>
0

>  <SCORE.INTRA.POLAR.0>
0

>  <SCORE.INTRA.REPUL>
0

>  <SCORE.INTRA.REPUL.0>
0

>  <SCORE.INTRA.SOLV>
-0.452656

>  <SCORE.INTRA.SOLV.lig_0>
-32.3374

>  <SCORE.INTRA.VDW>
-0.139719

>  <SCORE.INTRA.VDW.0>
-0.659551

>  <SCORE.INTRA.norm>
-0.153104

>  <SCORE.RESTR>
0

>  <SCORE.RESTR.CAVITY>
0

>  <SCORE.RESTR.norm>
0

>  <SCORE.SYSTEM>
0

>  <SCORE.SYSTEM.CONST>
0

>  <SCORE.SYSTEM.DIHEDRAL>
0

>  <SCORE.SYSTEM.SOLV>
0

>  <SCORE.SYSTEM.norm>
0

>  <SCORE.heavy>
10

>  <SCORE.norm>
-0.990275

>  <RMSD>
5.496

$$$$
ligand
 OpenBabel11021811473D
libRbt.so/2013.1/901 2013/11/27
 10  9  0  0  0  0  0  0  0  0999 V2000
   26.1379   15.4238   20.2496 N   0  0  0  0  0  0  0  0  0  0  0  0
   27.5431   15.2848   19.7749 C   0  0  2  0  0  0  0  0  0  0  0  0
   27.6168   14.8176   18.3211 C   0  0  0  0  0  0  0  0  0  0  0  0
   27.0573   13.7853   17.9373 O   0  0  0  0  0  0  0  0  0  0  0  0
   28.3389   14.3551   20.6946 C   0  0  0  0  0  0  0  0  0  0  0  0
   28.5540   14.9000   22.1004 C   0  0  0  0  0  0  0  0  0  0  0  0
   29.5219   16.0829   22.0902 C   0  0  0  0  0  0  0  0  0  0  0  0
   30.9394   15.6516   21.7312 C   0  0  0  0  0  0  0  0  0  0  0  0
   31.8923   16.7983   21.6645 N   0  0  0  0  0  0  0  0  0  0  0  0
   28.2237   15.4803   17.4824 O   0  0  0  0  0  0  0  0  0  0  0  0
  2  1  1  1  0  0  0
  2  3  1  0  0  0  0
  2  5  1  0  0  0  0
  3  4  1  0  0  0  0
  3 10  1  0  0  0  0
  5  6  1  0  0  0  0
  6  7  1  0  0  0  0
  7  8  1  0  0  0  0
  8  9  1  0  0  0  0
M  END
>  <CHROM.1>
-55.09620927,-66.46130786,-69.86798364,-68.24248646,177.82627789,28.57729127
15.24635441,20.16462662,2.37097008,-0.33655078,-1.61553915

>  <Name>
ligand

>  <RI>
0

>  <Rbt.Current_Directory>
/home/itssahil/PROJECTS/Mol_Feturizer/New_Systems/rnas/3DJ2

>  <Rbt.Executable>
rbdock ($Id: //depot/dev/client3/rdock/2013.1/src/exe/rbdock.cxx#4 $)

>  <Rbt.Library>
libRbt.so (2013.1, Build901 2013/11/27)

>  <Rbt.Parameter_File>
/export/apps/rDock/src/rDock_2013.1_src/data/scripts/dock_solv.prm

>  <Rbt.Receptor>
prm/pocket_docking_6.prm

>  <SCORE>
-9.74428

>  <SCORE.INTER>
-9.32432

>  <SCORE.INTER.CONST>
1

>  <SCORE.INTER.POLAR>
0

>  <SCORE.INTER.ROT>
5

>  <SCORE.INTER.SOLV>
15.7103

>  <SCORE.INTER.VDW>
-18.3863

>  <SCORE.INTER.norm>
-0.932432

>  <SCORE.INTRA>
-0.419954

>  <SCORE.INTRA.DIHEDRAL>
-1.872

>  <SCORE.INTRA.DIHEDRAL.0>
4.28128

>  <SCORE.INTRA.POLAR>
0

>  <SCORE.INTRA.POLAR.0>
0

>  <SCORE.INTRA.REPUL>
0

>  <SCORE.INTRA.REPUL.0>
0

>  <SCORE.INTRA.SOLV>
0.148988

>  <SCORE.INTRA.SOLV.lig_0>
-32.3374

>  <SCORE.INTRA.VDW>
0.441553

>  <SCORE.INTRA.VDW.0>
-0.659551

>  <SCORE.INTRA.norm>
-0.0419954

>  <SCORE.RESTR>
0

>  <SCORE.RESTR.CAVITY>
0

>  <SCORE.RESTR.norm>
0

>  <SCORE.SYSTEM>
0

>  <SCORE.SYSTEM.CONST>
0

>  <SCORE.SYSTEM.DIHEDRAL>
0

>  <SCORE.SYSTEM.SOLV>
0

>  <SCORE.SYSTEM.norm>
0

>  <SCORE.heavy>
10

>  <SCORE.norm>
-0.974428

>  <RMSD>
5.497

$$$$
ligand
 OpenBabel11021811473D
libRbt.so/2013.1/901 2013/11/27
 10  9  0  0  0  0  0  0  0  0999 V2000
   25.7894   15.1043   20.5870 N   0  0  0  0  0  0  0  0  0  0  0  0
   27.1274   15.5953   20.1535 C   0  0  2  0  0  0  0  0  0  0  0  0
   27.5604   14.9866   18.8197 C   0  0  0  0  0  0  0  0  0  0  0  0
   28.2139   15.6276   17.9903 O   0  0  0  0  0  0  0  0  0  0  0  0
   28.1767   15.3468   21.2403 C   0  0  0  0  0  0  0  0  0  0  0  0
   29.4698   16.1288   21.0516 C   0  0  0  0  0  0  0  0  0  0  0  0
   30.4604   15.8349   22.1779 C   0  0  0  0  0  0  0  0  0  0  0  0
   31.7284   16.6715   22.0494 C   0  0  0  0  0  0  0  0  0  0  0  0
   32.5136   16.3450   20.8230 N   0  0  0  0  0  0  0  0  0  0  0  0
   27.2849   13.8200   18.5471 O   0  0  0  0  0  0  0  0  0  0  0  0
  2  1  1  1  0  0  0
  2  3  1  0  0  0  0
  2  5  1  0  0  0  0
  3  4  1  0  0  0  0
  3 10  1  0  0  0  0
  5  6  1  0  0  0  0
  6  7  1  0  0  0  0
  7  8  1  0  0  0  0
  8  9  1  0  0  0  0
M  END
>  <CHROM.1>
144.77944003,-164.67679981,179.63421816,-176.64339170,-64.68115167,28.83246412
15.53068499,20.30900049,2.62829520,-0.21811556,-1.76401941

>  <Name>
ligand

>  <RI>
0

>  <Rbt.Current_Directory>
/home/itssahil/PROJECTS/Mol_Feturizer/New_Systems/rnas/3DJ2

>  <Rbt.Executable>
rbdock ($Id: //depot/dev/client3/rdock/2013.1/src/exe/rbdock.cxx#4 $)

>  <Rbt.Library>
libRbt.so (2013.1, Build901 2013/11/27)

>  <Rbt.Parameter_File>
/export/apps/rDock/src/rDock_2013.1_src/data/scripts/dock_solv.prm

>  <Rbt.Receptor>
prm/pocket_docking_5.prm

>  <SCORE>
-9.91016

>  <SCORE.INTER>
-8.54118

>  <SCORE.INTER.CONST>
1

>  <SCORE.INTER.POLAR>
0

>  <SCORE.INTER.ROT>
5

>  <SCORE.INTER.SOLV>
17.9119

>  <SCORE.INTER.VDW>
-18.5981

>  <SCORE.INTER.norm>
-0.854118

>  <SCORE.INTRA>
-1.36898

>  <SCORE.INTRA.DIHEDRAL>
-1.83807

>  <SCORE.INTRA.DIHEDRAL.0>
4.28128

>  <SCORE.INTRA.POLAR>
0

>  <SCORE.INTRA.POLAR.0>
0

>  <SCORE.INTRA.REPUL>
0

>  <SCORE.INTRA.REPUL.0>
0

>  <SCORE.INTRA.SOLV>
-0.457434

>  <SCORE.INTRA.SOLV.lig_0>
-32.3374

>  <SCORE.INTRA.VDW>
-0.221232

>  <SCORE.INTRA.VDW.0>
-0.659551

>  <SCORE.INTRA.norm>
-0.136898

>  <SCORE.RESTR>
0

>  <SCORE.RESTR.CAVITY>
0

>  <SCORE.RESTR.norm>
0

>  <SCORE.SYSTEM>
0

>  <SCORE.SYSTEM.CONST>
0

>  <SCORE.SYSTEM.DIHEDRAL>
0

>  <SCORE.SYSTEM.SOLV>
0

>  <SCORE.SYSTEM.norm>
0

>  <SCORE.heavy>
10

>  <SCORE.norm>
-0.991016

>  <RMSD>
5.498

$$$$
ligand
 OpenBabel11021811473D
libRbt.so/2013.1/901 2013/11/27
 10  9  0  0  0  0  0  0  0  0999 V2000
   25.7624   15.0093   20.5810 N   0  0  0  0  0  0  0  0  0  0  0  0
   27.0867   15.5493   20.1640 C   0  0  2  0  0  0  0  0  0  0  0  0
   27.5530   14.9660   18.8300 C   0  0  0  0  0  0  0  0  0  0  0  0
   28.2262   15.6229   18.0292 O   0  0  0  0  0  0  0  0  0  0  0  0
   28.1337   15.3289   21.2590 C   0  0  0  0  0  0  0  0  0  0  0  0
   29.4400   16.0791   21.0355 C   0  0  0  0  0  0  0  0  0  0  0  0
   30.4215   15.8288   22.1802 C   0  0  0  0  0  0  0  0  0  0  0  0
   31.6909   16.6596   22.0294 C   0  0  0  0  0  0  0  0  0  0  0  0
   32.4846   16.2870   20.8217 N   0  0  0  0  0  0  0  0  0  0  0  0
   27.2854   13.8047   18.5288 O   0  0  0  0  0  0  0  0  0  0  0  0
  2  1  1  1  0  0  0
  2  3  1  0  0  0  0
  2  5  1  0  0  0  0
  3  4  1  0  0  0  0
  3 10  1  0  0  0  0
  5  6  1  0  0  0  0
  6  7  1  0  0  0  0
  7  8  1  0  0  0  0
  8  9  1  0  0  0  0
M  END
>  <CHROM.1>
146.99809241,-168.86960578,178.97465892,-175.42864694,-64.59453423,28.80913925
15.49873223,20.31095547,2.63302012,-0.22291312,-1.76200816

>  <Name>
ligand

>  <RI>
0

>  <Rbt.Current_Directory>
/home/itssahil/PROJECTS/Mol_Feturizer/New_Systems/rnas/3DJ2

>  <Rbt.Executable>
rbdock ($Id: //depot/dev/client3/rdock/2013.1/src/exe/rbdock.cxx#4 $)

>  <Rbt.Library>
libRbt.so (2013.1, Build901 2013/11/27)

>  <Rbt.Parameter_File>
/export/apps/rDock/src/rDock_2013.1_src/data/scripts/dock_solv.prm

>  <Rbt.Receptor>
prm/pocket_docking_7.prm

>  <SCORE>
-9.92099

>  <SCORE.INTER>
-8.4335

>  <SCORE.INTER.CONST>
1

>  <SCORE.INTER.POLAR>
0

>  <SCORE.INTER.ROT>
5

>  <SCORE.INTER.SOLV>
18.0585

>  <SCORE.INTER.VDW>
-18.5752

>  <SCORE.INTER.norm>
-0.84335

>  <SCORE.INTRA>
-1.48749

>  <SCORE.INTRA.DIHEDRAL>
-2.18978

>  <SCORE.INTRA.DIHEDRAL.0>
4.28128

>  <SCORE.INTRA.POLAR>
0

>  <SCORE.INTRA.POLAR.0>
0

>  <SCORE.INTRA.REPUL>
0

>  <SCORE.INTRA.REPUL.0>
0

>  <SCORE.INTRA.SOLV>
-0.467551

>  <SCORE.INTRA.SOLV.lig_0>
-32.3374

>  <SCORE.INTRA.VDW>
-0.158825

>  <SCORE.INTRA.VDW.0>
-0.659551

>  <SCORE.INTRA.norm>
-0.148749

>  <SCORE.RESTR>
0

>  <SCORE.RESTR.CAVITY>
0

>  <SCORE.RESTR.norm>
0

>  <SCORE.SYSTEM>
0

>  <SCORE.SYSTEM.CONST>
0

>  <SCORE.SYSTEM.DIHEDRAL>
0

>  <SCORE.SYSTEM.SOLV>
0

>  <SCORE.SYSTEM.norm>
0

>  <SCORE.heavy>
10

>  <SCORE.norm>
-0.992099

>  <RMSD>
5.498

$$$$
ligand
 OpenBabel11021811473D
libRbt.so/2013.1/901 2013/11/27
 10  9  0  0  0  0  0  0  0  0999 V2000
   25.7564   15.0223   20.5575 N   0  0  0  0  0  0  0  0  0  0  0  0
   27.0850   15.5543   20.1436 C   0  0  2  0  0  0  0  0  0  0  0  0
   27.5585   14.9553   18.8192 C   0  0  0  0  0  0  0  0  0  0  0  0
   27.2623   13.8053   18.4790 O   0  0  0  0  0  0  0  0  0  0  0  0
   28.1240   15.3429   21.2479 C   0  0  0  0  0  0  0  0  0  0  0  0
   29.4208   16.1146   21.0425 C   0  0  0  0  0  0  0  0  0  0  0  0
   30.4153   15.8294   22.1675 C   0  0  0  0  0  0  0  0  0  0  0  0
   31.6880   16.6561   22.0214 C   0  0  0  0  0  0  0  0  0  0  0  0
   32.4642   16.3090   20.7948 N   0  0  0  0  0  0  0  0  0  0  0  0
   28.2355   15.6219   18.0392 O   0  0  0  0  0  0  0  0  0  0  0  0
  2  1  1  1  0  0  0
  2  3  1  0  0  0  0
  2  5  1  0  0  0  0
  3  4  1  0  0  0  0
  3 10  1  0  0  0  0
  5  6  1  0  0  0  0
  6  7  1  0  0  0  0
  7  8  1  0  0  0  0
  8  9  1  0  0  0  0
M  END
>  <CHROM.1>
-31.62430609,-167.42707053,-178.80231846,-176.66789778,-64.63792923,28.80149420
15.50633927,20.29618039,2.62848321,-0.22136361,-1.76985468

>  <Name>
ligand

>  <RI>
0

>  <Rbt.Current_Directory>
/home/itssahil/PROJECTS/Mol_Feturizer/New_Systems/rnas/3DJ2

>  <Rbt.Executable>
rbdock ($Id: //depot/dev/client3/rdock/2013.1/src/exe/rbdock.cxx#4 $)

>  <Rbt.Library>
libRbt.so (2013.1, Build901 2013/11/27)

>  <Rbt.Parameter_File>
/export/apps/rDock/src/rDock_2013.1_src/data/scripts/dock_solv.prm

>  <Rbt.Receptor>
prm/pocket_docking_4.prm

>  <SCORE>
-9.89617

>  <SCORE.INTER>
-8.4756

>  <SCORE.INTER.CONST>
1

>  <SCORE.INTER.POLAR>
0

>  <SCORE.INTER.ROT>
5

>  <SCORE.INTER.SOLV>
17.9839

>  <SCORE.INTER.VDW>
-18.5784

>  <SCORE.INTER.norm>
-0.84756

>  <SCORE.INTRA>
-1.42056

>  <SCORE.INTRA.DIHEDRAL>
-2.00979

>  <SCORE.INTRA.DIHEDRAL.0>
4.28128

>  <SCORE.INTRA.POLAR>
0

>  <SCORE.INTRA.POLAR.0>
0

>  <SCORE.INTRA.REPUL>
0

>  <SCORE.INTRA.REPUL.0>
0

>  <SCORE.INTRA.SOLV>
-0.459577

>  <SCORE.INTRA.SOLV.lig_0>
-32.3374

>  <SCORE.INTRA.VDW>
-0.185877

>  <SCORE.INTRA.VDW.0>
-0.659551

>  <SCORE.INTRA.norm>
-0.142056

>  <SCORE.RESTR>
0

>  <SCORE.RESTR.CAVITY>
0

>  <SCORE.RESTR.norm>
0

>  <SCORE.SYSTEM>
0

>  <SCORE.SYSTEM.CONST>
0

>  <SCORE.SYSTEM.DIHEDRAL>
0

>  <SCORE.SYSTEM.SOLV>
0

>  <SCORE.SYSTEM.norm>
0

>  <SCORE.heavy>
10

>  <SCORE.norm>
-0.989617

>  <RMSD>
5.501

$$$$
ligand
 OpenBabel11021811473D
libRbt.so/2013.1/901 2013/11/27
 10  9  0  0  0  0  0  0  0  0999 V2000
   27.0944   14.1449   18.7468 N   0  0  0  0  0  0  0  0  0  0  0  0
   27.6943   14.5488   20.0492 C   0  0  2  0  0  0  0  0  0  0  0  0
   26.6303   14.8781   21.0965 C   0  0  0  0  0  0  0  0  0  0  0  0
   26.9167   15.0589   22.2845 O   0  0  0  0  0  0  0  0  0  0  0  0
   28.6652   15.7176   19.8622 C   0  0  0  0  0  0  0  0  0  0  0  0
   29.4802   16.0584   21.1027 C   0  0  0  0  0  0  0  0  0  0  0  0
   30.4299   17.2254   20.8341 C   0  0  0  0  0  0  0  0  0  0  0  0
   31.2738   17.5620   22.0585 C   0  0  0  0  0  0  0  0  0  0  0  0
   32.2233   16.4699   22.4232 N   0  0  0  0  0  0  0  0  0  0  0  0
   25.4506   14.9960   20.7722 O   0  0  0  0  0  0  0  0  0  0  0  0
  2  1  1  6  0  0  0
  2  3  1  0  0  0  0
  2  5  1  0  0  0  0
  3  4  1  0  0  0  0
  3 10  1  0  0  0  0
  5  6  1  0  0  0  0
  6  7  1  0  0  0  0
  7  8  1  0  0  0  0
  8  9  1  0  0  0  0
M  END
>  <CHROM.1>
170.11966489,-171.26323829,179.59994501,-178.87413822,65.87499312,28.55268691
15.66746577,20.94377677,-2.78262913,0.36021498,1.31213680

>  <Name>
ligand

>  <RI>
0

>  <Rbt.Current_Directory>
/home/itssahil/PROJECTS/Mol_Feturizer/New_Systems/rnas/3DJ2

>  <Rbt.Executable>
rbdock ($Id: //depot/dev/client3/rdock/2013.1/src/exe/rbdock.cxx#4 $)

>  <Rbt.Library>
libRbt.so (2013.1, Build901 2013/11/27)

>  <Rbt.Parameter_File>
/export/apps/rDock/src/rDock_2013.1_src/data/scripts/dock_solv.prm

>  <Rbt.Receptor>
prm/pocket_docking_6.prm

>  <SCORE>
-9.36745

>  <SCORE.INTER>
-8.07857

>  <SCORE.INTER.CONST>
1

>  <SCORE.INTER.POLAR>
0

>  <SCORE.INTER.ROT>
5

>  <SCORE.INTER.SOLV>
16.7197

>  <SCORE.INTER.VDW>
-17.8923

>  <SCORE.INTER.norm>
-0.807857

>  <SCORE.INTRA>
-1.28888

>  <SCORE.INTRA.DIHEDRAL>
-2.37752

>  <SCORE.INTRA.DIHEDRAL.0>
4.28128

>  <SCORE.INTRA.POLAR>
0

>  <SCORE.INTRA.POLAR.0>
0

>  <SCORE.INTRA.REPUL>
0

>  <SCORE.INTRA.REPUL.0>
0

>  <SCORE.INTRA.SOLV>
-0.449475

>  <SCORE.INTRA.SOLV.lig_0>
-32.3374

>  <SCORE.INTRA.VDW>
0.124618

>  <SCORE.INTRA.VDW.0>
-0.659551

>  <SCORE.INTRA.norm>
-0.128888

>  <SCORE.RESTR>
0

>  <SCORE.RESTR.CAVITY>
0

>  <SCORE.RESTR.norm>
0

>  <SCORE.SYSTEM>
0

>  <SCORE.SYSTEM.CONST>
0

>  <SCORE.SYSTEM.DIHEDRAL>
0

>  <SCORE.SYSTEM.SOLV>
0

>  <SCORE.SYSTEM.norm>
0

>  <SCORE.heavy>
10

>  <SCORE.norm>
-0.936745

>  <RMSD>
5.501

$$$$
ligand
 OpenBabel11021811473D
libRbt.so/2013.1/901 2013/11/27
 10  9  0  0  0  0  0  0  0  0999 V2000
   25.6814   15.0191   20.6060 N   0  0  0  0  0  0  0  0  0  0  0  0
   27.0035   15.5795   20.2096 C   0  0  2  0  0  0  0  0  0  0  0  0
   27.4915   15.0164   18.8747 C   0  0  0  0  0  0  0  0  0  0  0  0
   28.1742   15.6865   18.0931 O   0  0  0  0  0  0  0  0  0  0  0  0
   28.0410   15.3598   21.3137 C   0  0  0  0  0  0  0  0  0  0  0  0
   29.3538   16.1002   21.0947 C   0  0  0  0  0  0  0  0  0  0  0  0
   30.3496   15.7984   22.2142 C   0  0  0  0  0  0  0  0  0  0  0  0
   31.6408   16.5928   22.0529 C   0  0  0  0  0  0  0  0  0  0  0  0
   32.3736   16.2547   20.7975 N   0  0  0  0  0  0  0  0  0  0  0  0
   27.2322   13.8586   18.5534 O   0  0  0  0  0  0  0  0  0  0  0  0
  2  1  1  1  0  0  0
  2  3  1  0  0  0  0
  2  5  1  0  0  0  0
  3  4  1  0  0  0  0
  3 10  1  0  0  0  0
  5  6  1  0  0  0  0
  6  7  1  0  0  0  0
  7  8  1  0  0  0  0
  8  9  1  0  0  0  0
M  END
>  <CHROM.1>
147.57968489,-170.34436658,-178.30811958,-176.77514468,-62.51370199,28.73536319
15.51238602,20.34611295,2.64284180,-0.21511270,-1.74804879

>  <Name>
ligand

>  <RI>
0

>  <Rbt.Current_Directory>
/home/itssahil/PROJECTS/Mol_Feturizer/New_Systems/rnas/3DJ2

>  <Rbt.Executable>
rbdock ($Id: //depot/dev/client3/rdock/2013.1/src/exe/rbdock.cxx#4 $)

>  <Rbt.Library>
libRbt.so (2013.1, Build901 2013/11/27)

>  <Rbt.Parameter_File>
/export/apps/rDock/src/rDock_2013.1_src/data/scripts/dock_solv.prm

>  <Rbt.Receptor>
prm/pocket_docking_8.prm

>  <SCORE>
-9.86885

>  <SCORE.INTER>
-8.3384

>  <SCORE.INTER.CONST>
1

>  <SCORE.INTER.POLAR>
0

>  <SCORE.INTER.ROT>
5

>  <SCORE.INTER.SOLV>
18.1601

>  <SCORE.INTER.VDW>
-18.5456

>  <SCORE.INTER.norm>
-0.83384

>  <SCORE.INTRA>
-1.53046

>  <SCORE.INTRA.DIHEDRAL>
-2.39266

>  <SCORE.INTRA.DIHEDRAL.0>
4.28128

>  <SCORE.INTRA.POLAR>
0

>  <SCORE.INTRA.POLAR.0>
0

>  <SCORE.INTRA.REPUL>
0

>  <SCORE.INTRA.REPUL.0>
0

>  <SCORE.INTRA.SOLV>
-0.433911

>  <SCORE.INTRA.SOLV.lig_0>
-32.3374

>  <SCORE.INTRA.VDW>
-0.117172

>  <SCORE.INTRA.VDW.0>
-0.659551

>  <SCORE.INTRA.norm>
-0.153046

>  <SCORE.RESTR>
0

>  <SCORE.RESTR.CAVITY>
0

>  <SCORE.RESTR.norm>
0

>  <SCORE.SYSTEM>
0

>  <SCORE.SYSTEM.CONST>
0

>  <SCORE.SYSTEM.DIHEDRAL>
0

>  <SCORE.SYSTEM.SOLV>
0

>  <SCORE.SYSTEM.norm>
0

>  <SCORE.heavy>
10

>  <SCORE.norm>
-0.986885

>  <RMSD>
5.501

$$$$
ligand
 OpenBabel11021811473D
libRbt.so/2013.1/901 2013/11/27
 10  9  0  0  0  0  0  0  0  0999 V2000
   28.5841   14.9236   19.0261 N   0  0  0  0  0  0  0  0  0  0  0  0
   28.1776   14.9030   20.4592 C   0  0  2  0  0  0  0  0  0  0  0  0
   26.6634   15.0254   20.6307 C   0  0  0  0  0  0  0  0  0  0  0  0
   26.0832   14.6014   21.6355 O   0  0  0  0  0  0  0  0  0  0  0  0
   28.9122   15.9894   21.2490 C   0  0  0  0  0  0  0  0  0  0  0  0
   30.4251   15.8191   21.2884 C   0  0  0  0  0  0  0  0  0  0  0  0
   31.0837   16.9336   22.1009 C   0  0  0  0  0  0  0  0  0  0  0  0
   32.6034   16.8112   22.1023 C   0  0  0  0  0  0  0  0  0  0  0  0
   33.1955   16.9580   20.7402 N   0  0  0  0  0  0  0  0  0  0  0  0
   25.9804   15.5779   19.7710 O   0  0  0  0  0  0  0  0  0  0  0  0
  2  1  1  6  0  0  0
  2  3  1  0  0  0  0
  2  5  1  0  0  0  0
  3  4  1  0  0  0  0
  3 10  1  0  0  0  0
  5  6  1  0  0  0  0
  6  7  1  0  0  0  0
  7  8  1  0  0  0  0
  8  9  1  0  0  0  0
M  END
>  <CHROM.1>
155.61641336,-62.72063827,-179.60647461,-177.62451999,63.19642112,29.12552576
15.75210799,20.90211727,-2.92310312,0.26336249,1.40030592

>  <Name>
ligand

>  <RI>
0

>  <Rbt.Current_Directory>
/home/itssahil/PROJECTS/Mol_Feturizer/New_Systems/rnas/3DJ2

>  <Rbt.Executable>
rbdock ($Id: //depot/dev/client3/rdock/2013.1/src/exe/rbdock.cxx#4 $)

>  <Rbt.Library>
libRbt.so (2013.1, Build901 2013/11/27)

>  <Rbt.Parameter_File>
/export/apps/rDock/src/rDock_2013.1_src/data/scripts/dock_solv.prm

>  <Rbt.Receptor>
prm/pocket_docking_4.prm

>  <SCORE>
-10.5796

>  <SCORE.INTER>
-9.36466

>  <SCORE.INTER.CONST>
1

>  <SCORE.INTER.POLAR>
0

>  <SCORE.INTER.ROT>
5

>  <SCORE.INTER.SOLV>
13.1421

>  <SCORE.INTER.VDW>
-17.5572

>  <SCORE.INTER.norm>
-0.936466

>  <SCORE.INTRA>
-1.21496

>  <SCORE.INTRA.DIHEDRAL>
-2.70582

>  <SCORE.INTRA.DIHEDRAL.0>
4.28128

>  <SCORE.INTRA.POLAR>
0

>  <SCORE.INTRA.POLAR.0>
0

>  <SCORE.INTRA.REPUL>
0

>  <SCORE.INTRA.REPUL.0>
0

>  <SCORE.INTRA.SOLV>
0.438221

>  <SCORE.INTRA.SOLV.lig_0>
-32.3374

>  <SCORE.INTRA.VDW>
-0.081162

>  <SCORE.INTRA.VDW.0>
-0.659551

>  <SCORE.INTRA.norm>
-0.121496

>  <SCORE.RESTR>
0

>  <SCORE.RESTR.CAVITY>
0

>  <SCORE.RESTR.norm>
0

>  <SCORE.SYSTEM>
0

>  <SCORE.SYSTEM.CONST>
0

>  <SCORE.SYSTEM.DIHEDRAL>
0

>  <SCORE.SYSTEM.SOLV>
0

>  <SCORE.SYSTEM.norm>
0

>  <SCORE.heavy>
10

>  <SCORE.norm>
-1.05796

>  <RMSD>
5.502

$$$$
ligand
 OpenBabel11021811473D
libRbt.so/2013.1/901 2013/11/27
 10  9  0  0  0  0  0  0  0  0999 V2000
   25.7649   15.0859   20.5557 N   0  0  0  0  0  0  0  0  0  0  0  0
   27.1013   15.5896   20.1318 C   0  0  2  0  0  0  0  0  0  0  0  0
   27.5549   14.9761   18.8070 C   0  0  0  0  0  0  0  0  0  0  0  0
   28.2206   15.6145   17.9853 O   0  0  0  0  0  0  0  0  0  0  0  0
   28.1424   15.3618   21.2308 C   0  0  0  0  0  0  0  0  0  0  0  0
   29.4554   16.1017   21.0116 C   0  0  0  0  0  0  0  0  0  0  0  0
   30.4411   15.8221   22.1458 C   0  0  0  0  0  0  0  0  0  0  0  0
   31.7064   16.6627   22.0165 C   0  0  0  0  0  0  0  0  0  0  0  0
   32.5084   16.3163   20.8065 N   0  0  0  0  0  0  0  0  0  0  0  0
   27.2842   13.8084   18.5346 O   0  0  0  0  0  0  0  0  0  0  0  0
  2  1  1  1  0  0  0
  2  3  1  0  0  0  0
  2  5  1  0  0  0  0
  3  4  1  0  0  0  0
  3 10  1  0  0  0  0
  5  6  1  0  0  0  0
  6  7  1  0  0  0  0
  7  8  1  0  0  0  0
  8  9  1  0  0  0  0
M  END
>  <CHROM.1>
145.52752610,-167.68245578,-179.87296338,-174.25971274,-65.41281505,28.81838342
15.51845424,20.28780159,2.63180343,-0.21367437,-1.77065324

>  <Name>
ligand

>  <RI>
0

>  <Rbt.Current_Directory>
/home/itssahil/PROJECTS/Mol_Feturizer/New_Systems/rnas/3DJ2

>  <Rbt.Executable>
rbdock ($Id: //depot/dev/client3/rdock/2013.1/src/exe/rbdock.cxx#4 $)

>  <Rbt.Library>
libRbt.so (2013.1, Build901 2013/11/27)

>  <Rbt.Parameter_File>
/export/apps/rDock/src/rDock_2013.1_src/data/scripts/dock_solv.prm

>  <Rbt.Receptor>
prm/pocket_docking_6.prm

>  <SCORE>
-9.93536

>  <SCORE.INTER>
-8.49854

>  <SCORE.INTER.CONST>
1

>  <SCORE.INTER.POLAR>
0

>  <SCORE.INTER.ROT>
5

>  <SCORE.INTER.SOLV>
18.0029

>  <SCORE.INTER.VDW>
-18.6

>  <SCORE.INTER.norm>
-0.849854

>  <SCORE.INTRA>
-1.43682

>  <SCORE.INTRA.DIHEDRAL>
-2.01287

>  <SCORE.INTRA.DIHEDRAL.0>
4.28128

>  <SCORE.INTRA.POLAR>
0

>  <SCORE.INTRA.POLAR.0>
0

>  <SCORE.INTRA.REPUL>
0

>  <SCORE.INTRA.REPUL.0>
0

>  <SCORE.INTRA.SOLV>
-0.483354

>  <SCORE.INTRA.SOLV.lig_0>
-32.3374

>  <SCORE.INTRA.VDW>
-0.188705

>  <SCORE.INTRA.VDW.0>
-0.659551

>  <SCORE.INTRA.norm>
-0.143682

>  <SCORE.RESTR>
0

>  <SCORE.RESTR.CAVITY>
0

>  <SCORE.RESTR.norm>
0

>  <SCORE.SYSTEM>
0

>  <SCORE.SYSTEM.CONST>
0

>  <SCORE.SYSTEM.DIHEDRAL>
0

>  <SCORE.SYSTEM.SOLV>
0

>  <SCORE.SYSTEM.norm>
0

>  <SCORE.heavy>
10

>  <SCORE.norm>
-0.993536

>  <RMSD>
5.502

$$$$
ligand
 OpenBabel11021811473D
libRbt.so/2013.1/901 2013/11/27
 10  9  0  0  0  0  0  0  0  0999 V2000
   25.7072   14.9959   20.6084 N   0  0  0  0  0  0  0  0  0  0  0  0
   27.0330   15.5548   20.2221 C   0  0  2  0  0  0  0  0  0  0  0  0
   27.4939   15.0524   18.8538 C   0  0  0  0  0  0  0  0  0  0  0  0
   28.1667   15.7548   18.0925 O   0  0  0  0  0  0  0  0  0  0  0  0
   28.0812   15.2633   21.2991 C   0  0  0  0  0  0  0  0  0  0  0  0
   29.3858   16.0297   21.1259 C   0  0  0  0  0  0  0  0  0  0  0  0
   30.3680   15.7064   22.2515 C   0  0  0  0  0  0  0  0  0  0  0  0
   31.6380   16.5440   22.1527 C   0  0  0  0  0  0  0  0  0  0  0  0
   32.3887   16.3070   20.8848 N   0  0  0  0  0  0  0  0  0  0  0  0
   27.2220   13.9122   18.4835 O   0  0  0  0  0  0  0  0  0  0  0  0
  2  1  1  1  0  0  0
  2  3  1  0  0  0  0
  2  5  1  0  0  0  0
  3  4  1  0  0  0  0
  3 10  1  0  0  0  0
  5  6  1  0  0  0  0
  6  7  1  0  0  0  0
  7  8  1  0  0  0  0
  8  9  1  0  0  0  0
M  END
>  <CHROM.1>
146.90116956,-168.34991607,178.89656666,-175.67082654,-61.19663360,28.74907024
15.49930251,20.36164860,2.63419428,-0.23075705,-1.69511314

>  <Name>
ligand

>  <RI>
0

>  <Rbt.Current_Directory>
/home/itssahil/PROJECTS/Mol_Feturizer/New_Systems/rnas/3DJ2

>  <Rbt.Executable>
rbdock ($Id: //depot/dev/client3/rdock/2013.1/src/exe/rbdock.cxx#4 $)

>  <Rbt.Library>
libRbt.so (2013.1, Build901 2013/11/27)

>  <Rbt.Parameter_File>
/export/apps/rDock/src/rDock_2013.1_src/data/scripts/dock_solv.prm

>  <Rbt.Receptor>
prm/pocket_docking_5.prm

>  <SCORE>
-9.83044

>  <SCORE.INTER>
-8.37119

>  <SCORE.INTER.CONST>
1

>  <SCORE.INTER.POLAR>
0

>  <SCORE.INTER.ROT>
5

>  <SCORE.INTER.SOLV>
17.9947

>  <SCORE.INTER.VDW>
-18.5123

>  <SCORE.INTER.norm>
-0.837119

>  <SCORE.INTRA>
-1.45925

>  <SCORE.INTRA.DIHEDRAL>
-2.22954

>  <SCORE.INTRA.DIHEDRAL.0>
4.28128

>  <SCORE.INTRA.POLAR>
0

>  <SCORE.INTRA.POLAR.0>
0

>  <SCORE.INTRA.REPUL>
0

>  <SCORE.INTRA.REPUL.0>
0

>  <SCORE.INTRA.SOLV>
-0.418199

>  <SCORE.INTRA.SOLV.lig_0>
-32.3374

>  <SCORE.INTRA.VDW>
-0.135384

>  <SCORE.INTRA.VDW.0>
-0.659551

>  <SCORE.INTRA.norm>
-0.145925

>  <SCORE.RESTR>
0

>  <SCORE.RESTR.CAVITY>
0

>  <SCORE.RESTR.norm>
0

>  <SCORE.SYSTEM>
0

>  <SCORE.SYSTEM.CONST>
0

>  <SCORE.SYSTEM.DIHEDRAL>
0

>  <SCORE.SYSTEM.SOLV>
0

>  <SCORE.SYSTEM.norm>
0

>  <SCORE.heavy>
10

>  <SCORE.norm>
-0.983044

>  <RMSD>
5.503

$$$$
ligand
 OpenBabel11021811473D
libRbt.so/2013.1/901 2013/11/27
 10  9  0  0  0  0  0  0  0  0999 V2000
   25.7155   15.1397   20.5169 N   0  0  0  0  0  0  0  0  0  0  0  0
   27.1441   15.4097   20.1923 C   0  0  2  0  0  0  0  0  0  0  0  0
   27.5230   14.9093   18.7982 C   0  0  0  0  0  0  0  0  0  0  0  0
   27.1594   13.8057   18.3790 O   0  0  0  0  0  0  0  0  0  0  0  0
   28.0665   14.8175   21.2610 C   0  0  0  0  0  0  0  0  0  0  0  0
   29.5412   15.1431   21.0646 C   0  0  0  0  0  0  0  0  0  0  0  0
   29.7917   16.6472   21.1694 C   0  0  0  0  0  0  0  0  0  0  0  0
   31.2482   16.9996   20.8888 C   0  0  0  0  0  0  0  0  0  0  0  0
   32.1871   16.4131   21.8897 N   0  0  0  0  0  0  0  0  0  0  0  0
   28.1881   15.6136   18.0416 O   0  0  0  0  0  0  0  0  0  0  0  0
  2  1  1  1  0  0  0
  2  3  1  0  0  0  0
  2  5  1  0  0  0  0
  3  4  1  0  0  0  0
  3 10  1  0  0  0  0
  5  6  1  0  0  0  0
  6  7  1  0  0  0  0
  7  8  1  0  0  0  0
  8  9  1  0  0  0  0
M  END
>  <CHROM.1>
-43.55271567,-175.39504413,63.30892719,-176.43150564,-63.55732088,28.65591960
15.47682432,20.18418419,2.65045905,-0.32834664,-1.70068872

>  <Name>
ligand

>  <RI>
0

>  <Rbt.Current_Directory>
/home/itssahil/PROJECTS/Mol_Feturizer/New_Systems/rnas/3DJ2

>  <Rbt.Executable>
rbdock ($Id: //depot/dev/client3/rdock/2013.1/src/exe/rbdock.cxx#4 $)

>  <Rbt.Library>
libRbt.so (2013.1, Build901 2013/11/27)

>  <Rbt.Parameter_File>
/export/apps/rDock/src/rDock_2013.1_src/data/scripts/dock_solv.prm

>  <Rbt.Receptor>
prm/blind_docking_100.prm

>  <SCORE>
-9.26851

>  <SCORE.INTER>
-7.9619

>  <SCORE.INTER.CONST>
1

>  <SCORE.INTER.POLAR>
0

>  <SCORE.INTER.ROT>
5

>  <SCORE.INTER.SOLV>
17.4983

>  <SCORE.INTER.VDW>
-18.074

>  <SCORE.INTER.norm>
-0.79619

>  <SCORE.INTRA>
-1.30661

>  <SCORE.INTRA.DIHEDRAL>
-2.50547

>  <SCORE.INTRA.DIHEDRAL.0>
4.28128

>  <SCORE.INTRA.POLAR>
0

>  <SCORE.INTRA.POLAR.0>
0

>  <SCORE.INTRA.REPUL>
0

>  <SCORE.INTRA.REPUL.0>
0

>  <SCORE.INTRA.SOLV>
-0.197035

>  <SCORE.INTRA.SOLV.lig_0>
-32.3374

>  <SCORE.INTRA.VDW>
0.044642

>  <SCORE.INTRA.VDW.0>
-0.659551

>  <SCORE.INTRA.norm>
-0.130661

>  <SCORE.RESTR>
0

>  <SCORE.RESTR.CAVITY>
0

>  <SCORE.RESTR.norm>
0

>  <SCORE.SYSTEM>
0

>  <SCORE.SYSTEM.CONST>
0

>  <SCORE.SYSTEM.DIHEDRAL>
0

>  <SCORE.SYSTEM.SOLV>
0

>  <SCORE.SYSTEM.norm>
0

>  <SCORE.heavy>
10

>  <SCORE.norm>
-0.926851

>  <RMSD>
5.506

$$$$
ligand
 OpenBabel11021811473D
libRbt.so/2013.1/901 2013/11/27
 10  9  0  0  0  0  0  0  0  0999 V2000
   25.7632   15.0673   20.6245 N   0  0  0  0  0  0  0  0  0  0  0  0
   27.0785   15.6765   20.2810 C   0  0  2  0  0  0  0  0  0  0  0  0
   27.5700   15.2456   18.8990 C   0  0  0  0  0  0  0  0  0  0  0  0
   27.1948   14.1941   18.3705 O   0  0  0  0  0  0  0  0  0  0  0  0
   28.1203   15.3660   21.3590 C   0  0  0  0  0  0  0  0  0  0  0  0
   29.4568   16.0681   21.1578 C   0  0  0  0  0  0  0  0  0  0  0  0
   30.4746   15.6261   22.2090 C   0  0  0  0  0  0  0  0  0  0  0  0
   31.8264   16.3016   22.0073 C   0  0  0  0  0  0  0  0  0  0  0  0
   31.7720   17.7775   22.2215 N   0  0  0  0  0  0  0  0  0  0  0  0
   28.3432   15.9575   18.2614 O   0  0  0  0  0  0  0  0  0  0  0  0
  2  1  1  1  0  0  0
  2  3  1  0  0  0  0
  2  5  1  0  0  0  0
  3  4  1  0  0  0  0
  3 10  1  0  0  0  0
  5  6  1  0  0  0  0
  6  7  1  0  0  0  0
  7  8  1  0  0  0  0
  8  9  1  0  0  0  0
M  END
>  <CHROM.1>
-24.15693142,-174.14857040,-175.63087339,179.00206381,65.49069635,28.76128007
15.71686589,20.50198412,2.56750267,-0.33435905,-1.63271365

>  <Name>
ligand

>  <RI>
0

>  <Rbt.Current_Directory>
/home/itssahil/PROJECTS/Mol_Feturizer/New_Systems/rnas/3DJ2

>  <Rbt.Executable>
rbdock ($Id: //depot/dev/client3/rdock/2013.1/src/exe/rbdock.cxx#4 $)

>  <Rbt.Library>
libRbt.so (2013.1, Build901 2013/11/27)

>  <Rbt.Parameter_File>
/export/apps/rDock/src/rDock_2013.1_src/data/scripts/dock_solv.prm

>  <Rbt.Receptor>
prm/pocket_docking_3.prm

>  <SCORE>
-9.65137

>  <SCORE.INTER>
-8.17247

>  <SCORE.INTER.CONST>
1

>  <SCORE.INTER.POLAR>
0

>  <SCORE.INTER.ROT>
5

>  <SCORE.INTER.SOLV>
17.6968

>  <SCORE.INTER.VDW>
-18.2806

>  <SCORE.INTER.norm>
-0.817247

>  <SCORE.INTRA>
-1.4789

>  <SCORE.INTRA.DIHEDRAL>
-2.39492

>  <SCORE.INTRA.DIHEDRAL.0>
4.28128

>  <SCORE.INTRA.POLAR>
0

>  <SCORE.INTRA.POLAR.0>
0

>  <SCORE.INTRA.REPUL>
0

>  <SCORE.INTRA.REPUL.0>
0

>  <SCORE.INTRA.SOLV>
-0.466149

>  <SCORE.INTRA.SOLV.lig_0>
-32.3374

>  <SCORE.INTRA.VDW>
-0.0483642

>  <SCORE.INTRA.VDW.0>
-0.659551

>  <SCORE.INTRA.norm>
-0.14789

>  <SCORE.RESTR>
0

>  <SCORE.RESTR.CAVITY>
0

>  <SCORE.RESTR.norm>
0

>  <SCORE.SYSTEM>
0

>  <SCORE.SYSTEM.CONST>
0

>  <SCORE.SYSTEM.DIHEDRAL>
0

>  <SCORE.SYSTEM.SOLV>
0

>  <SCORE.SYSTEM.norm>
0

>  <SCORE.heavy>
10

>  <SCORE.norm>
-0.965137

>  <RMSD>
5.507

$$$$
ligand
 OpenBabel11021811473D
libRbt.so/2013.1/901 2013/11/27
 10  9  0  0  0  0  0  0  0  0999 V2000
   25.7327   15.0216   20.5403 N   0  0  0  0  0  0  0  0  0  0  0  0
   27.0780   15.5272   20.1479 C   0  0  2  0  0  0  0  0  0  0  0  0
   27.5452   14.9464   18.8131 C   0  0  0  0  0  0  0  0  0  0  0  0
   27.2355   13.8063   18.4523 O   0  0  0  0  0  0  0  0  0  0  0  0
   28.1028   15.2626   21.2540 C   0  0  0  0  0  0  0  0  0  0  0  0
   29.4435   15.9534   21.0427 C   0  0  0  0  0  0  0  0  0  0  0  0
   30.4065   15.6493   22.1900 C   0  0  0  0  0  0  0  0  0  0  0  0
   31.6788   16.4842   22.0977 C   0  0  0  0  0  0  0  0  0  0  0  0
   32.4811   16.1807   20.8765 N   0  0  0  0  0  0  0  0  0  0  0  0
   28.2306   15.6187   18.0455 O   0  0  0  0  0  0  0  0  0  0  0  0
  2  1  1  1  0  0  0
  2  3  1  0  0  0  0
  2  5  1  0  0  0  0
  3  4  1  0  0  0  0
  3 10  1  0  0  0  0
  5  6  1  0  0  0  0
  6  7  1  0  0  0  0
  7  8  1  0  0  0  0
  8  9  1  0  0  0  0
M  END
>  <CHROM.1>
-32.60139193,-170.07275828,179.61603329,-171.98218164,-63.74472754,28.79380953
15.43104800,20.31057325,2.62711429,-0.20160273,-1.73925114

>  <Name>
ligand

>  <RI>
0

>  <Rbt.Current_Directory>
/home/itssahil/PROJECTS/Mol_Feturizer/New_Systems/rnas/3DJ2

>  <Rbt.Executable>
rbdock ($Id: //depot/dev/client3/rdock/2013.1/src/exe/rbdock.cxx#4 $)

>  <Rbt.Library>
libRbt.so (2013.1, Build901 2013/11/27)

>  <Rbt.Parameter_File>
/export/apps/rDock/src/rDock_2013.1_src/data/scripts/dock_solv.prm

>  <Rbt.Receptor>
prm/pocket_docking_4.prm

>  <SCORE>
-9.86325

>  <SCORE.INTER>
-8.46547

>  <SCORE.INTER.CONST>
1

>  <SCORE.INTER.POLAR>
0

>  <SCORE.INTER.ROT>
5

>  <SCORE.INTER.SOLV>
18.2519

>  <SCORE.INTER.VDW>
-18.661

>  <SCORE.INTER.norm>
-0.846547

>  <SCORE.INTRA>
-1.39778

>  <SCORE.INTRA.DIHEDRAL>
-2.03831

>  <SCORE.INTRA.DIHEDRAL.0>
4.28128

>  <SCORE.INTRA.POLAR>
0

>  <SCORE.INTRA.POLAR.0>
0

>  <SCORE.INTRA.REPUL>
0

>  <SCORE.INTRA.REPUL.0>
0

>  <SCORE.INTRA.SOLV>
-0.471054

>  <SCORE.INTRA.SOLV.lig_0>
-32.3374

>  <SCORE.INTRA.VDW>
-0.143095

>  <SCORE.INTRA.VDW.0>
-0.659551

>  <SCORE.INTRA.norm>
-0.139778

>  <SCORE.RESTR>
0

>  <SCORE.RESTR.CAVITY>
0

>  <SCORE.RESTR.norm>
0

>  <SCORE.SYSTEM>
0

>  <SCORE.SYSTEM.CONST>
0

>  <SCORE.SYSTEM.DIHEDRAL>
0

>  <SCORE.SYSTEM.SOLV>
0

>  <SCORE.SYSTEM.norm>
0

>  <SCORE.heavy>
10

>  <SCORE.norm>
-0.986325

>  <RMSD>
5.507

$$$$
ligand
 OpenBabel11021811473D
libRbt.so/2013.1/901 2013/11/27
 10  9  0  0  0  0  0  0  0  0999 V2000
   26.1094   15.3895   20.2935 N   0  0  0  0  0  0  0  0  0  0  0  0
   27.5089   15.2768   19.7955 C   0  0  2  0  0  0  0  0  0  0  0  0
   27.5667   14.8270   18.3355 C   0  0  0  0  0  0  0  0  0  0  0  0
   28.2049   15.4536   17.4835 O   0  0  0  0  0  0  0  0  0  0  0  0
   28.3326   14.3486   20.6920 C   0  0  0  0  0  0  0  0  0  0  0  0
   28.5688   14.8846   22.0978 C   0  0  0  0  0  0  0  0  0  0  0  0
   29.5228   16.0786   22.0788 C   0  0  0  0  0  0  0  0  0  0  0  0
   30.9371   15.6672   21.6851 C   0  0  0  0  0  0  0  0  0  0  0  0
   31.8839   16.8201   21.6460 N   0  0  0  0  0  0  0  0  0  0  0  0
   26.9904   13.8030   17.9744 O   0  0  0  0  0  0  0  0  0  0  0  0
  2  1  1  1  0  0  0
  2  3  1  0  0  0  0
  2  5  1  0  0  0  0
  3  4  1  0  0  0  0
  3 10  1  0  0  0  0
  5  6  1  0  0  0  0
  6  7  1  0  0  0  0
  7  8  1  0  0  0  0
  8  9  1  0  0  0  0
M  END
>  <CHROM.1>
127.46516112,-66.81291392,-69.84579433,-68.08738636,179.41015974,28.55721060
15.24310016,20.16837039,2.38802064,-0.34265035,-1.60962205

>  <Name>
ligand

>  <RI>
0

>  <Rbt.Current_Directory>
/home/itssahil/PROJECTS/Mol_Feturizer/New_Systems/rnas/3DJ2

>  <Rbt.Executable>
rbdock ($Id: //depot/dev/client3/rdock/2013.1/src/exe/rbdock.cxx#4 $)

>  <Rbt.Library>
libRbt.so (2013.1, Build901 2013/11/27)

>  <Rbt.Parameter_File>
/export/apps/rDock/src/rDock_2013.1_src/data/scripts/dock_solv.prm

>  <Rbt.Receptor>
prm/pocket_docking_4.prm

>  <SCORE>
-9.77875

>  <SCORE.INTER>
-9.35275

>  <SCORE.INTER.CONST>
1

>  <SCORE.INTER.POLAR>
0

>  <SCORE.INTER.ROT>
5

>  <SCORE.INTER.SOLV>
15.7746

>  <SCORE.INTER.VDW>
-18.4267

>  <SCORE.INTER.norm>
-0.935275

>  <SCORE.INTRA>
-0.425998

>  <SCORE.INTRA.DIHEDRAL>
-1.90566

>  <SCORE.INTRA.DIHEDRAL.0>
4.28128

>  <SCORE.INTRA.POLAR>
0

>  <SCORE.INTRA.POLAR.0>
0

>  <SCORE.INTRA.REPUL>
0

>  <SCORE.INTRA.REPUL.0>
0

>  <SCORE.INTRA.SOLV>
0.129887

>  <SCORE.INTRA.SOLV.lig_0>
-32.3374

>  <SCORE.INTRA.VDW>
0.461886

>  <SCORE.INTRA.VDW.0>
-0.659551

>  <SCORE.INTRA.norm>
-0.0425998

>  <SCORE.RESTR>
0

>  <SCORE.RESTR.CAVITY>
0

>  <SCORE.RESTR.norm>
0

>  <SCORE.SYSTEM>
0

>  <SCORE.SYSTEM.CONST>
0

>  <SCORE.SYSTEM.DIHEDRAL>
0

>  <SCORE.SYSTEM.SOLV>
0

>  <SCORE.SYSTEM.norm>
0

>  <SCORE.heavy>
10

>  <SCORE.norm>
-0.977875

>  <RMSD>
5.510

$$$$
ligand
 OpenBabel11021811473D
libRbt.so/2013.1/901 2013/11/27
 10  9  0  0  0  0  0  0  0  0999 V2000
   25.6946   15.0130   20.5484 N   0  0  0  0  0  0  0  0  0  0  0  0
   27.0367   15.5287   20.1583 C   0  0  2  0  0  0  0  0  0  0  0  0
   27.4836   14.9997   18.7953 C   0  0  0  0  0  0  0  0  0  0  0  0
   28.1539   15.6849   18.0162 O   0  0  0  0  0  0  0  0  0  0  0  0
   28.0750   15.2165   21.2391 C   0  0  0  0  0  0  0  0  0  0  0  0
   29.3874   15.9732   21.0828 C   0  0  0  0  0  0  0  0  0  0  0  0
   30.3787   15.5889   22.1809 C   0  0  0  0  0  0  0  0  0  0  0  0
   31.6533   16.4224   22.1101 C   0  0  0  0  0  0  0  0  0  0  0  0
   32.3791   16.2585   20.8164 N   0  0  0  0  0  0  0  0  0  0  0  0
   27.2026   13.8548   18.4473 O   0  0  0  0  0  0  0  0  0  0  0  0
  2  1  1  1  0  0  0
  2  3  1  0  0  0  0
  2  5  1  0  0  0  0
  3  4  1  0  0  0  0
  3 10  1  0  0  0  0
  5  6  1  0  0  0  0
  6  7  1  0  0  0  0
  7  8  1  0  0  0  0
  8  9  1  0  0  0  0
M  END
>  <CHROM.1>
145.35157721,-166.65054887,-178.91665550,-175.16821634,-60.36513551,28.74481170
15.44083700,20.30382082,2.63476577,-0.21839980,-1.69439361

>  <Name>
ligand

>  <RI>
0

>  <Rbt.Current_Directory>
/home/itssahil/PROJECTS/Mol_Feturizer/New_Systems/rnas/3DJ2

>  <Rbt.Executable>
rbdock ($Id: //depot/dev/client3/rdock/2013.1/src/exe/rbdock.cxx#4 $)

>  <Rbt.Library>
libRbt.so (2013.1, Build901 2013/11/27)

>  <Rbt.Parameter_File>
/export/apps/rDock/src/rDock_2013.1_src/data/scripts/dock_solv.prm

>  <Rbt.Receptor>
prm/pocket_docking_8.prm

>  <SCORE>
-9.80935

>  <SCORE.INTER>
-8.41743

>  <SCORE.INTER.CONST>
1

>  <SCORE.INTER.POLAR>
0

>  <SCORE.INTER.ROT>
5

>  <SCORE.INTER.SOLV>
18.1567

>  <SCORE.INTER.VDW>
-18.5972

>  <SCORE.INTER.norm>
-0.841743

>  <SCORE.INTRA>
-1.39191

>  <SCORE.INTRA.DIHEDRAL>
-2.06333

>  <SCORE.INTRA.DIHEDRAL.0>
4.28128

>  <SCORE.INTRA.POLAR>
0

>  <SCORE.INTRA.POLAR.0>
0

>  <SCORE.INTRA.REPUL>
0

>  <SCORE.INTRA.REPUL.0>
0

>  <SCORE.INTRA.SOLV>
-0.407044

>  <SCORE.INTRA.SOLV.lig_0>
-32.3374

>  <SCORE.INTRA.VDW>
-0.156722

>  <SCORE.INTRA.VDW.0>
-0.659551

>  <SCORE.INTRA.norm>
-0.139191

>  <SCORE.RESTR>
0

>  <SCORE.RESTR.CAVITY>
0

>  <SCORE.RESTR.norm>
0

>  <SCORE.SYSTEM>
0

>  <SCORE.SYSTEM.CONST>
0

>  <SCORE.SYSTEM.DIHEDRAL>
0

>  <SCORE.SYSTEM.SOLV>
0

>  <SCORE.SYSTEM.norm>
0

>  <SCORE.heavy>
10

>  <SCORE.norm>
-0.980935

>  <RMSD>
5.518

$$$$
ligand
 OpenBabel11021811473D
libRbt.so/2013.1/901 2013/11/27
 10  9  0  0  0  0  0  0  0  0999 V2000
   26.1187   15.3280   20.3011 N   0  0  0  0  0  0  0  0  0  0  0  0
   27.5128   15.2503   19.7818 C   0  0  2  0  0  0  0  0  0  0  0  0
   27.5591   14.8129   18.3176 C   0  0  0  0  0  0  0  0  0  0  0  0
   28.1821   15.4525   17.4640 O   0  0  0  0  0  0  0  0  0  0  0  0
   28.3701   14.3342   20.6590 C   0  0  0  0  0  0  0  0  0  0  0  0
   28.5727   14.8402   22.0811 C   0  0  0  0  0  0  0  0  0  0  0  0
   29.4741   16.0743   22.1032 C   0  0  0  0  0  0  0  0  0  0  0  0
   30.9080   15.7352   21.7118 C   0  0  0  0  0  0  0  0  0  0  0  0
   31.8157   16.9189   21.7630 N   0  0  0  0  0  0  0  0  0  0  0  0
   26.9887   13.7864   17.9545 O   0  0  0  0  0  0  0  0  0  0  0  0
  2  1  1  1  0  0  0
  2  3  1  0  0  0  0
  2  5  1  0  0  0  0
  3  4  1  0  0  0  0
  3 10  1  0  0  0  0
  5  6  1  0  0  0  0
  6  7  1  0  0  0  0
  7  8  1  0  0  0  0
  8  9  1  0  0  0  0
M  END
>  <CHROM.1>
128.23288940,-64.68789638,-69.87967959,-68.15278899,-178.40734489,28.54466897
15.24164324,20.17362243,2.37792314,-0.37617783,-1.59779464

>  <Name>
ligand

>  <RI>
0

>  <Rbt.Current_Directory>
/home/itssahil/PROJECTS/Mol_Feturizer/New_Systems/rnas/3DJ2

>  <Rbt.Executable>
rbdock ($Id: //depot/dev/client3/rdock/2013.1/src/exe/rbdock.cxx#4 $)

>  <Rbt.Library>
libRbt.so (2013.1, Build901 2013/11/27)

>  <Rbt.Parameter_File>
/export/apps/rDock/src/rDock_2013.1_src/data/scripts/dock_solv.prm

>  <Rbt.Receptor>
prm/pocket_docking_7.prm

>  <SCORE>
-9.69595

>  <SCORE.INTER>
-9.25437

>  <SCORE.INTER.CONST>
1

>  <SCORE.INTER.POLAR>
0

>  <SCORE.INTER.ROT>
5

>  <SCORE.INTER.SOLV>
15.715

>  <SCORE.INTER.VDW>
-18.3413

>  <SCORE.INTER.norm>
-0.925437

>  <SCORE.INTRA>
-0.441577

>  <SCORE.INTRA.DIHEDRAL>
-1.99177

>  <SCORE.INTRA.DIHEDRAL.0>
4.28128

>  <SCORE.INTRA.POLAR>
0

>  <SCORE.INTRA.POLAR.0>
0

>  <SCORE.INTRA.REPUL>
0

>  <SCORE.INTRA.REPUL.0>
0

>  <SCORE.INTRA.SOLV>
0.158479

>  <SCORE.INTRA.SOLV.lig_0>
-32.3374

>  <SCORE.INTRA.VDW>
0.475068

>  <SCORE.INTRA.VDW.0>
-0.659551

>  <SCORE.INTRA.norm>
-0.0441577

>  <SCORE.RESTR>
0

>  <SCORE.RESTR.CAVITY>
0

>  <SCORE.RESTR.norm>
0

>  <SCORE.SYSTEM>
0

>  <SCORE.SYSTEM.CONST>
0

>  <SCORE.SYSTEM.DIHEDRAL>
0

>  <SCORE.SYSTEM.SOLV>
0

>  <SCORE.SYSTEM.norm>
0

>  <SCORE.heavy>
10

>  <SCORE.norm>
-0.969595

>  <RMSD>
5.521

$$$$
ligand
 OpenBabel11021811473D
libRbt.so/2013.1/901 2013/11/27
 10  9  0  0  0  0  0  0  0  0999 V2000
   28.8609   16.2860   19.5358 N   0  0  0  0  0  0  0  0  0  0  0  0
   27.6871   15.4163   19.2439 C   0  0  2  0  0  0  0  0  0  0  0  0
   27.0062   14.9197   20.5194 C   0  0  0  0  0  0  0  0  0  0  0  0
   25.7812   14.9720   20.6690 O   0  0  0  0  0  0  0  0  0  0  0  0
   28.0875   14.2469   18.3406 C   0  0  0  0  0  0  0  0  0  0  0  0
   26.9377   13.3182   17.9733 C   0  0  0  0  0  0  0  0  0  0  0  0
   27.4512   12.0458   17.3000 C   0  0  0  0  0  0  0  0  0  0  0  0
   26.3953   10.9461   17.2874 C   0  0  0  0  0  0  0  0  0  0  0  0
   26.9371    9.6306   16.8368 N   0  0  0  0  0  0  0  0  0  0  0  0
   27.6693   14.4276   21.4300 O   0  0  0  0  0  0  0  0  0  0  0  0
  2  1  1  1  0  0  0
  2  3  1  0  0  0  0
  2  5  1  0  0  0  0
  3  4  1  0  0  0  0
  3 10  1  0  0  0  0
  5  6  1  0  0  0  0
  6  7  1  0  0  0  0
  7  8  1  0  0  0  0
  8  9  1  0  0  0  0
M  END
>  <CHROM.1>
132.74624636,-179.03685378,-169.29375850,163.60262125,-170.79248032,27.26665013
13.61989513,18.94824571,-1.40739896,-0.80567123,-2.40732736

>  <Name>
ligand

>  <RI>
0

>  <Rbt.Current_Directory>
/home/itssahil/PROJECTS/Mol_Feturizer/New_Systems/rnas/3DJ2

>  <Rbt.Executable>
rbdock ($Id: //depot/dev/client3/rdock/2013.1/src/exe/rbdock.cxx#4 $)

>  <Rbt.Library>
libRbt.so (2013.1, Build901 2013/11/27)

>  <Rbt.Parameter_File>
/export/apps/rDock/src/rDock_2013.1_src/data/scripts/dock_solv.prm

>  <Rbt.Receptor>
prm/blind_docking_40.prm

>  <SCORE>
-11.1386

>  <SCORE.INTER>
-10.0002

>  <SCORE.INTER.CONST>
1

>  <SCORE.INTER.POLAR>
0

>  <SCORE.INTER.ROT>
5

>  <SCORE.INTER.SOLV>
15.3678

>  <SCORE.INTER.VDW>
-18.7227

>  <SCORE.INTER.norm>
-1.00002

>  <SCORE.INTRA>
-1.28432

>  <SCORE.INTRA.DIHEDRAL>
-0.940169

>  <SCORE.INTRA.DIHEDRAL.0>
4.28128

>  <SCORE.INTRA.POLAR>
0

>  <SCORE.INTRA.POLAR.0>
0

>  <SCORE.INTRA.REPUL>
0

>  <SCORE.INTRA.REPUL.0>
0

>  <SCORE.INTRA.SOLV>
-1.33966

>  <SCORE.INTRA.SOLV.lig_0>
-32.3374

>  <SCORE.INTRA.VDW>
-0.144404

>  <SCORE.INTRA.VDW.0>
-0.659551

>  <SCORE.INTRA.norm>
-0.128432

>  <SCORE.RESTR>
0.145898

>  <SCORE.RESTR.CAVITY>
0.145898

>  <SCORE.RESTR.norm>
0.0145898

>  <SCORE.SYSTEM>
0

>  <SCORE.SYSTEM.CONST>
0

>  <SCORE.SYSTEM.DIHEDRAL>
0

>  <SCORE.SYSTEM.SOLV>
0

>  <SCORE.SYSTEM.norm>
0

>  <SCORE.heavy>
10

>  <SCORE.norm>
-1.11386

>  <RMSD>
5.525

$$$$
ligand
 OpenBabel11021811473D
libRbt.so/2013.1/901 2013/11/27
 10  9  0  0  0  0  0  0  0  0999 V2000
   26.8688   14.6051   20.6981 N   0  0  0  0  0  0  0  0  0  0  0  0
   27.1567   15.5394   19.5740 C   0  0  2  0  0  0  0  0  0  0  0  0
   27.5915   14.8013   18.3078 C   0  0  0  0  0  0  0  0  0  0  0  0
   27.3589   13.5999   18.1393 O   0  0  0  0  0  0  0  0  0  0  0  0
   28.1956   16.5849   19.9878 C   0  0  0  0  0  0  0  0  0  0  0  0
   29.5171   15.9983   20.4663 C   0  0  0  0  0  0  0  0  0  0  0  0
   30.4817   17.0997   20.9052 C   0  0  0  0  0  0  0  0  0  0  0  0
   31.8233   16.5315   21.3542 C   0  0  0  0  0  0  0  0  0  0  0  0
   32.5520   15.8338   20.2544 N   0  0  0  0  0  0  0  0  0  0  0  0
   28.1705   15.4001   17.4038 O   0  0  0  0  0  0  0  0  0  0  0  0
  2  1  1  1  0  0  0
  2  3  1  0  0  0  0
  2  5  1  0  0  0  0
  3  4  1  0  0  0  0
  3 10  1  0  0  0  0
  5  6  1  0  0  0  0
  6  7  1  0  0  0  0
  7  8  1  0  0  0  0
  8  9  1  0  0  0  0
M  END
>  <CHROM.1>
19.05021284,57.57104736,-178.06694179,-178.55371108,63.35786443,28.97034088
15.58057965,19.67569290,2.57114741,-0.16581538,-2.00403420

>  <Name>
ligand

>  <RI>
0

>  <Rbt.Current_Directory>
/home/itssahil/PROJECTS/Mol_Feturizer/New_Systems/rnas/3DJ2

>  <Rbt.Executable>
rbdock ($Id: //depot/dev/client3/rdock/2013.1/src/exe/rbdock.cxx#4 $)

>  <Rbt.Library>
libRbt.so (2013.1, Build901 2013/11/27)

>  <Rbt.Parameter_File>
/export/apps/rDock/src/rDock_2013.1_src/data/scripts/dock_solv.prm

>  <Rbt.Receptor>
prm/blind_docking_60.prm

>  <SCORE>
-9.06919

>  <SCORE.INTER>
-8.35422

>  <SCORE.INTER.CONST>
1

>  <SCORE.INTER.POLAR>
0

>  <SCORE.INTER.ROT>
5

>  <SCORE.INTER.SOLV>
17.1333

>  <SCORE.INTER.VDW>
-18.2139

>  <SCORE.INTER.norm>
-0.835422

>  <SCORE.INTRA>
-0.71497

>  <SCORE.INTRA.DIHEDRAL>
-2.69958

>  <SCORE.INTRA.DIHEDRAL.0>
4.28128

>  <SCORE.INTRA.POLAR>
0

>  <SCORE.INTRA.POLAR.0>
0

>  <SCORE.INTRA.REPUL>
0

>  <SCORE.INTRA.REPUL.0>
0

>  <SCORE.INTRA.SOLV>
0.495747

>  <SCORE.INTRA.SOLV.lig_0>
-32.3374

>  <SCORE.INTRA.VDW>
0.386946

>  <SCORE.INTRA.VDW.0>
-0.659551

>  <SCORE.INTRA.norm>
-0.071497

>  <SCORE.RESTR>
0

>  <SCORE.RESTR.CAVITY>
0

>  <SCORE.RESTR.norm>
0

>  <SCORE.SYSTEM>
0

>  <SCORE.SYSTEM.CONST>
0

>  <SCORE.SYSTEM.DIHEDRAL>
0

>  <SCORE.SYSTEM.SOLV>
0

>  <SCORE.SYSTEM.norm>
0

>  <SCORE.heavy>
10

>  <SCORE.norm>
-0.906919

>  <RMSD>
5.527

$$$$
ligand
 OpenBabel11021811473D
libRbt.so/2013.1/901 2013/11/27
 10  9  0  0  0  0  0  0  0  0999 V2000
   26.3459   15.0211   20.5012 N   0  0  0  0  0  0  0  0  0  0  0  0
   27.5620   15.4056   19.7315 C   0  0  2  0  0  0  0  0  0  0  0  0
   27.5685   14.8046   18.3259 C   0  0  0  0  0  0  0  0  0  0  0  0
   26.9787   13.7516   18.0627 O   0  0  0  0  0  0  0  0  0  0  0  0
   28.8327   15.0303   20.4983 C   0  0  0  0  0  0  0  0  0  0  0  0
   29.0154   15.7800   21.8113 C   0  0  0  0  0  0  0  0  0  0  0  0
   30.3803   15.4810   22.4308 C   0  0  0  0  0  0  0  0  0  0  0  0
   31.5154   16.1097   21.6303 C   0  0  0  0  0  0  0  0  0  0  0  0
   31.5198   17.6001   21.7076 N   0  0  0  0  0  0  0  0  0  0  0  0
   28.1494   15.3757   17.4054 O   0  0  0  0  0  0  0  0  0  0  0  0
  2  1  1  1  0  0  0
  2  3  1  0  0  0  0
  2  5  1  0  0  0  0
  3  4  1  0  0  0  0
  3 10  1  0  0  0  0
  5  6  1  0  0  0  0
  6  7  1  0  0  0  0
  7  8  1  0  0  0  0
  8  9  1  0  0  0  0
M  END
>  <CHROM.1>
-27.18105618,-64.52958532,-173.03177093,70.14790176,68.38457952,28.77873488
15.42055191,20.17134414,2.42356659,-0.42900796,-1.59845898

>  <Name>
ligand

>  <RI>
0

>  <Rbt.Current_Directory>
/home/itssahil/PROJECTS/Mol_Feturizer/New_Systems/rnas/3DJ2

>  <Rbt.Executable>
rbdock ($Id: //depot/dev/client3/rdock/2013.1/src/exe/rbdock.cxx#4 $)

>  <Rbt.Library>
libRbt.so (2013.1, Build901 2013/11/27)

>  <Rbt.Parameter_File>
/export/apps/rDock/src/rDock_2013.1_src/data/scripts/dock_solv.prm

>  <Rbt.Receptor>
prm/pocket_docking_4.prm

>  <SCORE>
-8.84114

>  <SCORE.INTER>
-8.67865

>  <SCORE.INTER.CONST>
1

>  <SCORE.INTER.POLAR>
0

>  <SCORE.INTER.ROT>
5

>  <SCORE.INTER.SOLV>
15.7318

>  <SCORE.INTER.VDW>
-17.963

>  <SCORE.INTER.norm>
-0.867865

>  <SCORE.INTRA>
-0.162484

>  <SCORE.INTRA.DIHEDRAL>
-1.7319

>  <SCORE.INTRA.DIHEDRAL.0>
4.28128

>  <SCORE.INTRA.POLAR>
0

>  <SCORE.INTRA.POLAR.0>
0

>  <SCORE.INTRA.REPUL>
0

>  <SCORE.INTRA.REPUL.0>
0

>  <SCORE.INTRA.SOLV>
0.750071

>  <SCORE.INTRA.SOLV.lig_0>
-32.3374

>  <SCORE.INTRA.VDW>
0.328431

>  <SCORE.INTRA.VDW.0>
-0.659551

>  <SCORE.INTRA.norm>
-0.0162484

>  <SCORE.RESTR>
0

>  <SCORE.RESTR.CAVITY>
0

>  <SCORE.RESTR.norm>
0

>  <SCORE.SYSTEM>
0

>  <SCORE.SYSTEM.CONST>
0

>  <SCORE.SYSTEM.DIHEDRAL>
0

>  <SCORE.SYSTEM.SOLV>
0

>  <SCORE.SYSTEM.norm>
0

>  <SCORE.heavy>
10

>  <SCORE.norm>
-0.884114

>  <RMSD>
5.528

$$$$
ligand
 OpenBabel11021811473D
libRbt.so/2013.1/901 2013/11/27
 10  9  0  0  0  0  0  0  0  0999 V2000
   27.1180   14.7112   20.7435 N   0  0  0  0  0  0  0  0  0  0  0  0
   27.5602   15.6575   19.6813 C   0  0  2  0  0  0  0  0  0  0  0  0
   27.7032   14.9724   18.3221 C   0  0  0  0  0  0  0  0  0  0  0  0
   27.2247   13.8555   18.0997 O   0  0  0  0  0  0  0  0  0  0  0  0
   28.8592   16.3601   20.0847 C   0  0  0  0  0  0  0  0  0  0  0  0
   30.0158   15.4146   20.3808 C   0  0  0  0  0  0  0  0  0  0  0  0
   31.2974   16.1903   20.6838 C   0  0  0  0  0  0  0  0  0  0  0  0
   31.2208   16.9080   22.0267 C   0  0  0  0  0  0  0  0  0  0  0  0
   32.4285   17.7387   22.3070 N   0  0  0  0  0  0  0  0  0  0  0  0
   28.2857   15.5352   17.3975 O   0  0  0  0  0  0  0  0  0  0  0  0
  2  1  1  1  0  0  0
  2  3  1  0  0  0  0
  2  5  1  0  0  0  0
  3  4  1  0  0  0  0
  3 10  1  0  0  0  0
  5  6  1  0  0  0  0
  6  7  1  0  0  0  0
  7  8  1  0  0  0  0
  8  9  1  0  0  0  0
M  END
>  <CHROM.1>
14.64914972,57.84793949,176.20463364,70.23068681,-176.55487125,29.16406828
15.71658667,19.93575260,2.49175108,-0.44636150,-1.66007671

>  <Name>
ligand

>  <RI>
0

>  <Rbt.Current_Directory>
/home/itssahil/PROJECTS/Mol_Feturizer/New_Systems/rnas/3DJ2

>  <Rbt.Executable>
rbdock ($Id: //depot/dev/client3/rdock/2013.1/src/exe/rbdock.cxx#4 $)

>  <Rbt.Library>
libRbt.so (2013.1, Build901 2013/11/27)

>  <Rbt.Parameter_File>
/export/apps/rDock/src/rDock_2013.1_src/data/scripts/dock_solv.prm

>  <Rbt.Receptor>
prm/pocket_docking_7.prm

>  <SCORE>
-9.10733

>  <SCORE.INTER>
-8.64831

>  <SCORE.INTER.CONST>
1

>  <SCORE.INTER.POLAR>
0

>  <SCORE.INTER.ROT>
5

>  <SCORE.INTER.SOLV>
14.0987

>  <SCORE.INTER.VDW>
-17.3984

>  <SCORE.INTER.norm>
-0.864831

>  <SCORE.INTRA>
-0.459013

>  <SCORE.INTRA.DIHEDRAL>
-2.23085

>  <SCORE.INTRA.DIHEDRAL.0>
4.28128

>  <SCORE.INTRA.POLAR>
0

>  <SCORE.INTRA.POLAR.0>
0

>  <SCORE.INTRA.REPUL>
0

>  <SCORE.INTRA.REPUL.0>
0

>  <SCORE.INTRA.SOLV>
-0.204876

>  <SCORE.INTRA.SOLV.lig_0>
-32.3374

>  <SCORE.INTRA.VDW>
0.758852

>  <SCORE.INTRA.VDW.0>
-0.659551

>  <SCORE.INTRA.norm>
-0.0459013

>  <SCORE.RESTR>
0

>  <SCORE.RESTR.CAVITY>
0

>  <SCORE.RESTR.norm>
0

>  <SCORE.SYSTEM>
0

>  <SCORE.SYSTEM.CONST>
0

>  <SCORE.SYSTEM.DIHEDRAL>
0

>  <SCORE.SYSTEM.SOLV>
0

>  <SCORE.SYSTEM.norm>
0

>  <SCORE.heavy>
10

>  <SCORE.norm>
-0.910733

>  <RMSD>
5.530

$$$$
ligand
 OpenBabel11021811473D
libRbt.so/2013.1/901 2013/11/27
 10  9  0  0  0  0  0  0  0  0999 V2000
   27.9155   17.0825   19.6469 N   0  0  0  0  0  0  0  0  0  0  0  0
   28.4777   15.7275   19.3877 C   0  0  2  0  0  0  0  0  0  0  0  0
   27.3899   14.6556   19.3182 C   0  0  0  0  0  0  0  0  0  0  0  0
   27.3221   13.8532   18.3814 O   0  0  0  0  0  0  0  0  0  0  0  0
   29.5391   15.3699   20.4315 C   0  0  0  0  0  0  0  0  0  0  0  0
   30.6677   16.3856   20.5492 C   0  0  0  0  0  0  0  0  0  0  0  0
   31.6348   16.0067   21.6704 C   0  0  0  0  0  0  0  0  0  0  0  0
   32.7506   17.0338   21.8270 C   0  0  0  0  0  0  0  0  0  0  0  0
   32.2595   18.3457   22.3418 N   0  0  0  0  0  0  0  0  0  0  0  0
   26.5590   14.5501   20.2179 O   0  0  0  0  0  0  0  0  0  0  0  0
  2  1  1  1  0  0  0
  2  3  1  0  0  0  0
  2  5  1  0  0  0  0
  3  4  1  0  0  0  0
  3 10  1  0  0  0  0
  5  6  1  0  0  0  0
  6  7  1  0  0  0  0
  7  8  1  0  0  0  0
  8  9  1  0  0  0  0
M  END
>  <CHROM.1>
129.74364961,-55.19701640,176.28688881,-178.45114338,68.28734527,29.41761177
15.87206370,20.36909465,2.61034362,0.37515113,-2.91658379

>  <Name>
ligand

>  <RI>
0

>  <Rbt.Current_Directory>
/home/itssahil/PROJECTS/Mol_Feturizer/New_Systems/rnas/3DJ2

>  <Rbt.Executable>
rbdock ($Id: //depot/dev/client3/rdock/2013.1/src/exe/rbdock.cxx#4 $)

>  <Rbt.Library>
libRbt.so (2013.1, Build901 2013/11/27)

>  <Rbt.Parameter_File>
/export/apps/rDock/src/rDock_2013.1_src/data/scripts/dock_solv.prm

>  <Rbt.Receptor>
prm/pocket_docking_7.prm

>  <SCORE>
-6.75216

>  <SCORE.INTER>
-5.72117

>  <SCORE.INTER.CONST>
1

>  <SCORE.INTER.POLAR>
0

>  <SCORE.INTER.ROT>
5

>  <SCORE.INTER.SOLV>
17.2566

>  <SCORE.INTER.VDW>
-16.4996

>  <SCORE.INTER.norm>
-0.572117

>  <SCORE.INTRA>
-1.03099

>  <SCORE.INTRA.DIHEDRAL>
-2.37695

>  <SCORE.INTRA.DIHEDRAL.0>
4.28128

>  <SCORE.INTRA.POLAR>
0

>  <SCORE.INTRA.POLAR.0>
0

>  <SCORE.INTRA.REPUL>
0

>  <SCORE.INTRA.REPUL.0>
0

>  <SCORE.INTRA.SOLV>
0.460948

>  <SCORE.INTRA.SOLV.lig_0>
-32.3374

>  <SCORE.INTRA.VDW>
-0.0729899

>  <SCORE.INTRA.VDW.0>
-0.659551

>  <SCORE.INTRA.norm>
-0.103099

>  <SCORE.RESTR>
0

>  <SCORE.RESTR.CAVITY>
0

>  <SCORE.RESTR.norm>
0

>  <SCORE.SYSTEM>
0

>  <SCORE.SYSTEM.CONST>
0

>  <SCORE.SYSTEM.DIHEDRAL>
0

>  <SCORE.SYSTEM.SOLV>
0

>  <SCORE.SYSTEM.norm>
0

>  <SCORE.heavy>
10

>  <SCORE.norm>
-0.675216

>  <RMSD>
5.531

$$$$
ligand
 OpenBabel11021811473D
libRbt.so/2013.1/901 2013/11/27
 10  9  0  0  0  0  0  0  0  0999 V2000
   26.3786   15.6751   19.9052 N   0  0  0  0  0  0  0  0  0  0  0  0
   27.7606   15.1543   19.7097 C   0  0  2  0  0  0  0  0  0  0  0  0
   27.8555   14.2058   18.5145 C   0  0  0  0  0  0  0  0  0  0  0  0
   28.8936   14.0866   17.8557 O   0  0  0  0  0  0  0  0  0  0  0  0
   28.2762   14.4863   20.9870 C   0  0  0  0  0  0  0  0  0  0  0  0
   28.9217   15.4458   21.9779 C   0  0  0  0  0  0  0  0  0  0  0  0
   30.2147   16.0334   21.4130 C   0  0  0  0  0  0  0  0  0  0  0  0
   30.8798   16.9892   22.3971 C   0  0  0  0  0  0  0  0  0  0  0  0
   32.1559   17.5599   21.8747 N   0  0  0  0  0  0  0  0  0  0  0  0
   26.8943   13.5115   18.1907 O   0  0  0  0  0  0  0  0  0  0  0  0
  2  1  1  1  0  0  0
  2  3  1  0  0  0  0
  2  5  1  0  0  0  0
  3  4  1  0  0  0  0
  3 10  1  0  0  0  0
  5  6  1  0  0  0  0
  6  7  1  0  0  0  0
  7  8  1  0  0  0  0
  8  9  1  0  0  0  0
M  END
>  <CHROM.1>
150.46459326,-86.06874572,-66.50021205,-179.58206288,179.13574453,28.81840099
15.28902959,20.24856540,2.28795513,-0.23353541,-2.03900102

>  <Name>
ligand

>  <RI>
0

>  <Rbt.Current_Directory>
/home/itssahil/PROJECTS/Mol_Feturizer/New_Systems/rnas/3DJ2

>  <Rbt.Executable>
rbdock ($Id: //depot/dev/client3/rdock/2013.1/src/exe/rbdock.cxx#4 $)

>  <Rbt.Library>
libRbt.so (2013.1, Build901 2013/11/27)

>  <Rbt.Parameter_File>
/export/apps/rDock/src/rDock_2013.1_src/data/scripts/dock_solv.prm

>  <Rbt.Receptor>
prm/pocket_docking_6.prm

>  <SCORE>
-8.11903

>  <SCORE.INTER>
-7.6571

>  <SCORE.INTER.CONST>
1

>  <SCORE.INTER.POLAR>
0

>  <SCORE.INTER.ROT>
5

>  <SCORE.INTER.SOLV>
15.7369

>  <SCORE.INTER.VDW>
-17.2837

>  <SCORE.INTER.norm>
-0.76571

>  <SCORE.INTRA>
-0.461928

>  <SCORE.INTRA.DIHEDRAL>
-0.305173

>  <SCORE.INTRA.DIHEDRAL.0>
4.28128

>  <SCORE.INTRA.POLAR>
0

>  <SCORE.INTRA.POLAR.0>
0

>  <SCORE.INTRA.REPUL>
0

>  <SCORE.INTRA.REPUL.0>
0

>  <SCORE.INTRA.SOLV>
-0.416216

>  <SCORE.INTRA.SOLV.lig_0>
-32.3374

>  <SCORE.INTRA.VDW>
-0.101233

>  <SCORE.INTRA.VDW.0>
-0.659551

>  <SCORE.INTRA.norm>
-0.0461928

>  <SCORE.RESTR>
0

>  <SCORE.RESTR.CAVITY>
0

>  <SCORE.RESTR.norm>
0

>  <SCORE.SYSTEM>
0

>  <SCORE.SYSTEM.CONST>
0

>  <SCORE.SYSTEM.DIHEDRAL>
0

>  <SCORE.SYSTEM.SOLV>
0

>  <SCORE.SYSTEM.norm>
0

>  <SCORE.heavy>
10

>  <SCORE.norm>
-0.811903

>  <RMSD>
5.534

$$$$
ligand
 OpenBabel11021811473D
libRbt.so/2013.1/901 2013/11/27
 10  9  0  0  0  0  0  0  0  0999 V2000
   25.7165   14.9974   20.5833 N   0  0  0  0  0  0  0  0  0  0  0  0
   27.0561   15.4991   20.1674 C   0  0  2  0  0  0  0  0  0  0  0  0
   27.4831   14.9440   18.8084 C   0  0  0  0  0  0  0  0  0  0  0  0
   27.1956   13.7970   18.4514 O   0  0  0  0  0  0  0  0  0  0  0  0
   28.1064   15.2004   21.2404 C   0  0  0  0  0  0  0  0  0  0  0  0
   29.4126   15.9640   21.0667 C   0  0  0  0  0  0  0  0  0  0  0  0
   30.4010   15.6252   22.1822 C   0  0  0  0  0  0  0  0  0  0  0  0
   31.6457   16.5035   22.1220 C   0  0  0  0  0  0  0  0  0  0  0  0
   32.4378   16.2975   20.8740 N   0  0  0  0  0  0  0  0  0  0  0  0
   28.1114   15.6445   18.0174 O   0  0  0  0  0  0  0  0  0  0  0  0
  2  1  1  1  0  0  0
  2  3  1  0  0  0  0
  2  5  1  0  0  0  0
  3  4  1  0  0  0  0
  3 10  1  0  0  0  0
  5  6  1  0  0  0  0
  6  7  1  0  0  0  0
  7  8  1  0  0  0  0
  8  9  1  0  0  0  0
M  END
>  <CHROM.1>
-35.37881661,-165.73597192,179.34657007,-173.05910718,-63.64157304,28.75603233
15.43371255,20.31538706,2.62904105,-0.22725568,-1.71054197

>  <Name>
ligand

>  <RI>
0

>  <Rbt.Current_Directory>
/home/itssahil/PROJECTS/Mol_Feturizer/New_Systems/rnas/3DJ2

>  <Rbt.Executable>
rbdock ($Id: //depot/dev/client3/rdock/2013.1/src/exe/rbdock.cxx#4 $)

>  <Rbt.Library>
libRbt.so (2013.1, Build901 2013/11/27)

>  <Rbt.Parameter_File>
/export/apps/rDock/src/rDock_2013.1_src/data/scripts/dock_solv.prm

>  <Rbt.Receptor>
prm/pocket_docking_5.prm

>  <SCORE>
-9.85373

>  <SCORE.INTER>
-8.54359

>  <SCORE.INTER.CONST>
1

>  <SCORE.INTER.POLAR>
0

>  <SCORE.INTER.ROT>
5

>  <SCORE.INTER.SOLV>
18.0874

>  <SCORE.INTER.VDW>
-18.6582

>  <SCORE.INTER.norm>
-0.854359

>  <SCORE.INTRA>
-1.31014

>  <SCORE.INTRA.DIHEDRAL>
-1.73406

>  <SCORE.INTRA.DIHEDRAL.0>
4.28128

>  <SCORE.INTRA.POLAR>
0

>  <SCORE.INTRA.POLAR.0>
0

>  <SCORE.INTRA.REPUL>
0

>  <SCORE.INTRA.REPUL.0>
0

>  <SCORE.INTRA.SOLV>
-0.459519

>  <SCORE.INTRA.SOLV.lig_0>
-32.3374

>  <SCORE.INTRA.VDW>
-0.213352

>  <SCORE.INTRA.VDW.0>
-0.659551

>  <SCORE.INTRA.norm>
-0.131014

>  <SCORE.RESTR>
0

>  <SCORE.RESTR.CAVITY>
0

>  <SCORE.RESTR.norm>
0

>  <SCORE.SYSTEM>
0

>  <SCORE.SYSTEM.CONST>
0

>  <SCORE.SYSTEM.DIHEDRAL>
0

>  <SCORE.SYSTEM.SOLV>
0

>  <SCORE.SYSTEM.norm>
0

>  <SCORE.heavy>
10

>  <SCORE.norm>
-0.985373

>  <RMSD>
5.536

$$$$
ligand
 OpenBabel11021811473D
libRbt.so/2013.1/901 2013/11/27
 10  9  0  0  0  0  0  0  0  0999 V2000
   26.3078   14.9563   20.4858 N   0  0  0  0  0  0  0  0  0  0  0  0
   27.5216   15.3674   19.7260 C   0  0  2  0  0  0  0  0  0  0  0  0
   27.5449   14.7797   18.3149 C   0  0  0  0  0  0  0  0  0  0  0  0
   26.9716   13.7210   18.0384 O   0  0  0  0  0  0  0  0  0  0  0  0
   28.7943   15.0052   20.4960 C   0  0  0  0  0  0  0  0  0  0  0  0
   28.9679   15.7598   21.8075 C   0  0  0  0  0  0  0  0  0  0  0  0
   30.3300   15.4658   22.4356 C   0  0  0  0  0  0  0  0  0  0  0  0
   31.4690   16.0847   21.6330 C   0  0  0  0  0  0  0  0  0  0  0  0
   31.4485   17.5768   21.6579 N   0  0  0  0  0  0  0  0  0  0  0  0
   28.1232   15.3675   17.4033 O   0  0  0  0  0  0  0  0  0  0  0  0
  2  1  1  1  0  0  0
  2  3  1  0  0  0  0
  2  5  1  0  0  0  0
  3  4  1  0  0  0  0
  3 10  1  0  0  0  0
  5  6  1  0  0  0  0
  6  7  1  0  0  0  0
  7  8  1  0  0  0  0
  8  9  1  0  0  0  0
M  END
>  <CHROM.1>
-27.06177265,-65.34157233,-173.47857153,69.67839495,66.51014346,28.74021171
15.39329766,20.16060428,2.42313735,-0.43894396,-1.59146113

>  <Name>
ligand

>  <RI>
0

>  <Rbt.Current_Directory>
/home/itssahil/PROJECTS/Mol_Feturizer/New_Systems/rnas/3DJ2

>  <Rbt.Executable>
rbdock ($Id: //depot/dev/client3/rdock/2013.1/src/exe/rbdock.cxx#4 $)

>  <Rbt.Library>
libRbt.so (2013.1, Build901 2013/11/27)

>  <Rbt.Parameter_File>
/export/apps/rDock/src/rDock_2013.1_src/data/scripts/dock_solv.prm

>  <Rbt.Receptor>
prm/blind_docking_60.prm

>  <SCORE>
-8.85066

>  <SCORE.INTER>
-8.66027

>  <SCORE.INTER.CONST>
1

>  <SCORE.INTER.POLAR>
0

>  <SCORE.INTER.ROT>
5

>  <SCORE.INTER.SOLV>
15.8504

>  <SCORE.INTER.VDW>
-17.9903

>  <SCORE.INTER.norm>
-0.866027

>  <SCORE.INTRA>
-0.190384

>  <SCORE.INTRA.DIHEDRAL>
-1.86383

>  <SCORE.INTRA.DIHEDRAL.0>
4.28128

>  <SCORE.INTRA.POLAR>
0

>  <SCORE.INTRA.POLAR.0>
0

>  <SCORE.INTRA.REPUL>
0

>  <SCORE.INTRA.REPUL.0>
0

>  <SCORE.INTRA.SOLV>
0.785114

>  <SCORE.INTRA.SOLV.lig_0>
-32.3374

>  <SCORE.INTRA.VDW>
0.348973

>  <SCORE.INTRA.VDW.0>
-0.659551

>  <SCORE.INTRA.norm>
-0.0190384

>  <SCORE.RESTR>
0

>  <SCORE.RESTR.CAVITY>
0

>  <SCORE.RESTR.norm>
0

>  <SCORE.SYSTEM>
0

>  <SCORE.SYSTEM.CONST>
0

>  <SCORE.SYSTEM.DIHEDRAL>
0

>  <SCORE.SYSTEM.SOLV>
0

>  <SCORE.SYSTEM.norm>
0

>  <SCORE.heavy>
10

>  <SCORE.norm>
-0.885066

>  <RMSD>
5.537

$$$$
ligand
 OpenBabel11021811473D
libRbt.so/2013.1/901 2013/11/27
 10  9  0  0  0  0  0  0  0  0999 V2000
   25.6431   15.1246   20.5690 N   0  0  0  0  0  0  0  0  0  0  0  0
   27.0735   15.3699   20.2326 C   0  0  2  0  0  0  0  0  0  0  0  0
   27.4561   14.7786   18.8757 C   0  0  0  0  0  0  0  0  0  0  0  0
   27.0656   13.6635   18.5152 O   0  0  0  0  0  0  0  0  0  0  0  0
   27.9907   14.8470   21.3411 C   0  0  0  0  0  0  0  0  0  0  0  0
   29.4691   15.1370   21.1184 C   0  0  0  0  0  0  0  0  0  0  0  0
   29.7348   16.6416   21.0762 C   0  0  0  0  0  0  0  0  0  0  0  0
   31.2079   16.9498   20.8322 C   0  0  0  0  0  0  0  0  0  0  0  0
   32.0901   16.4592   21.9314 N   0  0  0  0  0  0  0  0  0  0  0  0
   28.1522   15.4182   18.0899 O   0  0  0  0  0  0  0  0  0  0  0  0
  2  1  1  1  0  0  0
  2  3  1  0  0  0  0
  2  5  1  0  0  0  0
  3  4  1  0  0  0  0
  3 10  1  0  0  0  0
  5  6  1  0  0  0  0
  6  7  1  0  0  0  0
  7  8  1  0  0  0  0
  8  9  1  0  0  0  0
M  END
>  <CHROM.1>
-41.81715392,-176.30821115,61.94677540,-179.11853195,-63.29168532,28.58784177
15.42366556,20.22314682,2.64879006,-0.32276731,-1.76083053

>  <Name>
ligand

>  <RI>
0

>  <Rbt.Current_Directory>
/home/itssahil/PROJECTS/Mol_Feturizer/New_Systems/rnas/3DJ2

>  <Rbt.Executable>
rbdock ($Id: //depot/dev/client3/rdock/2013.1/src/exe/rbdock.cxx#4 $)

>  <Rbt.Library>
libRbt.so (2013.1, Build901 2013/11/27)

>  <Rbt.Parameter_File>
/export/apps/rDock/src/rDock_2013.1_src/data/scripts/dock_solv.prm

>  <Rbt.Receptor>
prm/pocket_docking_5.prm

>  <SCORE>
-9.21953

>  <SCORE.INTER>
-7.91641

>  <SCORE.INTER.CONST>
1

>  <SCORE.INTER.POLAR>
0

>  <SCORE.INTER.ROT>
5

>  <SCORE.INTER.SOLV>
17.4618

>  <SCORE.INTER.VDW>
-18.0315

>  <SCORE.INTER.norm>
-0.791641

>  <SCORE.INTRA>
-1.30312

>  <SCORE.INTRA.DIHEDRAL>
-2.61634

>  <SCORE.INTRA.DIHEDRAL.0>
4.28128

>  <SCORE.INTRA.POLAR>
0

>  <SCORE.INTRA.POLAR.0>
0

>  <SCORE.INTRA.REPUL>
0

>  <SCORE.INTRA.REPUL.0>
0

>  <SCORE.INTRA.SOLV>
-0.179582

>  <SCORE.INTRA.SOLV.lig_0>
-32.3374

>  <SCORE.INTRA.VDW>
0.0948377

>  <SCORE.INTRA.VDW.0>
-0.659551

>  <SCORE.INTRA.norm>
-0.130312

>  <SCORE.RESTR>
0

>  <SCORE.RESTR.CAVITY>
0

>  <SCORE.RESTR.norm>
0

>  <SCORE.SYSTEM>
0

>  <SCORE.SYSTEM.CONST>
0

>  <SCORE.SYSTEM.DIHEDRAL>
0

>  <SCORE.SYSTEM.SOLV>
0

>  <SCORE.SYSTEM.norm>
0

>  <SCORE.heavy>
10

>  <SCORE.norm>
-0.921953

>  <RMSD>
5.539

$$$$
ligand
 OpenBabel11021811473D
libRbt.so/2013.1/901 2013/11/27
 10  9  0  0  0  0  0  0  0  0999 V2000
   27.1875   14.3211   18.6577 N   0  0  0  0  0  0  0  0  0  0  0  0
   27.8304   14.5351   19.9844 C   0  0  2  0  0  0  0  0  0  0  0  0
   26.8111   14.8823   21.0697 C   0  0  0  0  0  0  0  0  0  0  0  0
   25.6031   14.9707   20.8273 O   0  0  0  0  0  0  0  0  0  0  0  0
   28.9247   15.6019   19.8932 C   0  0  0  0  0  0  0  0  0  0  0  0
   29.8776   15.6236   21.0809 C   0  0  0  0  0  0  0  0  0  0  0  0
   30.9277   16.7231   20.9244 C   0  0  0  0  0  0  0  0  0  0  0  0
   31.9133   16.7345   22.0875 C   0  0  0  0  0  0  0  0  0  0  0  0
   32.9160   17.8350   21.9837 N   0  0  0  0  0  0  0  0  0  0  0  0
   27.1722   15.0610   22.2310 O   0  0  0  0  0  0  0  0  0  0  0  0
  2  1  1  6  0  0  0
  2  3  1  0  0  0  0
  2  5  1  0  0  0  0
  3  4  1  0  0  0  0
  3 10  1  0  0  0  0
  5  6  1  0  0  0  0
  6  7  1  0  0  0  0
  7  8  1  0  0  0  0
  8  9  1  0  0  0  0
M  END
>  <CHROM.1>
-0.32123883,-164.35438135,-179.30781510,-178.46771701,-177.71930715,28.88317600
15.63004967,20.89601844,-2.82473283,0.34839557,1.30354389

>  <Name>
ligand

>  <RI>
0

>  <Rbt.Current_Directory>
/home/itssahil/PROJECTS/Mol_Feturizer/New_Systems/rnas/3DJ2

>  <Rbt.Executable>
rbdock ($Id: //depot/dev/client3/rdock/2013.1/src/exe/rbdock.cxx#4 $)

>  <Rbt.Library>
libRbt.so (2013.1, Build901 2013/11/27)

>  <Rbt.Parameter_File>
/export/apps/rDock/src/rDock_2013.1_src/data/scripts/dock_solv.prm

>  <Rbt.Receptor>
prm/pocket_docking_7.prm

>  <SCORE>
-10.2733

>  <SCORE.INTER>
-8.75061

>  <SCORE.INTER.CONST>
1

>  <SCORE.INTER.POLAR>
0

>  <SCORE.INTER.ROT>
5

>  <SCORE.INTER.SOLV>
15.8008

>  <SCORE.INTER.VDW>
-18.034

>  <SCORE.INTER.norm>
-0.875061

>  <SCORE.INTRA>
-1.5227

>  <SCORE.INTRA.DIHEDRAL>
-1.85218

>  <SCORE.INTRA.DIHEDRAL.0>
4.28128

>  <SCORE.INTRA.POLAR>
0

>  <SCORE.INTRA.POLAR.0>
0

>  <SCORE.INTRA.REPUL>
0

>  <SCORE.INTRA.REPUL.0>
0

>  <SCORE.INTRA.SOLV>
-1.3152

>  <SCORE.INTRA.SOLV.lig_0>
-32.3374

>  <SCORE.INTRA.VDW>
0.0609838

>  <SCORE.INTRA.VDW.0>
-0.659551

>  <SCORE.INTRA.norm>
-0.15227

>  <SCORE.RESTR>
0

>  <SCORE.RESTR.CAVITY>
0

>  <SCORE.RESTR.norm>
0

>  <SCORE.SYSTEM>
0

>  <SCORE.SYSTEM.CONST>
0

>  <SCORE.SYSTEM.DIHEDRAL>
0

>  <SCORE.SYSTEM.SOLV>
0

>  <SCORE.SYSTEM.norm>
0

>  <SCORE.heavy>
10

>  <SCORE.norm>
-1.02733

>  <RMSD>
5.539

$$$$
ligand
 OpenBabel11021811473D
libRbt.so/2013.1/901 2013/11/27
 10  9  0  0  0  0  0  0  0  0999 V2000
   27.2058   14.3052   18.6286 N   0  0  0  0  0  0  0  0  0  0  0  0
   27.8382   14.5240   19.9596 C   0  0  2  0  0  0  0  0  0  0  0  0
   26.8095   14.8681   21.0369 C   0  0  0  0  0  0  0  0  0  0  0  0
   27.1318   15.0407   22.2168 O   0  0  0  0  0  0  0  0  0  0  0  0
   28.9282   15.5956   19.8748 C   0  0  0  0  0  0  0  0  0  0  0  0
   29.8808   15.6142   21.0629 C   0  0  0  0  0  0  0  0  0  0  0  0
   30.9166   16.7291   20.9208 C   0  0  0  0  0  0  0  0  0  0  0  0
   31.9038   16.7362   22.0826 C   0  0  0  0  0  0  0  0  0  0  0  0
   32.8822   17.8603   22.0018 N   0  0  0  0  0  0  0  0  0  0  0  0
   25.6233   15.0065   20.7459 O   0  0  0  0  0  0  0  0  0  0  0  0
  2  1  1  6  0  0  0
  2  3  1  0  0  0  0
  2  5  1  0  0  0  0
  3  4  1  0  0  0  0
  3 10  1  0  0  0  0
  5  6  1  0  0  0  0
  6  7  1  0  0  0  0
  7  8  1  0  0  0  0
  8  9  1  0  0  0  0
M  END
>  <CHROM.1>
177.49200528,-163.78477956,-178.64991563,-178.33674457,-177.03603129,28.87855006
15.62968068,20.87455020,-2.81336846,0.34763974,1.29673824

>  <Name>
ligand

>  <RI>
0

>  <Rbt.Current_Directory>
/home/itssahil/PROJECTS/Mol_Feturizer/New_Systems/rnas/3DJ2

>  <Rbt.Executable>
rbdock ($Id: //depot/dev/client3/rdock/2013.1/src/exe/rbdock.cxx#4 $)

>  <Rbt.Library>
libRbt.so (2013.1, Build901 2013/11/27)

>  <Rbt.Parameter_File>
/export/apps/rDock/src/rDock_2013.1_src/data/scripts/dock_solv.prm

>  <Rbt.Receptor>
prm/pocket_docking_3.prm

>  <SCORE>
-10.3463

>  <SCORE.INTER>
-8.79503

>  <SCORE.INTER.CONST>
1

>  <SCORE.INTER.POLAR>
0

>  <SCORE.INTER.ROT>
5

>  <SCORE.INTER.SOLV>
15.7819

>  <SCORE.INTER.VDW>
-18.0573

>  <SCORE.INTER.norm>
-0.879503

>  <SCORE.INTRA>
-1.55126

>  <SCORE.INTRA.DIHEDRAL>
-1.7837

>  <SCORE.INTRA.DIHEDRAL.0>
4.28128

>  <SCORE.INTRA.POLAR>
0

>  <SCORE.INTRA.POLAR.0>
0

>  <SCORE.INTRA.REPUL>
0

>  <SCORE.INTRA.REPUL.0>
0

>  <SCORE.INTRA.SOLV>
-1.30599

>  <SCORE.INTRA.SOLV.lig_0>
-32.3374

>  <SCORE.INTRA.VDW>
-0.00641341

>  <SCORE.INTRA.VDW.0>
-0.659551

>  <SCORE.INTRA.norm>
-0.155126

>  <SCORE.RESTR>
0

>  <SCORE.RESTR.CAVITY>
0

>  <SCORE.RESTR.norm>
0

>  <SCORE.SYSTEM>
0

>  <SCORE.SYSTEM.CONST>
0

>  <SCORE.SYSTEM.DIHEDRAL>
0

>  <SCORE.SYSTEM.SOLV>
0

>  <SCORE.SYSTEM.norm>
0

>  <SCORE.heavy>
10

>  <SCORE.norm>
-1.03463

>  <RMSD>
5.541

$$$$
ligand
 OpenBabel11021811473D
libRbt.so/2013.1/901 2013/11/27
 10  9  0  0  0  0  0  0  0  0999 V2000
   27.1771   14.3120   18.6676 N   0  0  0  0  0  0  0  0  0  0  0  0
   27.8266   14.5261   19.9910 C   0  0  2  0  0  0  0  0  0  0  0  0
   26.8115   14.8609   21.0840 C   0  0  0  0  0  0  0  0  0  0  0  0
   25.6033   14.9580   20.8460 O   0  0  0  0  0  0  0  0  0  0  0  0
   28.9117   15.6020   19.8970 C   0  0  0  0  0  0  0  0  0  0  0  0
   29.8801   15.6180   21.0723 C   0  0  0  0  0  0  0  0  0  0  0  0
   30.9174   16.7296   20.9160 C   0  0  0  0  0  0  0  0  0  0  0  0
   31.9153   16.7391   22.0686 C   0  0  0  0  0  0  0  0  0  0  0  0
   32.8981   17.8580   21.9720 N   0  0  0  0  0  0  0  0  0  0  0  0
   27.1761   15.0202   22.2470 O   0  0  0  0  0  0  0  0  0  0  0  0
  2  1  1  6  0  0  0
  2  3  1  0  0  0  0
  2  5  1  0  0  0  0
  3  4  1  0  0  0  0
  3 10  1  0  0  0  0
  5  6  1  0  0  0  0
  6  7  1  0  0  0  0
  7  8  1  0  0  0  0
  8  9  1  0  0  0  0
M  END
>  <CHROM.1>
-1.30755218,-163.78908054,-179.14098390,-178.66786636,-177.20258553,28.87863796
15.62326595,20.89839080,-2.83085548,0.35690503,1.31086731

>  <Name>
ligand

>  <RI>
0

>  <Rbt.Current_Directory>
/home/itssahil/PROJECTS/Mol_Feturizer/New_Systems/rnas/3DJ2

>  <Rbt.Executable>
rbdock ($Id: //depot/dev/client3/rdock/2013.1/src/exe/rbdock.cxx#4 $)

>  <Rbt.Library>
libRbt.so (2013.1, Build901 2013/11/27)

>  <Rbt.Parameter_File>
/export/apps/rDock/src/rDock_2013.1_src/data/scripts/dock_solv.prm

>  <Rbt.Receptor>
prm/pocket_docking_8.prm

>  <SCORE>
-10.2611

>  <SCORE.INTER>
-8.74247

>  <SCORE.INTER.CONST>
1

>  <SCORE.INTER.POLAR>
0

>  <SCORE.INTER.ROT>
5

>  <SCORE.INTER.SOLV>
15.8418

>  <SCORE.INTER.VDW>
-18.0422

>  <SCORE.INTER.norm>
-0.874247

>  <SCORE.INTRA>
-1.51858

>  <SCORE.INTRA.DIHEDRAL>
-1.7795

>  <SCORE.INTRA.DIHEDRAL.0>
4.28128

>  <SCORE.INTRA.POLAR>
0

>  <SCORE.INTRA.POLAR.0>
0

>  <SCORE.INTRA.REPUL>
0

>  <SCORE.INTRA.REPUL.0>
0

>  <SCORE.INTRA.SOLV>
-1.3138

>  <SCORE.INTRA.SOLV.lig_0>
-32.3374

>  <SCORE.INTRA.VDW>
0.0280692

>  <SCORE.INTRA.VDW.0>
-0.659551

>  <SCORE.INTRA.norm>
-0.151858

>  <SCORE.RESTR>
0

>  <SCORE.RESTR.CAVITY>
0

>  <SCORE.RESTR.norm>
0

>  <SCORE.SYSTEM>
0

>  <SCORE.SYSTEM.CONST>
0

>  <SCORE.SYSTEM.DIHEDRAL>
0

>  <SCORE.SYSTEM.SOLV>
0

>  <SCORE.SYSTEM.norm>
0

>  <SCORE.heavy>
10

>  <SCORE.norm>
-1.02611

>  <RMSD>
5.541

$$$$
ligand
 OpenBabel11021811473D
libRbt.so/2013.1/901 2013/11/27
 10  9  0  0  0  0  0  0  0  0999 V2000
   27.1725   14.2345   18.7184 N   0  0  0  0  0  0  0  0  0  0  0  0
   27.8205   14.4809   20.0370 C   0  0  2  0  0  0  0  0  0  0  0  0
   26.8059   14.8590   21.1163 C   0  0  0  0  0  0  0  0  0  0  0  0
   27.1472   15.0978   22.2791 O   0  0  0  0  0  0  0  0  0  0  0  0
   28.9174   15.5418   19.9146 C   0  0  0  0  0  0  0  0  0  0  0  0
   29.8713   15.5949   21.1007 C   0  0  0  0  0  0  0  0  0  0  0  0
   30.9296   16.6807   20.9080 C   0  0  0  0  0  0  0  0  0  0  0  0
   31.9097   16.7295   22.0747 C   0  0  0  0  0  0  0  0  0  0  0  0
   32.9374   17.8008   21.9209 N   0  0  0  0  0  0  0  0  0  0  0  0
   25.6116   14.9589   20.8428 O   0  0  0  0  0  0  0  0  0  0  0  0
  2  1  1  6  0  0  0
  2  3  1  0  0  0  0
  2  5  1  0  0  0  0
  3  4  1  0  0  0  0
  3 10  1  0  0  0  0
  5  6  1  0  0  0  0
  6  7  1  0  0  0  0
  7  8  1  0  0  0  0
  8  9  1  0  0  0  0
M  END
>  <CHROM.1>
179.75186848,-164.57835668,-179.67630335,-178.89256460,-178.88899722,28.87906549
15.60037377,20.91303879,-2.82710133,0.34258496,1.27451569

>  <Name>
ligand

>  <RI>
0

>  <Rbt.Current_Directory>
/home/itssahil/PROJECTS/Mol_Feturizer/New_Systems/rnas/3DJ2

>  <Rbt.Executable>
rbdock ($Id: //depot/dev/client3/rdock/2013.1/src/exe/rbdock.cxx#4 $)

>  <Rbt.Library>
libRbt.so (2013.1, Build901 2013/11/27)

>  <Rbt.Parameter_File>
/export/apps/rDock/src/rDock_2013.1_src/data/scripts/dock_solv.prm

>  <Rbt.Receptor>
prm/pocket_docking_8.prm

>  <SCORE>
-10.3675

>  <SCORE.INTER>
-8.81016

>  <SCORE.INTER.CONST>
1

>  <SCORE.INTER.POLAR>
0

>  <SCORE.INTER.ROT>
5

>  <SCORE.INTER.SOLV>
15.967

>  <SCORE.INTER.VDW>
-18.1291

>  <SCORE.INTER.norm>
-0.881016

>  <SCORE.INTRA>
-1.55739

>  <SCORE.INTRA.DIHEDRAL>
-1.90617

>  <SCORE.INTRA.DIHEDRAL.0>
4.28128

>  <SCORE.INTRA.POLAR>
0

>  <SCORE.INTRA.POLAR.0>
0

>  <SCORE.INTRA.REPUL>
0

>  <SCORE.INTRA.REPUL.0>
0

>  <SCORE.INTRA.SOLV>
-1.30775

>  <SCORE.INTRA.SOLV.lig_0>
-32.3374

>  <SCORE.INTRA.VDW>
0.0495766

>  <SCORE.INTRA.VDW.0>
-0.659551

>  <SCORE.INTRA.norm>
-0.155739

>  <SCORE.RESTR>
0

>  <SCORE.RESTR.CAVITY>
0

>  <SCORE.RESTR.norm>
0

>  <SCORE.SYSTEM>
0

>  <SCORE.SYSTEM.CONST>
0

>  <SCORE.SYSTEM.DIHEDRAL>
0

>  <SCORE.SYSTEM.SOLV>
0

>  <SCORE.SYSTEM.norm>
0

>  <SCORE.heavy>
10

>  <SCORE.norm>
-1.03675

>  <RMSD>
5.541

$$$$
ligand
 OpenBabel11021811473D
libRbt.so/2013.1/901 2013/11/27
 10  9  0  0  0  0  0  0  0  0999 V2000
   27.1819   14.3068   18.6248 N   0  0  0  0  0  0  0  0  0  0  0  0
   27.8201   14.5242   19.9532 C   0  0  2  0  0  0  0  0  0  0  0  0
   26.7975   14.8788   21.0329 C   0  0  0  0  0  0  0  0  0  0  0  0
   27.1232   15.0412   22.2133 O   0  0  0  0  0  0  0  0  0  0  0  0
   28.9180   15.5872   19.8622 C   0  0  0  0  0  0  0  0  0  0  0  0
   29.8495   15.6290   21.0664 C   0  0  0  0  0  0  0  0  0  0  0  0
   30.9028   16.7255   20.9099 C   0  0  0  0  0  0  0  0  0  0  0  0
   31.8672   16.7567   22.0903 C   0  0  0  0  0  0  0  0  0  0  0  0
   32.8681   17.8592   21.9890 N   0  0  0  0  0  0  0  0  0  0  0  0
   25.6133   15.0365   20.7434 O   0  0  0  0  0  0  0  0  0  0  0  0
  2  1  1  6  0  0  0
  2  3  1  0  0  0  0
  2  5  1  0  0  0  0
  3  4  1  0  0  0  0
  3 10  1  0  0  0  0
  5  6  1  0  0  0  0
  6  7  1  0  0  0  0
  7  8  1  0  0  0  0
  8  9  1  0  0  0  0
M  END
>  <CHROM.1>
176.88636334,-165.50324384,-179.19836320,-178.47531812,-177.44073634,28.86085833
15.63646041,20.87006680,-2.81194969,0.34704154,1.29522295

>  <Name>
ligand

>  <RI>
0

>  <Rbt.Current_Directory>
/home/itssahil/PROJECTS/Mol_Feturizer/New_Systems/rnas/3DJ2

>  <Rbt.Executable>
rbdock ($Id: //depot/dev/client3/rdock/2013.1/src/exe/rbdock.cxx#4 $)

>  <Rbt.Library>
libRbt.so (2013.1, Build901 2013/11/27)

>  <Rbt.Parameter_File>
/export/apps/rDock/src/rDock_2013.1_src/data/scripts/dock_solv.prm

>  <Rbt.Receptor>
prm/pocket_docking_6.prm

>  <SCORE>
-10.3222

>  <SCORE.INTER>
-8.70226

>  <SCORE.INTER.CONST>
1

>  <SCORE.INTER.POLAR>
0

>  <SCORE.INTER.ROT>
5

>  <SCORE.INTER.SOLV>
15.8165

>  <SCORE.INTER.VDW>
-18.007

>  <SCORE.INTER.norm>
-0.870226

>  <SCORE.INTRA>
-1.61996

>  <SCORE.INTRA.DIHEDRAL>
-1.98229

>  <SCORE.INTRA.DIHEDRAL.0>
4.28128

>  <SCORE.INTRA.POLAR>
0

>  <SCORE.INTRA.POLAR.0>
0

>  <SCORE.INTRA.REPUL>
0

>  <SCORE.INTRA.REPUL.0>
0

>  <SCORE.INTRA.SOLV>
-1.30956

>  <SCORE.INTRA.SOLV.lig_0>
-32.3374

>  <SCORE.INTRA.VDW>
0.0259648

>  <SCORE.INTRA.VDW.0>
-0.659551

>  <SCORE.INTRA.norm>
-0.161996

>  <SCORE.RESTR>
0

>  <SCORE.RESTR.CAVITY>
0

>  <SCORE.RESTR.norm>
0

>  <SCORE.SYSTEM>
0

>  <SCORE.SYSTEM.CONST>
0

>  <SCORE.SYSTEM.DIHEDRAL>
0

>  <SCORE.SYSTEM.SOLV>
0

>  <SCORE.SYSTEM.norm>
0

>  <SCORE.heavy>
10

>  <SCORE.norm>
-1.03222

>  <RMSD>
5.542

$$$$
ligand
 OpenBabel11021811473D
libRbt.so/2013.1/901 2013/11/27
 10  9  0  0  0  0  0  0  0  0999 V2000
   27.1753   14.3020   18.6284 N   0  0  0  0  0  0  0  0  0  0  0  0
   27.8118   14.5254   19.9567 C   0  0  2  0  0  0  0  0  0  0  0  0
   26.7888   14.8931   21.0316 C   0  0  0  0  0  0  0  0  0  0  0  0
   25.5865   15.0142   20.7753 O   0  0  0  0  0  0  0  0  0  0  0  0
   28.9155   15.5819   19.8605 C   0  0  0  0  0  0  0  0  0  0  0  0
   29.8536   15.6173   21.0598 C   0  0  0  0  0  0  0  0  0  0  0  0
   30.8883   16.7331   20.9168 C   0  0  0  0  0  0  0  0  0  0  0  0
   31.8742   16.7436   22.0796 C   0  0  0  0  0  0  0  0  0  0  0  0
   32.8637   17.8570   21.9875 N   0  0  0  0  0  0  0  0  0  0  0  0
   27.1402   15.0560   22.1982 O   0  0  0  0  0  0  0  0  0  0  0  0
  2  1  1  6  0  0  0
  2  3  1  0  0  0  0
  2  5  1  0  0  0  0
  3  4  1  0  0  0  0
  3 10  1  0  0  0  0
  5  6  1  0  0  0  0
  6  7  1  0  0  0  0
  7  8  1  0  0  0  0
  8  9  1  0  0  0  0
M  END
>  <CHROM.1>
-1.74524582,-164.88744351,-177.59707501,-177.47801012,-177.86672192,28.85653767
15.63400072,20.87118212,-2.81202166,0.34467331,1.28912806

>  <Name>
ligand

>  <RI>
0

>  <Rbt.Current_Directory>
/home/itssahil/PROJECTS/Mol_Feturizer/New_Systems/rnas/3DJ2

>  <Rbt.Executable>
rbdock ($Id: //depot/dev/client3/rdock/2013.1/src/exe/rbdock.cxx#4 $)

>  <Rbt.Library>
libRbt.so (2013.1, Build901 2013/11/27)

>  <Rbt.Parameter_File>
/export/apps/rDock/src/rDock_2013.1_src/data/scripts/dock_solv.prm

>  <Rbt.Receptor>
prm/pocket_docking_3.prm

>  <SCORE>
-10.2857

>  <SCORE.INTER>
-8.74044

>  <SCORE.INTER.CONST>
1

>  <SCORE.INTER.POLAR>
0

>  <SCORE.INTER.ROT>
5

>  <SCORE.INTER.SOLV>
15.8252

>  <SCORE.INTER.VDW>
-18.0353

>  <SCORE.INTER.norm>
-0.874044

>  <SCORE.INTRA>
-1.54521

>  <SCORE.INTRA.DIHEDRAL>
-1.86856

>  <SCORE.INTRA.DIHEDRAL.0>
4.28128

>  <SCORE.INTRA.POLAR>
0

>  <SCORE.INTRA.POLAR.0>
0

>  <SCORE.INTRA.REPUL>
0

>  <SCORE.INTRA.REPUL.0>
0

>  <SCORE.INTRA.SOLV>
-1.3161

>  <SCORE.INTRA.SOLV.lig_0>
-32.3374

>  <SCORE.INTRA.VDW>
0.0471177

>  <SCORE.INTRA.VDW.0>
-0.659551

>  <SCORE.INTRA.norm>
-0.154521

>  <SCORE.RESTR>
0

>  <SCORE.RESTR.CAVITY>
0

>  <SCORE.RESTR.norm>
0

>  <SCORE.SYSTEM>
0

>  <SCORE.SYSTEM.CONST>
0

>  <SCORE.SYSTEM.DIHEDRAL>
0

>  <SCORE.SYSTEM.SOLV>
0

>  <SCORE.SYSTEM.norm>
0

>  <SCORE.heavy>
10

>  <SCORE.norm>
-1.02857

>  <RMSD>
5.543

$$$$
ligand
 OpenBabel11021811473D
libRbt.so/2013.1/901 2013/11/27
 10  9  0  0  0  0  0  0  0  0999 V2000
   27.1602   14.3271   18.6300 N   0  0  0  0  0  0  0  0  0  0  0  0
   27.8097   14.5279   19.9556 C   0  0  2  0  0  0  0  0  0  0  0  0
   26.7959   14.8651   21.0491 C   0  0  0  0  0  0  0  0  0  0  0  0
   27.1355   15.0386   22.2240 O   0  0  0  0  0  0  0  0  0  0  0  0
   28.9040   15.5950   19.8694 C   0  0  0  0  0  0  0  0  0  0  0  0
   29.8411   15.6282   21.0694 C   0  0  0  0  0  0  0  0  0  0  0  0
   30.8948   16.7246   20.9151 C   0  0  0  0  0  0  0  0  0  0  0  0
   31.8680   16.7438   22.0885 C   0  0  0  0  0  0  0  0  0  0  0  0
   32.8888   17.8265   21.9742 N   0  0  0  0  0  0  0  0  0  0  0  0
   25.6045   14.9967   20.7767 O   0  0  0  0  0  0  0  0  0  0  0  0
  2  1  1  6  0  0  0
  2  3  1  0  0  0  0
  2  5  1  0  0  0  0
  3  4  1  0  0  0  0
  3 10  1  0  0  0  0
  5  6  1  0  0  0  0
  6  7  1  0  0  0  0
  7  8  1  0  0  0  0
  8  9  1  0  0  0  0
M  END
>  <CHROM.1>
178.37263977,-165.84598733,-179.48123591,-178.25076962,-178.74305906,28.85710242
15.62890818,20.87704289,-2.82172770,0.35062831,1.31074891

>  <Name>
ligand

>  <RI>
0

>  <Rbt.Current_Directory>
/home/itssahil/PROJECTS/Mol_Feturizer/New_Systems/rnas/3DJ2

>  <Rbt.Executable>
rbdock ($Id: //depot/dev/client3/rdock/2013.1/src/exe/rbdock.cxx#4 $)

>  <Rbt.Library>
libRbt.so (2013.1, Build901 2013/11/27)

>  <Rbt.Parameter_File>
/export/apps/rDock/src/rDock_2013.1_src/data/scripts/dock_solv.prm

>  <Rbt.Receptor>
prm/pocket_docking_6.prm

>  <SCORE>
-10.3096

>  <SCORE.INTER>
-8.69946

>  <SCORE.INTER.CONST>
1

>  <SCORE.INTER.POLAR>
0

>  <SCORE.INTER.ROT>
5

>  <SCORE.INTER.SOLV>
15.8626

>  <SCORE.INTER.VDW>
-18.0205

>  <SCORE.INTER.norm>
-0.869946

>  <SCORE.INTRA>
-1.61012

>  <SCORE.INTRA.DIHEDRAL>
-2.03011

>  <SCORE.INTRA.DIHEDRAL.0>
4.28128

>  <SCORE.INTRA.POLAR>
0

>  <SCORE.INTRA.POLAR.0>
0

>  <SCORE.INTRA.REPUL>
0

>  <SCORE.INTRA.REPUL.0>
0

>  <SCORE.INTRA.SOLV>
-1.31027

>  <SCORE.INTRA.SOLV.lig_0>
-32.3374

>  <SCORE.INTRA.VDW>
0.0600691

>  <SCORE.INTRA.VDW.0>
-0.659551

>  <SCORE.INTRA.norm>
-0.161012

>  <SCORE.RESTR>
0

>  <SCORE.RESTR.CAVITY>
0

>  <SCORE.RESTR.norm>
0

>  <SCORE.SYSTEM>
0

>  <SCORE.SYSTEM.CONST>
0

>  <SCORE.SYSTEM.DIHEDRAL>
0

>  <SCORE.SYSTEM.SOLV>
0

>  <SCORE.SYSTEM.norm>
0

>  <SCORE.heavy>
10

>  <SCORE.norm>
-1.03096

>  <RMSD>
5.544

$$$$
ligand
 OpenBabel11021811473D
libRbt.so/2013.1/901 2013/11/27
 10  9  0  0  0  0  0  0  0  0999 V2000
   27.1875   14.2821   18.6308 N   0  0  0  0  0  0  0  0  0  0  0  0
   27.8153   14.5222   19.9603 C   0  0  2  0  0  0  0  0  0  0  0  0
   26.7851   14.9025   21.0239 C   0  0  0  0  0  0  0  0  0  0  0  0
   25.5904   15.0575   20.7506 O   0  0  0  0  0  0  0  0  0  0  0  0
   28.9191   15.5780   19.8584 C   0  0  0  0  0  0  0  0  0  0  0  0
   29.8457   15.6328   21.0658 C   0  0  0  0  0  0  0  0  0  0  0  0
   30.9122   16.7138   20.8927 C   0  0  0  0  0  0  0  0  0  0  0  0
   31.8857   16.7417   22.0658 C   0  0  0  0  0  0  0  0  0  0  0  0
   32.9105   17.8193   21.9400 N   0  0  0  0  0  0  0  0  0  0  0  0
   27.1221   15.0419   22.1978 O   0  0  0  0  0  0  0  0  0  0  0  0
  2  1  1  6  0  0  0
  2  3  1  0  0  0  0
  2  5  1  0  0  0  0
  3  4  1  0  0  0  0
  3 10  1  0  0  0  0
  5  6  1  0  0  0  0
  6  7  1  0  0  0  0
  7  8  1  0  0  0  0
  8  9  1  0  0  0  0
M  END
>  <CHROM.1>
-3.87806355,-165.13651624,-179.65288035,-177.51999700,-178.14283299,28.86389501
15.63113329,20.86015039,-2.81786468,0.33895310,1.28619748

>  <Name>
ligand

>  <RI>
0

>  <Rbt.Current_Directory>
/home/itssahil/PROJECTS/Mol_Feturizer/New_Systems/rnas/3DJ2

>  <Rbt.Executable>
rbdock ($Id: //depot/dev/client3/rdock/2013.1/src/exe/rbdock.cxx#4 $)

>  <Rbt.Library>
libRbt.so (2013.1, Build901 2013/11/27)

>  <Rbt.Parameter_File>
/export/apps/rDock/src/rDock_2013.1_src/data/scripts/dock_solv.prm

>  <Rbt.Receptor>
prm/pocket_docking_5.prm

>  <SCORE>
-10.2763

>  <SCORE.INTER>
-8.67639

>  <SCORE.INTER.CONST>
1

>  <SCORE.INTER.POLAR>
0

>  <SCORE.INTER.ROT>
5

>  <SCORE.INTER.SOLV>
15.8473

>  <SCORE.INTER.VDW>
-18

>  <SCORE.INTER.norm>
-0.867639

>  <SCORE.INTRA>
-1.59994

>  <SCORE.INTRA.DIHEDRAL>
-1.91784

>  <SCORE.INTRA.DIHEDRAL.0>
4.28128

>  <SCORE.INTRA.POLAR>
0

>  <SCORE.INTRA.POLAR.0>
0

>  <SCORE.INTRA.REPUL>
0

>  <SCORE.INTRA.REPUL.0>
0

>  <SCORE.INTRA.SOLV>
-1.31649

>  <SCORE.INTRA.SOLV.lig_0>
-32.3374

>  <SCORE.INTRA.VDW>
0.0172253

>  <SCORE.INTRA.VDW.0>
-0.659551

>  <SCORE.INTRA.norm>
-0.159994

>  <SCORE.RESTR>
0

>  <SCORE.RESTR.CAVITY>
0

>  <SCORE.RESTR.norm>
0

>  <SCORE.SYSTEM>
0

>  <SCORE.SYSTEM.CONST>
0

>  <SCORE.SYSTEM.DIHEDRAL>
0

>  <SCORE.SYSTEM.SOLV>
0

>  <SCORE.SYSTEM.norm>
0

>  <SCORE.heavy>
10

>  <SCORE.norm>
-1.02763

>  <RMSD>
5.545

$$$$
ligand
 OpenBabel11021811473D
libRbt.so/2013.1/901 2013/11/27
 10  9  0  0  0  0  0  0  0  0999 V2000
   28.6854   16.1019   19.7137 N   0  0  0  0  0  0  0  0  0  0  0  0
   28.1367   15.0944   20.6640 C   0  0  2  0  0  0  0  0  0  0  0  0
   26.6080   15.0902   20.6806 C   0  0  0  0  0  0  0  0  0  0  0  0
   25.9433   15.5927   19.7687 O   0  0  0  0  0  0  0  0  0  0  0  0
   28.7035   15.3072   22.0702 C   0  0  0  0  0  0  0  0  0  0  0  0
   30.2234   15.2495   22.1473 C   0  0  0  0  0  0  0  0  0  0  0  0
   30.8439   16.6030   21.8021 C   0  0  0  0  0  0  0  0  0  0  0  0
   32.3570   16.5965   21.9894 C   0  0  0  0  0  0  0  0  0  0  0  0
   32.9700   17.9415   21.7831 N   0  0  0  0  0  0  0  0  0  0  0  0
   25.9952   14.5578   21.6036 O   0  0  0  0  0  0  0  0  0  0  0  0
  2  1  1  6  0  0  0
  2  3  1  0  0  0  0
  2  5  1  0  0  0  0
  3  4  1  0  0  0  0
  3 10  1  0  0  0  0
  5  6  1  0  0  0  0
  6  7  1  0  0  0  0
  7  8  1  0  0  0  0
  8  9  1  0  0  0  0
M  END
>  <CHROM.1>
18.05442610,-57.67473805,84.47115055,175.13928821,-174.57864932,29.00143769
15.80795174,21.21915278,-3.13549761,0.37725533,2.13860910

>  <Name>
ligand

>  <RI>
0

>  <Rbt.Current_Directory>
/home/itssahil/PROJECTS/Mol_Feturizer/New_Systems/rnas/3DJ2

>  <Rbt.Executable>
rbdock ($Id: //depot/dev/client3/rdock/2013.1/src/exe/rbdock.cxx#4 $)

>  <Rbt.Library>
libRbt.so (2013.1, Build901 2013/11/27)

>  <Rbt.Parameter_File>
/export/apps/rDock/src/rDock_2013.1_src/data/scripts/dock_solv.prm

>  <Rbt.Receptor>
prm/pocket_docking_7.prm

>  <SCORE>
-9.76635

>  <SCORE.INTER>
-10.3786

>  <SCORE.INTER.CONST>
1

>  <SCORE.INTER.POLAR>
0

>  <SCORE.INTER.ROT>
5

>  <SCORE.INTER.SOLV>
12.6402

>  <SCORE.INTER.VDW>
-18.0658

>  <SCORE.INTER.norm>
-1.03786

>  <SCORE.INTRA>
0.612226

>  <SCORE.INTRA.DIHEDRAL>
-0.38391

>  <SCORE.INTRA.DIHEDRAL.0>
4.28128

>  <SCORE.INTRA.POLAR>
0

>  <SCORE.INTRA.POLAR.0>
0

>  <SCORE.INTRA.REPUL>
0

>  <SCORE.INTRA.REPUL.0>
0

>  <SCORE.INTRA.SOLV>
0.853118

>  <SCORE.INTRA.SOLV.lig_0>
-32.3374

>  <SCORE.INTRA.VDW>
0.377622

>  <SCORE.INTRA.VDW.0>
-0.659551

>  <SCORE.INTRA.norm>
0.0612226

>  <SCORE.RESTR>
0

>  <SCORE.RESTR.CAVITY>
0

>  <SCORE.RESTR.norm>
0

>  <SCORE.SYSTEM>
0

>  <SCORE.SYSTEM.CONST>
0

>  <SCORE.SYSTEM.DIHEDRAL>
0

>  <SCORE.SYSTEM.SOLV>
0

>  <SCORE.SYSTEM.norm>
0

>  <SCORE.heavy>
10

>  <SCORE.norm>
-0.976635

>  <RMSD>
5.545

$$$$
ligand
 OpenBabel11021811473D
libRbt.so/2013.1/901 2013/11/27
 10  9  0  0  0  0  0  0  0  0999 V2000
   26.3208   15.6103   19.9311 N   0  0  0  0  0  0  0  0  0  0  0  0
   27.7157   15.1266   19.7322 C   0  0  2  0  0  0  0  0  0  0  0  0
   27.8340   14.1851   18.5335 C   0  0  0  0  0  0  0  0  0  0  0  0
   28.8600   14.1255   17.8482 O   0  0  0  0  0  0  0  0  0  0  0  0
   28.2502   14.4677   21.0065 C   0  0  0  0  0  0  0  0  0  0  0  0
   28.8952   15.4367   21.9885 C   0  0  0  0  0  0  0  0  0  0  0  0
   30.1867   16.0214   21.4171 C   0  0  0  0  0  0  0  0  0  0  0  0
   30.8648   16.9667   22.4026 C   0  0  0  0  0  0  0  0  0  0  0  0
   32.1471   17.5231   21.8796 N   0  0  0  0  0  0  0  0  0  0  0  0
   26.9059   13.4371   18.2333 O   0  0  0  0  0  0  0  0  0  0  0  0
  2  1  1  1  0  0  0
  2  3  1  0  0  0  0
  2  5  1  0  0  0  0
  3  4  1  0  0  0  0
  3 10  1  0  0  0  0
  5  6  1  0  0  0  0
  6  7  1  0  0  0  0
  7  8  1  0  0  0  0
  8  9  1  0  0  0  0
M  END
>  <CHROM.1>
148.20086628,-87.16620301,-67.26309321,-178.51921022,178.52605405,28.79383627
15.26442612,20.26323788,2.29484676,-0.24770915,-2.02892491

>  <Name>
ligand

>  <RI>
0

>  <Rbt.Current_Directory>
/home/itssahil/PROJECTS/Mol_Feturizer/New_Systems/rnas/3DJ2

>  <Rbt.Executable>
rbdock ($Id: //depot/dev/client3/rdock/2013.1/src/exe/rbdock.cxx#4 $)

>  <Rbt.Library>
libRbt.so (2013.1, Build901 2013/11/27)

>  <Rbt.Parameter_File>
/export/apps/rDock/src/rDock_2013.1_src/data/scripts/dock_solv.prm

>  <Rbt.Receptor>
prm/pocket_docking_4.prm

>  <SCORE>
-8.18014

>  <SCORE.INTER>
-7.7883

>  <SCORE.INTER.CONST>
1

>  <SCORE.INTER.POLAR>
0

>  <SCORE.INTER.ROT>
5

>  <SCORE.INTER.SOLV>
15.8156

>  <SCORE.INTER.VDW>
-17.3974

>  <SCORE.INTER.norm>
-0.77883

>  <SCORE.INTRA>
-0.391842

>  <SCORE.INTRA.DIHEDRAL>
-0.0855609

>  <SCORE.INTRA.DIHEDRAL.0>
4.28128

>  <SCORE.INTRA.POLAR>
0

>  <SCORE.INTRA.POLAR.0>
0

>  <SCORE.INTRA.REPUL>
0

>  <SCORE.INTRA.REPUL.0>
0

>  <SCORE.INTRA.SOLV>
-0.445217

>  <SCORE.INTRA.SOLV.lig_0>
-32.3374

>  <SCORE.INTRA.VDW>
-0.126453

>  <SCORE.INTRA.VDW.0>
-0.659551

>  <SCORE.INTRA.norm>
-0.0391842

>  <SCORE.RESTR>
0

>  <SCORE.RESTR.CAVITY>
0

>  <SCORE.RESTR.norm>
0

>  <SCORE.SYSTEM>
0

>  <SCORE.SYSTEM.CONST>
0

>  <SCORE.SYSTEM.DIHEDRAL>
0

>  <SCORE.SYSTEM.SOLV>
0

>  <SCORE.SYSTEM.norm>
0

>  <SCORE.heavy>
10

>  <SCORE.norm>
-0.818014

>  <RMSD>
5.546

$$$$
ligand
 OpenBabel11021811473D
libRbt.so/2013.1/901 2013/11/27
 10  9  0  0  0  0  0  0  0  0999 V2000
   27.1697   14.3064   18.6306 N   0  0  0  0  0  0  0  0  0  0  0  0
   27.8101   14.5224   19.9583 C   0  0  2  0  0  0  0  0  0  0  0  0
   26.7891   14.8744   21.0403 C   0  0  0  0  0  0  0  0  0  0  0  0
   25.5839   14.9817   20.7915 O   0  0  0  0  0  0  0  0  0  0  0  0
   28.9068   15.5866   19.8669 C   0  0  0  0  0  0  0  0  0  0  0  0
   29.8484   15.6187   21.0635 C   0  0  0  0  0  0  0  0  0  0  0  0
   30.9038   16.7128   20.9044 C   0  0  0  0  0  0  0  0  0  0  0  0
   31.8730   16.7399   22.0810 C   0  0  0  0  0  0  0  0  0  0  0  0
   32.8947   17.8213   21.9624 N   0  0  0  0  0  0  0  0  0  0  0  0
   27.1454   15.0380   22.2053 O   0  0  0  0  0  0  0  0  0  0  0  0
  2  1  1  6  0  0  0
  2  3  1  0  0  0  0
  2  5  1  0  0  0  0
  3  4  1  0  0  0  0
  3 10  1  0  0  0  0
  5  6  1  0  0  0  0
  6  7  1  0  0  0  0
  7  8  1  0  0  0  0
  8  9  1  0  0  0  0
M  END
>  <CHROM.1>
-1.27660962,-164.95755580,-179.45365316,-178.82221056,-178.69784702,28.85927274
15.62153631,20.87235002,-2.82161593,0.34801709,1.30234905

>  <Name>
ligand

>  <RI>
0

>  <Rbt.Current_Directory>
/home/itssahil/PROJECTS/Mol_Feturizer/New_Systems/rnas/3DJ2

>  <Rbt.Executable>
rbdock ($Id: //depot/dev/client3/rdock/2013.1/src/exe/rbdock.cxx#4 $)

>  <Rbt.Library>
libRbt.so (2013.1, Build901 2013/11/27)

>  <Rbt.Parameter_File>
/export/apps/rDock/src/rDock_2013.1_src/data/scripts/dock_solv.prm

>  <Rbt.Receptor>
prm/pocket_docking_6.prm

>  <SCORE>
-10.2838

>  <SCORE.INTER>
-8.71951

>  <SCORE.INTER.CONST>
1

>  <SCORE.INTER.POLAR>
0

>  <SCORE.INTER.ROT>
5

>  <SCORE.INTER.SOLV>
15.8729

>  <SCORE.INTER.VDW>
-18.0373

>  <SCORE.INTER.norm>
-0.871951

>  <SCORE.INTRA>
-1.56429

>  <SCORE.INTRA.DIHEDRAL>
-1.9316

>  <SCORE.INTRA.DIHEDRAL.0>
4.28128

>  <SCORE.INTRA.POLAR>
0

>  <SCORE.INTRA.POLAR.0>
0

>  <SCORE.INTRA.REPUL>
0

>  <SCORE.INTRA.REPUL.0>
0

>  <SCORE.INTRA.SOLV>
-1.31648

>  <SCORE.INTRA.SOLV.lig_0>
-32.3374

>  <SCORE.INTRA.VDW>
0.0597501

>  <SCORE.INTRA.VDW.0>
-0.659551

>  <SCORE.INTRA.norm>
-0.156429

>  <SCORE.RESTR>
0

>  <SCORE.RESTR.CAVITY>
0

>  <SCORE.RESTR.norm>
0

>  <SCORE.SYSTEM>
0

>  <SCORE.SYSTEM.CONST>
0

>  <SCORE.SYSTEM.DIHEDRAL>
0

>  <SCORE.SYSTEM.SOLV>
0

>  <SCORE.SYSTEM.norm>
0

>  <SCORE.heavy>
10

>  <SCORE.norm>
-1.02838

>  <RMSD>
5.546

$$$$
ligand
 OpenBabel11021811473D
libRbt.so/2013.1/901 2013/11/27
 10  9  0  0  0  0  0  0  0  0999 V2000
   27.1684   14.2907   18.6359 N   0  0  0  0  0  0  0  0  0  0  0  0
   27.8052   14.5187   19.9632 C   0  0  2  0  0  0  0  0  0  0  0  0
   26.7818   14.8844   21.0384 C   0  0  0  0  0  0  0  0  0  0  0  0
   27.1084   15.0710   22.2149 O   0  0  0  0  0  0  0  0  0  0  0  0
   28.9048   15.5793   19.8642 C   0  0  0  0  0  0  0  0  0  0  0  0
   29.8430   15.6213   21.0632 C   0  0  0  0  0  0  0  0  0  0  0  0
   30.8940   16.7192   20.9018 C   0  0  0  0  0  0  0  0  0  0  0  0
   31.8663   16.7493   22.0757 C   0  0  0  0  0  0  0  0  0  0  0  0
   32.8590   17.8592   21.9748 N   0  0  0  0  0  0  0  0  0  0  0  0
   25.5957   15.0267   20.7486 O   0  0  0  0  0  0  0  0  0  0  0  0
  2  1  1  6  0  0  0
  2  3  1  0  0  0  0
  2  5  1  0  0  0  0
  3  4  1  0  0  0  0
  3 10  1  0  0  0  0
  5  6  1  0  0  0  0
  6  7  1  0  0  0  0
  7  8  1  0  0  0  0
  8  9  1  0  0  0  0
M  END
>  <CHROM.1>
177.69630107,-164.94665303,-178.95285378,-178.38437836,-177.02107434,28.84930549
15.63418261,20.86954178,-2.81191505,0.34342069,1.28443712

>  <Name>
ligand

>  <RI>
0

>  <Rbt.Current_Directory>
/home/itssahil/PROJECTS/Mol_Feturizer/New_Systems/rnas/3DJ2

>  <Rbt.Executable>
rbdock ($Id: //depot/dev/client3/rdock/2013.1/src/exe/rbdock.cxx#4 $)

>  <Rbt.Library>
libRbt.so (2013.1, Build901 2013/11/27)

>  <Rbt.Parameter_File>
/export/apps/rDock/src/rDock_2013.1_src/data/scripts/dock_solv.prm

>  <Rbt.Receptor>
prm/pocket_docking_5.prm

>  <SCORE>
-10.307

>  <SCORE.INTER>
-8.72208

>  <SCORE.INTER.CONST>
1

>  <SCORE.INTER.POLAR>
0

>  <SCORE.INTER.ROT>
5

>  <SCORE.INTER.SOLV>
15.8462

>  <SCORE.INTER.VDW>
-18.0301

>  <SCORE.INTER.norm>
-0.872208

>  <SCORE.INTRA>
-1.58493

>  <SCORE.INTRA.DIHEDRAL>
-1.91131

>  <SCORE.INTRA.DIHEDRAL.0>
4.28128

>  <SCORE.INTRA.POLAR>
0

>  <SCORE.INTRA.POLAR.0>
0

>  <SCORE.INTRA.REPUL>
0

>  <SCORE.INTRA.REPUL.0>
0

>  <SCORE.INTRA.SOLV>
-1.30822

>  <SCORE.INTRA.SOLV.lig_0>
-32.3374

>  <SCORE.INTRA.VDW>
0.0248326

>  <SCORE.INTRA.VDW.0>
-0.659551

>  <SCORE.INTRA.norm>
-0.158493

>  <SCORE.RESTR>
0

>  <SCORE.RESTR.CAVITY>
0

>  <SCORE.RESTR.norm>
0

>  <SCORE.SYSTEM>
0

>  <SCORE.SYSTEM.CONST>
0

>  <SCORE.SYSTEM.DIHEDRAL>
0

>  <SCORE.SYSTEM.SOLV>
0

>  <SCORE.SYSTEM.norm>
0

>  <SCORE.heavy>
10

>  <SCORE.norm>
-1.0307

>  <RMSD>
5.547

$$$$
ligand
 OpenBabel11021811473D
libRbt.so/2013.1/901 2013/11/27
 10  9  0  0  0  0  0  0  0  0999 V2000
   27.1679   14.2176   18.7070 N   0  0  0  0  0  0  0  0  0  0  0  0
   27.8046   14.4745   20.0291 C   0  0  2  0  0  0  0  0  0  0  0  0
   26.7817   14.8689   21.0946 C   0  0  0  0  0  0  0  0  0  0  0  0
   27.1117   15.1064   22.2611 O   0  0  0  0  0  0  0  0  0  0  0  0
   28.9081   15.5285   19.9062 C   0  0  0  0  0  0  0  0  0  0  0  0
   29.8479   15.5925   21.1029 C   0  0  0  0  0  0  0  0  0  0  0  0
   30.9103   16.6746   20.9114 C   0  0  0  0  0  0  0  0  0  0  0  0
   31.8696   16.7419   22.0944 C   0  0  0  0  0  0  0  0  0  0  0  0
   32.8469   17.8642   21.9820 N   0  0  0  0  0  0  0  0  0  0  0  0
   25.5924   14.9837   20.8060 O   0  0  0  0  0  0  0  0  0  0  0  0
  2  1  1  6  0  0  0
  2  3  1  0  0  0  0
  2  5  1  0  0  0  0
  3  4  1  0  0  0  0
  3 10  1  0  0  0  0
  5  6  1  0  0  0  0
  6  7  1  0  0  0  0
  7  8  1  0  0  0  0
  8  9  1  0  0  0  0
M  END
>  <CHROM.1>
179.08773793,-164.77762634,-179.44689042,-179.37444249,-175.29425298,28.85073540
15.60811132,20.91084974,-2.80846469,0.33979370,1.25550458

>  <Name>
ligand

>  <RI>
0

>  <Rbt.Current_Directory>
/home/itssahil/PROJECTS/Mol_Feturizer/New_Systems/rnas/3DJ2

>  <Rbt.Executable>
rbdock ($Id: //depot/dev/client3/rdock/2013.1/src/exe/rbdock.cxx#4 $)

>  <Rbt.Library>
libRbt.so (2013.1, Build901 2013/11/27)

>  <Rbt.Parameter_File>
/export/apps/rDock/src/rDock_2013.1_src/data/scripts/dock_solv.prm

>  <Rbt.Receptor>
prm/pocket_docking_7.prm

>  <SCORE>
-10.3477

>  <SCORE.INTER>
-8.81116

>  <SCORE.INTER.CONST>
1

>  <SCORE.INTER.POLAR>
0

>  <SCORE.INTER.ROT>
5

>  <SCORE.INTER.SOLV>
15.9169

>  <SCORE.INTER.VDW>
-18.1131

>  <SCORE.INTER.norm>
-0.881116

>  <SCORE.INTRA>
-1.5365

>  <SCORE.INTRA.DIHEDRAL>
-1.85288

>  <SCORE.INTRA.DIHEDRAL.0>
4.28128

>  <SCORE.INTRA.POLAR>
0

>  <SCORE.INTRA.POLAR.0>
0

>  <SCORE.INTRA.REPUL>
0

>  <SCORE.INTRA.REPUL.0>
0

>  <SCORE.INTRA.SOLV>
-1.30686

>  <SCORE.INTRA.SOLV.lig_0>
-32.3374

>  <SCORE.INTRA.VDW>
0.0433755

>  <SCORE.INTRA.VDW.0>
-0.659551

>  <SCORE.INTRA.norm>
-0.15365

>  <SCORE.RESTR>
0

>  <SCORE.RESTR.CAVITY>
0

>  <SCORE.RESTR.norm>
0

>  <SCORE.SYSTEM>
0

>  <SCORE.SYSTEM.CONST>
0

>  <SCORE.SYSTEM.DIHEDRAL>
0

>  <SCORE.SYSTEM.SOLV>
0

>  <SCORE.SYSTEM.norm>
0

>  <SCORE.heavy>
10

>  <SCORE.norm>
-1.03477

>  <RMSD>
5.547

$$$$
ligand
 OpenBabel11021811473D
libRbt.so/2013.1/901 2013/11/27
 10  9  0  0  0  0  0  0  0  0999 V2000
   28.6493   16.1627   19.7471 N   0  0  0  0  0  0  0  0  0  0  0  0
   28.1233   15.1144   20.6656 C   0  0  2  0  0  0  0  0  0  0  0  0
   26.5952   15.0698   20.6745 C   0  0  0  0  0  0  0  0  0  0  0  0
   25.9625   14.5291   21.5873 O   0  0  0  0  0  0  0  0  0  0  0  0
   28.6783   15.3017   22.0800 C   0  0  0  0  0  0  0  0  0  0  0  0
   30.1979   15.2512   22.1674 C   0  0  0  0  0  0  0  0  0  0  0  0
   30.8150   16.6037   21.8126 C   0  0  0  0  0  0  0  0  0  0  0  0
   32.3307   16.5953   21.9776 C   0  0  0  0  0  0  0  0  0  0  0  0
   32.9447   17.9346   21.7395 N   0  0  0  0  0  0  0  0  0  0  0  0
   25.9499   15.5996   19.7723 O   0  0  0  0  0  0  0  0  0  0  0  0
  2  1  1  6  0  0  0
  2  3  1  0  0  0  0
  2  5  1  0  0  0  0
  3  4  1  0  0  0  0
  3 10  1  0  0  0  0
  5  6  1  0  0  0  0
  6  7  1  0  0  0  0
  7  8  1  0  0  0  0
  8  9  1  0  0  0  0
M  END
>  <CHROM.1>
-161.42686075,-58.94000909,82.72279904,176.50310326,-175.53378883,28.97953588
15.81050854,21.21916252,3.13755704,0.37703940,2.15603320

>  <Name>
ligand

>  <RI>
0

>  <Rbt.Current_Directory>
/home/itssahil/PROJECTS/Mol_Feturizer/New_Systems/rnas/3DJ2

>  <Rbt.Executable>
rbdock ($Id: //depot/dev/client3/rdock/2013.1/src/exe/rbdock.cxx#4 $)

>  <Rbt.Library>
libRbt.so (2013.1, Build901 2013/11/27)

>  <Rbt.Parameter_File>
/export/apps/rDock/src/rDock_2013.1_src/data/scripts/dock_solv.prm

>  <Rbt.Receptor>
prm/pocket_docking_7.prm

>  <SCORE>
-9.78254

>  <SCORE.INTER>
-10.2605

>  <SCORE.INTER.CONST>
1

>  <SCORE.INTER.POLAR>
0

>  <SCORE.INTER.ROT>
5

>  <SCORE.INTER.SOLV>
12.8843

>  <SCORE.INTER.VDW>
-18.0684

>  <SCORE.INTER.norm>
-1.02605

>  <SCORE.INTRA>
0.477982

>  <SCORE.INTRA.DIHEDRAL>
-0.669329

>  <SCORE.INTRA.DIHEDRAL.0>
4.28128

>  <SCORE.INTRA.POLAR>
0

>  <SCORE.INTRA.POLAR.0>
0

>  <SCORE.INTRA.REPUL>
0

>  <SCORE.INTRA.REPUL.0>
0

>  <SCORE.INTRA.SOLV>
0.884357

>  <SCORE.INTRA.SOLV.lig_0>
-32.3374

>  <SCORE.INTRA.VDW>
0.370468

>  <SCORE.INTRA.VDW.0>
-0.659551

>  <SCORE.INTRA.norm>
0.0477982

>  <SCORE.RESTR>
0

>  <SCORE.RESTR.CAVITY>
0

>  <SCORE.RESTR.norm>
0

>  <SCORE.SYSTEM>
0

>  <SCORE.SYSTEM.CONST>
0

>  <SCORE.SYSTEM.DIHEDRAL>
0

>  <SCORE.SYSTEM.SOLV>
0

>  <SCORE.SYSTEM.norm>
0

>  <SCORE.heavy>
10

>  <SCORE.norm>
-0.978254

>  <RMSD>
5.547

$$$$
ligand
 OpenBabel11021811473D
libRbt.so/2013.1/901 2013/11/27
 10  9  0  0  0  0  0  0  0  0999 V2000
   25.7380   15.0869   20.5619 N   0  0  0  0  0  0  0  0  0  0  0  0
   27.0922   15.5669   20.1680 C   0  0  2  0  0  0  0  0  0  0  0  0
   27.5408   14.9887   18.8257 C   0  0  0  0  0  0  0  0  0  0  0  0
   28.2226   15.6409   18.0284 O   0  0  0  0  0  0  0  0  0  0  0  0
   28.1159   15.2698   21.2668 C   0  0  0  0  0  0  0  0  0  0  0  0
   29.4749   15.9214   21.0483 C   0  0  0  0  0  0  0  0  0  0  0  0
   30.4559   15.5333   22.1542 C   0  0  0  0  0  0  0  0  0  0  0  0
   31.8200   16.1845   21.9553 C   0  0  0  0  0  0  0  0  0  0  0  0
   31.7695   17.6726   22.0566 N   0  0  0  0  0  0  0  0  0  0  0  0
   27.2493   13.8360   18.5138 O   0  0  0  0  0  0  0  0  0  0  0  0
  2  1  1  1  0  0  0
  2  3  1  0  0  0  0
  2  5  1  0  0  0  0
  3  4  1  0  0  0  0
  3 10  1  0  0  0  0
  5  6  1  0  0  0  0
  6  7  1  0  0  0  0
  7  8  1  0  0  0  0
  8  9  1  0  0  0  0
M  END
>  <CHROM.1>
144.90126829,-170.67918526,-177.71216301,-179.64530338,64.43600559,28.74867548
15.55495096,20.42190559,2.54668978,-0.30193592,-1.71266304

>  <Name>
ligand

>  <RI>
0

>  <Rbt.Current_Directory>
/home/itssahil/PROJECTS/Mol_Feturizer/New_Systems/rnas/3DJ2

>  <Rbt.Executable>
rbdock ($Id: //depot/dev/client3/rdock/2013.1/src/exe/rbdock.cxx#4 $)

>  <Rbt.Library>
libRbt.so (2013.1, Build901 2013/11/27)

>  <Rbt.Parameter_File>
/export/apps/rDock/src/rDock_2013.1_src/data/scripts/dock_solv.prm

>  <Rbt.Receptor>
prm/blind_docking_100.prm

>  <SCORE>
-9.88271

>  <SCORE.INTER>
-8.31833

>  <SCORE.INTER.CONST>
1

>  <SCORE.INTER.POLAR>
0

>  <SCORE.INTER.ROT>
5

>  <SCORE.INTER.SOLV>
17.3868

>  <SCORE.INTER.VDW>
-18.2745

>  <SCORE.INTER.norm>
-0.831833

>  <SCORE.INTRA>
-1.56438

>  <SCORE.INTRA.DIHEDRAL>
-2.39673

>  <SCORE.INTRA.DIHEDRAL.0>
4.28128

>  <SCORE.INTRA.POLAR>
0

>  <SCORE.INTRA.POLAR.0>
0

>  <SCORE.INTRA.REPUL>
0

>  <SCORE.INTRA.REPUL.0>
0

>  <SCORE.INTRA.SOLV>
-0.444967

>  <SCORE.INTRA.SOLV.lig_0>
-32.3374

>  <SCORE.INTRA.VDW>
-0.143534

>  <SCORE.INTRA.VDW.0>
-0.659551

>  <SCORE.INTRA.norm>
-0.156438

>  <SCORE.RESTR>
0

>  <SCORE.RESTR.CAVITY>
0

>  <SCORE.RESTR.norm>
0

>  <SCORE.SYSTEM>
0

>  <SCORE.SYSTEM.CONST>
0

>  <SCORE.SYSTEM.DIHEDRAL>
0

>  <SCORE.SYSTEM.SOLV>
0

>  <SCORE.SYSTEM.norm>
0

>  <SCORE.heavy>
10

>  <SCORE.norm>
-0.988271

>  <RMSD>
5.548

$$$$
ligand
 OpenBabel11021811473D
libRbt.so/2013.1/901 2013/11/27
 10  9  0  0  0  0  0  0  0  0999 V2000
   27.1921   14.2296   18.4935 N   0  0  0  0  0  0  0  0  0  0  0  0
   27.8003   14.4682   19.8324 C   0  0  2  0  0  0  0  0  0  0  0  0
   26.7608   14.8908   20.8707 C   0  0  0  0  0  0  0  0  0  0  0  0
   25.6046   15.1888   20.5540 O   0  0  0  0  0  0  0  0  0  0  0  0
   28.9357   15.4910   19.7400 C   0  0  0  0  0  0  0  0  0  0  0  0
   29.7804   15.6034   21.0023 C   0  0  0  0  0  0  0  0  0  0  0  0
   30.8390   16.6968   20.8607 C   0  0  0  0  0  0  0  0  0  0  0  0
   31.7332   16.7819   22.0926 C   0  0  0  0  0  0  0  0  0  0  0  0
   32.7080   17.9098   22.0215 N   0  0  0  0  0  0  0  0  0  0  0  0
   27.0485   14.9217   22.0653 O   0  0  0  0  0  0  0  0  0  0  0  0
  2  1  1  6  0  0  0
  2  3  1  0  0  0  0
  2  5  1  0  0  0  0
  3  4  1  0  0  0  0
  3 10  1  0  0  0  0
  5  6  1  0  0  0  0
  6  7  1  0  0  0  0
  7  8  1  0  0  0  0
  8  9  1  0  0  0  0
M  END
>  <CHROM.1>
-10.28730181,-169.19648543,-176.77530875,-177.51602990,-175.65072914,28.80680051
15.62094059,20.77390818,-2.76530239,0.33662498,1.25694029

>  <Name>
ligand

>  <RI>
0

>  <Rbt.Current_Directory>
/home/itssahil/PROJECTS/Mol_Feturizer/New_Systems/rnas/3DJ2

>  <Rbt.Executable>
rbdock ($Id: //depot/dev/client3/rdock/2013.1/src/exe/rbdock.cxx#4 $)

>  <Rbt.Library>
libRbt.so (2013.1, Build901 2013/11/27)

>  <Rbt.Parameter_File>
/export/apps/rDock/src/rDock_2013.1_src/data/scripts/dock_solv.prm

>  <Rbt.Receptor>
prm/blind_docking_100.prm

>  <SCORE>
-10.2028

>  <SCORE.INTER>
-8.45977

>  <SCORE.INTER.CONST>
1

>  <SCORE.INTER.POLAR>
0

>  <SCORE.INTER.ROT>
5

>  <SCORE.INTER.SOLV>
15.8927

>  <SCORE.INTER.VDW>
-17.8707

>  <SCORE.INTER.norm>
-0.845977

>  <SCORE.INTRA>
-1.74301

>  <SCORE.INTRA.DIHEDRAL>
-2.17074

>  <SCORE.INTRA.DIHEDRAL.0>
4.28128

>  <SCORE.INTRA.POLAR>
0

>  <SCORE.INTRA.POLAR.0>
0

>  <SCORE.INTRA.REPUL>
0

>  <SCORE.INTRA.REPUL.0>
0

>  <SCORE.INTRA.SOLV>
-1.32223

>  <SCORE.INTRA.SOLV.lig_0>
-32.3374

>  <SCORE.INTRA.VDW>
0.00347328

>  <SCORE.INTRA.VDW.0>
-0.659551

>  <SCORE.INTRA.norm>
-0.174301

>  <SCORE.RESTR>
0

>  <SCORE.RESTR.CAVITY>
0

>  <SCORE.RESTR.norm>
0

>  <SCORE.SYSTEM>
0

>  <SCORE.SYSTEM.CONST>
0

>  <SCORE.SYSTEM.DIHEDRAL>
0

>  <SCORE.SYSTEM.SOLV>
0

>  <SCORE.SYSTEM.norm>
0

>  <SCORE.heavy>
10

>  <SCORE.norm>
-1.02028

>  <RMSD>
5.549

$$$$
ligand
 OpenBabel11021811473D
libRbt.so/2013.1/901 2013/11/27
 10  9  0  0  0  0  0  0  0  0999 V2000
   27.1739   14.2687   18.7116 N   0  0  0  0  0  0  0  0  0  0  0  0
   27.8148   14.5103   20.0345 C   0  0  2  0  0  0  0  0  0  0  0  0
   26.7919   14.8622   21.1149 C   0  0  0  0  0  0  0  0  0  0  0  0
   27.1305   15.1367   22.2707 O   0  0  0  0  0  0  0  0  0  0  0  0
   28.8966   15.5882   19.9265 C   0  0  0  0  0  0  0  0  0  0  0  0
   29.8752   15.6113   21.0932 C   0  0  0  0  0  0  0  0  0  0  0  0
   30.9125   16.7204   20.9199 C   0  0  0  0  0  0  0  0  0  0  0  0
   31.9171   16.7403   22.0665 C   0  0  0  0  0  0  0  0  0  0  0  0
   32.9038   17.8539   21.9502 N   0  0  0  0  0  0  0  0  0  0  0  0
   25.5925   14.9041   20.8491 O   0  0  0  0  0  0  0  0  0  0  0  0
  2  1  1  6  0  0  0
  2  3  1  0  0  0  0
  2  5  1  0  0  0  0
  3  4  1  0  0  0  0
  3 10  1  0  0  0  0
  5  6  1  0  0  0  0
  6  7  1  0  0  0  0
  7  8  1  0  0  0  0
  8  9  1  0  0  0  0
M  END
>  <CHROM.1>
-177.81228860,-162.59952582,-179.40221821,-178.88891168,-177.44116614,28.86744290
15.62147638,20.91547676,-2.82603832,0.34848058,1.27860523

>  <Name>
ligand

>  <RI>
0

>  <Rbt.Current_Directory>
/home/itssahil/PROJECTS/Mol_Feturizer/New_Systems/rnas/3DJ2

>  <Rbt.Executable>
rbdock ($Id: //depot/dev/client3/rdock/2013.1/src/exe/rbdock.cxx#4 $)

>  <Rbt.Library>
libRbt.so (2013.1, Build901 2013/11/27)

>  <Rbt.Parameter_File>
/export/apps/rDock/src/rDock_2013.1_src/data/scripts/dock_solv.prm

>  <Rbt.Receptor>
prm/pocket_docking_3.prm

>  <SCORE>
-10.3513

>  <SCORE.INTER>
-8.9092

>  <SCORE.INTER.CONST>
1

>  <SCORE.INTER.POLAR>
0

>  <SCORE.INTER.ROT>
5

>  <SCORE.INTER.SOLV>
15.8624

>  <SCORE.INTER.VDW>
-18.1603

>  <SCORE.INTER.norm>
-0.89092

>  <SCORE.INTRA>
-1.44209

>  <SCORE.INTRA.DIHEDRAL>
-1.65821

>  <SCORE.INTRA.DIHEDRAL.0>
4.28128

>  <SCORE.INTRA.POLAR>
0

>  <SCORE.INTRA.POLAR.0>
0

>  <SCORE.INTRA.REPUL>
0

>  <SCORE.INTRA.REPUL.0>
0

>  <SCORE.INTRA.SOLV>
-1.30314

>  <SCORE.INTRA.SOLV.lig_0>
-32.3374

>  <SCORE.INTRA.VDW>
0.0385847

>  <SCORE.INTRA.VDW.0>
-0.659551

>  <SCORE.INTRA.norm>
-0.144209

>  <SCORE.RESTR>
0

>  <SCORE.RESTR.CAVITY>
0

>  <SCORE.RESTR.norm>
0

>  <SCORE.SYSTEM>
0

>  <SCORE.SYSTEM.CONST>
0

>  <SCORE.SYSTEM.DIHEDRAL>
0

>  <SCORE.SYSTEM.SOLV>
0

>  <SCORE.SYSTEM.norm>
0

>  <SCORE.heavy>
10

>  <SCORE.norm>
-1.03513

>  <RMSD>
5.549

$$$$
ligand
 OpenBabel11021811473D
libRbt.so/2013.1/901 2013/11/27
 10  9  0  0  0  0  0  0  0  0999 V2000
   27.1426   14.2850   18.6494 N   0  0  0  0  0  0  0  0  0  0  0  0
   27.7885   14.5058   19.9735 C   0  0  2  0  0  0  0  0  0  0  0  0
   26.7729   14.8698   21.0567 C   0  0  0  0  0  0  0  0  0  0  0  0
   27.1103   15.0701   22.2280 O   0  0  0  0  0  0  0  0  0  0  0  0
   28.8903   15.5638   19.8720 C   0  0  0  0  0  0  0  0  0  0  0  0
   29.8289   15.6064   21.0706 C   0  0  0  0  0  0  0  0  0  0  0  0
   30.8807   16.7033   20.9076 C   0  0  0  0  0  0  0  0  0  0  0  0
   31.8581   16.7289   22.0774 C   0  0  0  0  0  0  0  0  0  0  0  0
   32.8462   17.8431   21.9798 N   0  0  0  0  0  0  0  0  0  0  0  0
   25.5823   14.9969   20.7788 O   0  0  0  0  0  0  0  0  0  0  0  0
  2  1  1  6  0  0  0
  2  3  1  0  0  0  0
  2  5  1  0  0  0  0
  3  4  1  0  0  0  0
  3 10  1  0  0  0  0
  5  6  1  0  0  0  0
  6  7  1  0  0  0  0
  7  8  1  0  0  0  0
  8  9  1  0  0  0  0
M  END
>  <CHROM.1>
178.79139929,-165.45336865,-178.85031155,-178.06533289,-176.64403109,28.83686407
15.61946285,20.88105462,-2.81468137,0.34435568,1.28688754

>  <Name>
ligand

>  <RI>
0

>  <Rbt.Current_Directory>
/home/itssahil/PROJECTS/Mol_Feturizer/New_Systems/rnas/3DJ2

>  <Rbt.Executable>
rbdock ($Id: //depot/dev/client3/rdock/2013.1/src/exe/rbdock.cxx#4 $)

>  <Rbt.Library>
libRbt.so (2013.1, Build901 2013/11/27)

>  <Rbt.Parameter_File>
/export/apps/rDock/src/rDock_2013.1_src/data/scripts/dock_solv.prm

>  <Rbt.Receptor>
prm/pocket_docking_3.prm

>  <SCORE>
-10.2973

>  <SCORE.INTER>
-8.72573

>  <SCORE.INTER.CONST>
1

>  <SCORE.INTER.POLAR>
0

>  <SCORE.INTER.ROT>
5

>  <SCORE.INTER.SOLV>
15.8964

>  <SCORE.INTER.VDW>
-18.0493

>  <SCORE.INTER.norm>
-0.872573

>  <SCORE.INTRA>
-1.5716

>  <SCORE.INTRA.DIHEDRAL>
-1.94593

>  <SCORE.INTRA.DIHEDRAL.0>
4.28128

>  <SCORE.INTRA.POLAR>
0

>  <SCORE.INTRA.POLAR.0>
0

>  <SCORE.INTRA.REPUL>
0

>  <SCORE.INTRA.REPUL.0>
0

>  <SCORE.INTRA.SOLV>
-1.30885

>  <SCORE.INTRA.SOLV.lig_0>
-32.3374

>  <SCORE.INTRA.VDW>
0.0557972

>  <SCORE.INTRA.VDW.0>
-0.659551

>  <SCORE.INTRA.norm>
-0.15716

>  <SCORE.RESTR>
0

>  <SCORE.RESTR.CAVITY>
0

>  <SCORE.RESTR.norm>
0

>  <SCORE.SYSTEM>
0

>  <SCORE.SYSTEM.CONST>
0

>  <SCORE.SYSTEM.DIHEDRAL>
0

>  <SCORE.SYSTEM.SOLV>
0

>  <SCORE.SYSTEM.norm>
0

>  <SCORE.heavy>
10

>  <SCORE.norm>
-1.02973

>  <RMSD>
5.551

$$$$
ligand
 OpenBabel11021811473D
libRbt.so/2013.1/901 2013/11/27
 10  9  0  0  0  0  0  0  0  0999 V2000
   27.1496   14.2828   18.6270 N   0  0  0  0  0  0  0  0  0  0  0  0
   27.7759   14.5314   19.9557 C   0  0  2  0  0  0  0  0  0  0  0  0
   26.7488   14.9503   21.0077 C   0  0  0  0  0  0  0  0  0  0  0  0
   27.0539   15.1009   22.1952 O   0  0  0  0  0  0  0  0  0  0  0  0
   28.9020   15.5623   19.8423 C   0  0  0  0  0  0  0  0  0  0  0  0
   29.8207   15.6210   21.0555 C   0  0  0  0  0  0  0  0  0  0  0  0
   30.8844   16.7058   20.8887 C   0  0  0  0  0  0  0  0  0  0  0  0
   31.8478   16.7406   22.0698 C   0  0  0  0  0  0  0  0  0  0  0  0
   32.8672   17.8242   21.9516 N   0  0  0  0  0  0  0  0  0  0  0  0
   25.5831   15.1736   20.6880 O   0  0  0  0  0  0  0  0  0  0  0  0
  2  1  1  6  0  0  0
  2  3  1  0  0  0  0
  2  5  1  0  0  0  0
  3  4  1  0  0  0  0
  3 10  1  0  0  0  0
  5  6  1  0  0  0  0
  6  7  1  0  0  0  0
  7  8  1  0  0  0  0
  8  9  1  0  0  0  0
M  END
>  <CHROM.1>
174.28957952,-165.34906814,-177.90992987,-177.69462644,-177.99232355,28.82984332
15.65282030,20.84911733,-2.80543384,0.32127177,1.26170730

>  <Name>
ligand

>  <RI>
0

>  <Rbt.Current_Directory>
/home/itssahil/PROJECTS/Mol_Feturizer/New_Systems/rnas/3DJ2

>  <Rbt.Executable>
rbdock ($Id: //depot/dev/client3/rdock/2013.1/src/exe/rbdock.cxx#4 $)

>  <Rbt.Library>
libRbt.so (2013.1, Build901 2013/11/27)

>  <Rbt.Parameter_File>
/export/apps/rDock/src/rDock_2013.1_src/data/scripts/dock_solv.prm

>  <Rbt.Receptor>
prm/pocket_docking_6.prm

>  <SCORE>
-10.2869

>  <SCORE.INTER>
-8.63434

>  <SCORE.INTER.CONST>
1

>  <SCORE.INTER.POLAR>
0

>  <SCORE.INTER.ROT>
5

>  <SCORE.INTER.SOLV>
15.8323

>  <SCORE.INTER.VDW>
-17.967

>  <SCORE.INTER.norm>
-0.863434

>  <SCORE.INTRA>
-1.65251

>  <SCORE.INTRA.DIHEDRAL>
-1.95432

>  <SCORE.INTRA.DIHEDRAL.0>
4.28128

>  <SCORE.INTRA.POLAR>
0

>  <SCORE.INTRA.POLAR.0>
0

>  <SCORE.INTRA.REPUL>
0

>  <SCORE.INTRA.REPUL.0>
0

>  <SCORE.INTRA.SOLV>
-1.30996

>  <SCORE.INTRA.SOLV.lig_0>
-32.3374

>  <SCORE.INTRA.VDW>
-0.0203733

>  <SCORE.INTRA.VDW.0>
-0.659551

>  <SCORE.INTRA.norm>
-0.165251

>  <SCORE.RESTR>
0

>  <SCORE.RESTR.CAVITY>
0

>  <SCORE.RESTR.norm>
0

>  <SCORE.SYSTEM>
0

>  <SCORE.SYSTEM.CONST>
0

>  <SCORE.SYSTEM.DIHEDRAL>
0

>  <SCORE.SYSTEM.SOLV>
0

>  <SCORE.SYSTEM.norm>
0

>  <SCORE.heavy>
10

>  <SCORE.norm>
-1.02869

>  <RMSD>
5.551

$$$$
ligand
 OpenBabel11021811473D
libRbt.so/2013.1/901 2013/11/27
 10  9  0  0  0  0  0  0  0  0999 V2000
   27.2220   14.2793   18.5586 N   0  0  0  0  0  0  0  0  0  0  0  0
   27.8132   14.5339   19.9021 C   0  0  2  0  0  0  0  0  0  0  0  0
   26.7532   14.9158   20.9354 C   0  0  0  0  0  0  0  0  0  0  0  0
   25.5919   15.1847   20.6116 O   0  0  0  0  0  0  0  0  0  0  0  0
   28.9126   15.5962   19.8205 C   0  0  0  0  0  0  0  0  0  0  0  0
   29.7804   15.6953   21.0681 C   0  0  0  0  0  0  0  0  0  0  0  0
   30.8163   16.8108   20.9311 C   0  0  0  0  0  0  0  0  0  0  0  0
   31.7153   16.9025   22.1590 C   0  0  0  0  0  0  0  0  0  0  0  0
   32.6913   18.0286   22.0770 N   0  0  0  0  0  0  0  0  0  0  0  0
   27.0295   14.9415   22.1329 O   0  0  0  0  0  0  0  0  0  0  0  0
  2  1  1  6  0  0  0
  2  3  1  0  0  0  0
  2  5  1  0  0  0  0
  3  4  1  0  0  0  0
  3 10  1  0  0  0  0
  5  6  1  0  0  0  0
  6  7  1  0  0  0  0
  7  8  1  0  0  0  0
  8  9  1  0  0  0  0
M  END
>  <CHROM.1>
-10.88418623,-166.89738581,-177.80430088,-178.67124129,-177.15630621,28.79872592
15.69053399,20.84013621,-2.76786104,0.35622466,1.26732107

>  <Name>
ligand

>  <RI>
0

>  <Rbt.Current_Directory>
/home/itssahil/PROJECTS/Mol_Feturizer/New_Systems/rnas/3DJ2

>  <Rbt.Executable>
rbdock ($Id: //depot/dev/client3/rdock/2013.1/src/exe/rbdock.cxx#4 $)

>  <Rbt.Library>
libRbt.so (2013.1, Build901 2013/11/27)

>  <Rbt.Parameter_File>
/export/apps/rDock/src/rDock_2013.1_src/data/scripts/dock_solv.prm

>  <Rbt.Receptor>
prm/pocket_docking_5.prm

>  <SCORE>
-10.1184

>  <SCORE.INTER>
-8.36869

>  <SCORE.INTER.CONST>
1

>  <SCORE.INTER.POLAR>
0

>  <SCORE.INTER.ROT>
5

>  <SCORE.INTER.SOLV>
15.7453

>  <SCORE.INTER.VDW>
-17.7609

>  <SCORE.INTER.norm>
-0.836869

>  <SCORE.INTRA>
-1.74968

>  <SCORE.INTRA.DIHEDRAL>
-2.05562

>  <SCORE.INTRA.DIHEDRAL.0>
4.28128

>  <SCORE.INTRA.POLAR>
0

>  <SCORE.INTRA.POLAR.0>
0

>  <SCORE.INTRA.REPUL>
0

>  <SCORE.INTRA.REPUL.0>
0

>  <SCORE.INTRA.SOLV>
-1.31942

>  <SCORE.INTRA.SOLV.lig_0>
-32.3374

>  <SCORE.INTRA.VDW>
-0.0621609

>  <SCORE.INTRA.VDW.0>
-0.659551

>  <SCORE.INTRA.norm>
-0.174968

>  <SCORE.RESTR>
0

>  <SCORE.RESTR.CAVITY>
0

>  <SCORE.RESTR.norm>
0

>  <SCORE.SYSTEM>
0

>  <SCORE.SYSTEM.CONST>
0

>  <SCORE.SYSTEM.DIHEDRAL>
0

>  <SCORE.SYSTEM.SOLV>
0

>  <SCORE.SYSTEM.norm>
0

>  <SCORE.heavy>
10

>  <SCORE.norm>
-1.01184

>  <RMSD>
5.552

$$$$
ligand
 OpenBabel11021811473D
libRbt.so/2013.1/901 2013/11/27
 10  9  0  0  0  0  0  0  0  0999 V2000
   25.6505   15.1229   20.5709 N   0  0  0  0  0  0  0  0  0  0  0  0
   27.0773   15.3573   20.2126 C   0  0  2  0  0  0  0  0  0  0  0  0
   27.4323   14.7710   18.8460 C   0  0  0  0  0  0  0  0  0  0  0  0
   27.0509   13.6491   18.4972 O   0  0  0  0  0  0  0  0  0  0  0  0
   28.0078   14.8192   21.3027 C   0  0  0  0  0  0  0  0  0  0  0  0
   29.4820   15.1248   21.0736 C   0  0  0  0  0  0  0  0  0  0  0  0
   29.7398   16.6314   21.0820 C   0  0  0  0  0  0  0  0  0  0  0  0
   31.2085   16.9559   20.8332 C   0  0  0  0  0  0  0  0  0  0  0  0
   32.1045   16.4368   21.9080 N   0  0  0  0  0  0  0  0  0  0  0  0
   28.0955   15.4214   18.0409 O   0  0  0  0  0  0  0  0  0  0  0  0
  2  1  1  1  0  0  0
  2  3  1  0  0  0  0
  2  5  1  0  0  0  0
  3  4  1  0  0  0  0
  3 10  1  0  0  0  0
  5  6  1  0  0  0  0
  6  7  1  0  0  0  0
  7  8  1  0  0  0  0
  8  9  1  0  0  0  0
M  END
>  <CHROM.1>
-43.48932245,-174.98047709,62.85810804,-179.15243720,-63.55468773,28.58376838
15.41381480,20.20145241,2.64804679,-0.32426851,-1.75299112

>  <Name>
ligand

>  <RI>
0

>  <Rbt.Current_Directory>
/home/itssahil/PROJECTS/Mol_Feturizer/New_Systems/rnas/3DJ2

>  <Rbt.Executable>
rbdock ($Id: //depot/dev/client3/rdock/2013.1/src/exe/rbdock.cxx#4 $)

>  <Rbt.Library>
libRbt.so (2013.1, Build901 2013/11/27)

>  <Rbt.Parameter_File>
/export/apps/rDock/src/rDock_2013.1_src/data/scripts/dock_solv.prm

>  <Rbt.Receptor>
prm/pocket_docking_4.prm

>  <SCORE>
-9.22741

>  <SCORE.INTER>
-7.91376

>  <SCORE.INTER.CONST>
1

>  <SCORE.INTER.POLAR>
0

>  <SCORE.INTER.ROT>
5

>  <SCORE.INTER.SOLV>
17.4869

>  <SCORE.INTER.VDW>
-18.0381

>  <SCORE.INTER.norm>
-0.791376

>  <SCORE.INTRA>
-1.31365

>  <SCORE.INTRA.DIHEDRAL>
-2.55289

>  <SCORE.INTRA.DIHEDRAL.0>
4.28128

>  <SCORE.INTRA.POLAR>
0

>  <SCORE.INTRA.POLAR.0>
0

>  <SCORE.INTRA.REPUL>
0

>  <SCORE.INTRA.REPUL.0>
0

>  <SCORE.INTRA.SOLV>
-0.179448

>  <SCORE.INTRA.SOLV.lig_0>
-32.3374

>  <SCORE.INTRA.VDW>
0.0525163

>  <SCORE.INTRA.VDW.0>
-0.659551

>  <SCORE.INTRA.norm>
-0.131365

>  <SCORE.RESTR>
0

>  <SCORE.RESTR.CAVITY>
0

>  <SCORE.RESTR.norm>
0

>  <SCORE.SYSTEM>
0

>  <SCORE.SYSTEM.CONST>
0

>  <SCORE.SYSTEM.DIHEDRAL>
0

>  <SCORE.SYSTEM.SOLV>
0

>  <SCORE.SYSTEM.norm>
0

>  <SCORE.heavy>
10

>  <SCORE.norm>
-0.922741

>  <RMSD>
5.554

$$$$
ligand
 OpenBabel11021811473D
libRbt.so/2013.1/901 2013/11/27
 10  9  0  0  0  0  0  0  0  0999 V2000
   27.2115   14.2020   18.4787 N   0  0  0  0  0  0  0  0  0  0  0  0
   27.8022   14.4497   19.8236 C   0  0  2  0  0  0  0  0  0  0  0  0
   26.7487   14.8758   20.8463 C   0  0  0  0  0  0  0  0  0  0  0  0
   25.6106   15.2172   20.5086 O   0  0  0  0  0  0  0  0  0  0  0  0
   28.9363   15.4746   19.7396 C   0  0  0  0  0  0  0  0  0  0  0  0
   29.7840   15.5742   21.0009 C   0  0  0  0  0  0  0  0  0  0  0  0
   30.8500   16.6609   20.8635 C   0  0  0  0  0  0  0  0  0  0  0  0
   31.7577   16.7215   22.0869 C   0  0  0  0  0  0  0  0  0  0  0  0
   32.7328   17.8498   22.0269 N   0  0  0  0  0  0  0  0  0  0  0  0
   27.0057   14.8657   22.0484 O   0  0  0  0  0  0  0  0  0  0  0  0
  2  1  1  6  0  0  0
  2  3  1  0  0  0  0
  2  5  1  0  0  0  0
  3  4  1  0  0  0  0
  3 10  1  0  0  0  0
  5  6  1  0  0  0  0
  6  7  1  0  0  0  0
  7  8  1  0  0  0  0
  8  9  1  0  0  0  0
M  END
>  <CHROM.1>
-13.05051580,-167.90818694,-177.33542896,-176.81522810,-175.13745500,28.81010340
15.59202670,20.76255463,-2.76639889,0.32824517,1.25915703

>  <Name>
ligand

>  <RI>
0

>  <Rbt.Current_Directory>
/home/itssahil/PROJECTS/Mol_Feturizer/New_Systems/rnas/3DJ2

>  <Rbt.Executable>
rbdock ($Id: //depot/dev/client3/rdock/2013.1/src/exe/rbdock.cxx#4 $)

>  <Rbt.Library>
libRbt.so (2013.1, Build901 2013/11/27)

>  <Rbt.Parameter_File>
/export/apps/rDock/src/rDock_2013.1_src/data/scripts/dock_solv.prm

>  <Rbt.Receptor>
prm/blind_docking_60.prm

>  <SCORE>
-10.2377

>  <SCORE.INTER>
-8.48424

>  <SCORE.INTER.CONST>
1

>  <SCORE.INTER.POLAR>
0

>  <SCORE.INTER.ROT>
5

>  <SCORE.INTER.SOLV>
15.8816

>  <SCORE.INTER.VDW>
-17.8834

>  <SCORE.INTER.norm>
-0.848424

>  <SCORE.INTRA>
-1.75342

>  <SCORE.INTRA.DIHEDRAL>
-2.03891

>  <SCORE.INTRA.DIHEDRAL.0>
4.28128

>  <SCORE.INTRA.POLAR>
0

>  <SCORE.INTRA.POLAR.0>
0

>  <SCORE.INTRA.REPUL>
0

>  <SCORE.INTRA.REPUL.0>
0

>  <SCORE.INTRA.SOLV>
-1.32023

>  <SCORE.INTRA.SOLV.lig_0>
-32.3374

>  <SCORE.INTRA.VDW>
-0.0738491

>  <SCORE.INTRA.VDW.0>
-0.659551

>  <SCORE.INTRA.norm>
-0.175342

>  <SCORE.RESTR>
0

>  <SCORE.RESTR.CAVITY>
0

>  <SCORE.RESTR.norm>
0

>  <SCORE.SYSTEM>
0

>  <SCORE.SYSTEM.CONST>
0

>  <SCORE.SYSTEM.DIHEDRAL>
0

>  <SCORE.SYSTEM.SOLV>
0

>  <SCORE.SYSTEM.norm>
0

>  <SCORE.heavy>
10

>  <SCORE.norm>
-1.02377

>  <RMSD>
5.557

$$$$
ligand
 OpenBabel11021811473D
libRbt.so/2013.1/901 2013/11/27
 10  9  0  0  0  0  0  0  0  0999 V2000
   25.9351   15.0713   20.6188 N   0  0  0  0  0  0  0  0  0  0  0  0
   27.2223   15.4532   19.9735 C   0  0  2  0  0  0  0  0  0  0  0  0
   27.4136   14.7694   18.6196 C   0  0  0  0  0  0  0  0  0  0  0  0
   27.9945   15.3264   17.6825 O   0  0  0  0  0  0  0  0  0  0  0  0
   28.4033   15.1714   20.9060 C   0  0  0  0  0  0  0  0  0  0  0  0
   29.7571   15.5831   20.3427 C   0  0  0  0  0  0  0  0  0  0  0  0
   30.8914   15.1766   21.2830 C   0  0  0  0  0  0  0  0  0  0  0  0
   30.9509   16.0694   22.5175 C   0  0  0  0  0  0  0  0  0  0  0  0
   31.3216   17.4783   22.1936 N   0  0  0  0  0  0  0  0  0  0  0  0
   27.0087   13.6233   18.4363 O   0  0  0  0  0  0  0  0  0  0  0  0
  2  1  1  1  0  0  0
  2  3  1  0  0  0  0
  2  5  1  0  0  0  0
  3  4  1  0  0  0  0
  3 10  1  0  0  0  0
  5  6  1  0  0  0  0
  6  7  1  0  0  0  0
  7  8  1  0  0  0  0
  8  9  1  0  0  0  0
M  END
>  <CHROM.1>
145.93840019,-177.80135680,-175.78034625,-73.89344909,-66.32247990,28.68535111
15.35491514,20.22097600,2.42642736,-0.21634013,-1.83145366

>  <Name>
ligand

>  <RI>
0

>  <Rbt.Current_Directory>
/home/itssahil/PROJECTS/Mol_Feturizer/New_Systems/rnas/3DJ2

>  <Rbt.Executable>
rbdock ($Id: //depot/dev/client3/rdock/2013.1/src/exe/rbdock.cxx#4 $)

>  <Rbt.Library>
libRbt.so (2013.1, Build901 2013/11/27)

>  <Rbt.Parameter_File>
/export/apps/rDock/src/rDock_2013.1_src/data/scripts/dock_solv.prm

>  <Rbt.Receptor>
prm/pocket_docking_4.prm

>  <SCORE>
-8.67095

>  <SCORE.INTER>
-8.12352

>  <SCORE.INTER.CONST>
1

>  <SCORE.INTER.POLAR>
0

>  <SCORE.INTER.ROT>
5

>  <SCORE.INTER.SOLV>
16.9157

>  <SCORE.INTER.VDW>
-17.9876

>  <SCORE.INTER.norm>
-0.812352

>  <SCORE.INTRA>
-0.547424

>  <SCORE.INTRA.DIHEDRAL>
-1.79196

>  <SCORE.INTRA.DIHEDRAL.0>
4.28128

>  <SCORE.INTRA.POLAR>
0

>  <SCORE.INTRA.POLAR.0>
0

>  <SCORE.INTRA.REPUL>
0

>  <SCORE.INTRA.REPUL.0>
0

>  <SCORE.INTRA.SOLV>
-0.0622683

>  <SCORE.INTRA.SOLV.lig_0>
-32.3374

>  <SCORE.INTRA.VDW>
0.379689

>  <SCORE.INTRA.VDW.0>
-0.659551

>  <SCORE.INTRA.norm>
-0.0547424

>  <SCORE.RESTR>
0

>  <SCORE.RESTR.CAVITY>
0

>  <SCORE.RESTR.norm>
0

>  <SCORE.SYSTEM>
0

>  <SCORE.SYSTEM.CONST>
0

>  <SCORE.SYSTEM.DIHEDRAL>
0

>  <SCORE.SYSTEM.SOLV>
0

>  <SCORE.SYSTEM.norm>
0

>  <SCORE.heavy>
10

>  <SCORE.norm>
-0.867095

>  <RMSD>
5.557

$$$$
ligand
 OpenBabel11021811473D
libRbt.so/2013.1/901 2013/11/27
 10  9  0  0  0  0  0  0  0  0999 V2000
   28.7103   14.1282   22.1360 N   0  0  0  0  0  0  0  0  0  0  0  0
   28.3242   15.4798   21.6427 C   0  0  2  0  0  0  0  0  0  0  0  0
   26.9954   15.4598   20.8869 C   0  0  0  0  0  0  0  0  0  0  0  0
   26.7997   16.1632   19.8905 O   0  0  0  0  0  0  0  0  0  0  0  0
   29.4383   16.0847   20.7845 C   0  0  0  0  0  0  0  0  0  0  0  0
   30.7610   16.2699   21.5164 C   0  0  0  0  0  0  0  0  0  0  0  0
   31.8436   16.7935   20.5731 C   0  0  0  0  0  0  0  0  0  0  0  0
   33.1608   17.0355   21.3017 C   0  0  0  0  0  0  0  0  0  0  0  0
   33.0537   18.0892   22.3532 N   0  0  0  0  0  0  0  0  0  0  0  0
   26.0853   14.7147   21.2440 O   0  0  0  0  0  0  0  0  0  0  0  0
  2  1  1  6  0  0  0
  2  3  1  0  0  0  0
  2  5  1  0  0  0  0
  3  4  1  0  0  0  0
  3 10  1  0  0  0  0
  5  6  1  0  0  0  0
  6  7  1  0  0  0  0
  7  8  1  0  0  0  0
  8  9  1  0  0  0  0
M  END
>  <CHROM.1>
-142.71430637,-60.47944129,176.40110650,177.81202706,-63.09362195,29.47542063
16.01742367,21.21601115,-2.96045583,-0.31291733,-0.75723053

>  <Name>
ligand

>  <RI>
0

>  <Rbt.Current_Directory>
/home/itssahil/PROJECTS/Mol_Feturizer/New_Systems/rnas/3DJ2

>  <Rbt.Executable>
rbdock ($Id: //depot/dev/client3/rdock/2013.1/src/exe/rbdock.cxx#4 $)

>  <Rbt.Library>
libRbt.so (2013.1, Build901 2013/11/27)

>  <Rbt.Parameter_File>
/export/apps/rDock/src/rDock_2013.1_src/data/scripts/dock_solv.prm

>  <Rbt.Receptor>
prm/pocket_docking_8.prm

>  <SCORE>
-8.44573

>  <SCORE.INTER>
-7.89689

>  <SCORE.INTER.CONST>
1

>  <SCORE.INTER.POLAR>
0

>  <SCORE.INTER.ROT>
5

>  <SCORE.INTER.SOLV>
17.4245

>  <SCORE.INTER.VDW>
-18.0061

>  <SCORE.INTER.norm>
-0.789689

>  <SCORE.INTRA>
-0.548837

>  <SCORE.INTRA.DIHEDRAL>
-2.59834

>  <SCORE.INTRA.DIHEDRAL.0>
4.28128

>  <SCORE.INTRA.POLAR>
0

>  <SCORE.INTRA.POLAR.0>
0

>  <SCORE.INTRA.REPUL>
0

>  <SCORE.INTRA.REPUL.0>
0

>  <SCORE.INTRA.SOLV>
0.488224

>  <SCORE.INTRA.SOLV.lig_0>
-32.3374

>  <SCORE.INTRA.VDW>
0.506223

>  <SCORE.INTRA.VDW.0>
-0.659551

>  <SCORE.INTRA.norm>
-0.0548837

>  <SCORE.RESTR>
0

>  <SCORE.RESTR.CAVITY>
0

>  <SCORE.RESTR.norm>
0

>  <SCORE.SYSTEM>
0

>  <SCORE.SYSTEM.CONST>
0

>  <SCORE.SYSTEM.DIHEDRAL>
0

>  <SCORE.SYSTEM.SOLV>
0

>  <SCORE.SYSTEM.norm>
0

>  <SCORE.heavy>
10

>  <SCORE.norm>
-0.844573

>  <RMSD>
5.560

$$$$
ligand
 OpenBabel11021811473D
libRbt.so/2013.1/901 2013/11/27
 10  9  0  0  0  0  0  0  0  0999 V2000
   26.3060   15.6214   19.9811 N   0  0  0  0  0  0  0  0  0  0  0  0
   27.6952   15.1423   19.7364 C   0  0  2  0  0  0  0  0  0  0  0  0
   27.7831   14.2298   18.5129 C   0  0  0  0  0  0  0  0  0  0  0  0
   26.8911   13.4218   18.2349 O   0  0  0  0  0  0  0  0  0  0  0  0
   28.2604   14.4529   20.9810 C   0  0  0  0  0  0  0  0  0  0  0  0
   28.9235   15.3990   21.9733 C   0  0  0  0  0  0  0  0  0  0  0  0
   30.2153   15.9811   21.4001 C   0  0  0  0  0  0  0  0  0  0  0  0
   30.8742   16.9580   22.3674 C   0  0  0  0  0  0  0  0  0  0  0  0
   32.1484   17.5253   21.8364 N   0  0  0  0  0  0  0  0  0  0  0  0
   28.7467   14.2963   17.7526 O   0  0  0  0  0  0  0  0  0  0  0  0
  2  1  1  1  0  0  0
  2  3  1  0  0  0  0
  2  5  1  0  0  0  0
  3  4  1  0  0  0  0
  3 10  1  0  0  0  0
  5  6  1  0  0  0  0
  6  7  1  0  0  0  0
  7  8  1  0  0  0  0
  8  9  1  0  0  0  0
M  END
>  <CHROM.1>
-37.26304541,-86.85223754,-68.45678279,178.56774485,179.20084098,28.77935673
15.27852827,20.24264725,2.31722912,-0.28773519,-1.97781196

>  <Name>
ligand

>  <RI>
0

>  <Rbt.Current_Directory>
/home/itssahil/PROJECTS/Mol_Feturizer/New_Systems/rnas/3DJ2

>  <Rbt.Executable>
rbdock ($Id: //depot/dev/client3/rdock/2013.1/src/exe/rbdock.cxx#4 $)

>  <Rbt.Library>
libRbt.so (2013.1, Build901 2013/11/27)

>  <Rbt.Parameter_File>
/export/apps/rDock/src/rDock_2013.1_src/data/scripts/dock_solv.prm

>  <Rbt.Receptor>
prm/pocket_docking_7.prm

>  <SCORE>
-8.07012

>  <SCORE.INTER>
-7.68384

>  <SCORE.INTER.CONST>
1

>  <SCORE.INTER.POLAR>
0

>  <SCORE.INTER.ROT>
5

>  <SCORE.INTER.SOLV>
15.8611

>  <SCORE.INTER.VDW>
-17.3429

>  <SCORE.INTER.norm>
-0.768384

>  <SCORE.INTRA>
-0.386279

>  <SCORE.INTRA.DIHEDRAL>
0.0296673

>  <SCORE.INTRA.DIHEDRAL.0>
4.28128

>  <SCORE.INTRA.POLAR>
0

>  <SCORE.INTRA.POLAR.0>
0

>  <SCORE.INTRA.REPUL>
0

>  <SCORE.INTRA.REPUL.0>
0

>  <SCORE.INTRA.SOLV>
-0.453445

>  <SCORE.INTRA.SOLV.lig_0>
-32.3374

>  <SCORE.INTRA.VDW>
-0.17439

>  <SCORE.INTRA.VDW.0>
-0.659551

>  <SCORE.INTRA.norm>
-0.0386279

>  <SCORE.RESTR>
0

>  <SCORE.RESTR.CAVITY>
0

>  <SCORE.RESTR.norm>
0

>  <SCORE.SYSTEM>
0

>  <SCORE.SYSTEM.CONST>
0

>  <SCORE.SYSTEM.DIHEDRAL>
0

>  <SCORE.SYSTEM.SOLV>
0

>  <SCORE.SYSTEM.norm>
0

>  <SCORE.heavy>
10

>  <SCORE.norm>
-0.807012

>  <RMSD>
5.561

$$$$
ligand
 OpenBabel11021811473D
libRbt.so/2013.1/901 2013/11/27
 10  9  0  0  0  0  0  0  0  0999 V2000
   25.7040   15.1042   20.5360 N   0  0  0  0  0  0  0  0  0  0  0  0
   27.0614   15.5719   20.1386 C   0  0  2  0  0  0  0  0  0  0  0  0
   27.5052   14.9826   18.7996 C   0  0  0  0  0  0  0  0  0  0  0  0
   28.1868   15.6270   17.9958 O   0  0  0  0  0  0  0  0  0  0  0  0
   28.0835   15.2740   21.2388 C   0  0  0  0  0  0  0  0  0  0  0  0
   29.4455   15.9187   21.0184 C   0  0  0  0  0  0  0  0  0  0  0  0
   30.4158   15.5535   22.1415 C   0  0  0  0  0  0  0  0  0  0  0  0
   31.7853   16.1912   21.9362 C   0  0  0  0  0  0  0  0  0  0  0  0
   31.7535   17.6784   22.0564 N   0  0  0  0  0  0  0  0  0  0  0  0
   27.2100   13.8283   18.4971 O   0  0  0  0  0  0  0  0  0  0  0  0
  2  1  1  1  0  0  0
  2  3  1  0  0  0  0
  2  5  1  0  0  0  0
  3  4  1  0  0  0  0
  3 10  1  0  0  0  0
  5  6  1  0  0  0  0
  6  7  1  0  0  0  0
  7  8  1  0  0  0  0
  8  9  1  0  0  0  0
M  END
>  <CHROM.1>
144.59736610,-170.46404148,-178.89695710,179.99889741,66.88195646,28.71575765
15.55756202,20.39987744,2.54198608,-0.29781580,-1.72137048

>  <Name>
ligand

>  <RI>
0

>  <Rbt.Current_Directory>
/home/itssahil/PROJECTS/Mol_Feturizer/New_Systems/rnas/3DJ2

>  <Rbt.Executable>
rbdock ($Id: //depot/dev/client3/rdock/2013.1/src/exe/rbdock.cxx#4 $)

>  <Rbt.Library>
libRbt.so (2013.1, Build901 2013/11/27)

>  <Rbt.Parameter_File>
/export/apps/rDock/src/rDock_2013.1_src/data/scripts/dock_solv.prm

>  <Rbt.Receptor>
prm/pocket_docking_7.prm

>  <SCORE>
-9.88673

>  <SCORE.INTER>
-8.33191

>  <SCORE.INTER.CONST>
1

>  <SCORE.INTER.POLAR>
0

>  <SCORE.INTER.ROT>
5

>  <SCORE.INTER.SOLV>
17.462

>  <SCORE.INTER.VDW>
-18.3086

>  <SCORE.INTER.norm>
-0.833191

>  <SCORE.INTRA>
-1.55482

>  <SCORE.INTRA.DIHEDRAL>
-2.29593

>  <SCORE.INTRA.DIHEDRAL.0>
4.28128

>  <SCORE.INTRA.POLAR>
0

>  <SCORE.INTRA.POLAR.0>
0

>  <SCORE.INTRA.REPUL>
0

>  <SCORE.INTRA.REPUL.0>
0

>  <SCORE.INTRA.SOLV>
-0.481087

>  <SCORE.INTRA.SOLV.lig_0>
-32.3374

>  <SCORE.INTRA.VDW>
-0.166307

>  <SCORE.INTRA.VDW.0>
-0.659551

>  <SCORE.INTRA.norm>
-0.155482

>  <SCORE.RESTR>
0

>  <SCORE.RESTR.CAVITY>
0

>  <SCORE.RESTR.norm>
0

>  <SCORE.SYSTEM>
0

>  <SCORE.SYSTEM.CONST>
0

>  <SCORE.SYSTEM.DIHEDRAL>
0

>  <SCORE.SYSTEM.SOLV>
0

>  <SCORE.SYSTEM.norm>
0

>  <SCORE.heavy>
10

>  <SCORE.norm>
-0.988673

>  <RMSD>
5.567

$$$$
ligand
 OpenBabel11021811473D
libRbt.so/2013.1/901 2013/11/27
 10  9  0  0  0  0  0  0  0  0999 V2000
   25.6219   15.0822   20.6245 N   0  0  0  0  0  0  0  0  0  0  0  0
   26.9618   15.6096   20.2426 C   0  0  2  0  0  0  0  0  0  0  0  0
   27.4422   15.0485   18.9041 C   0  0  0  0  0  0  0  0  0  0  0  0
   28.1519   15.7066   18.1366 O   0  0  0  0  0  0  0  0  0  0  0  0
   27.9857   15.3479   21.3503 C   0  0  0  0  0  0  0  0  0  0  0  0
   29.3490   15.9804   21.1041 C   0  0  0  0  0  0  0  0  0  0  0  0
   30.3481   15.5741   22.1870 C   0  0  0  0  0  0  0  0  0  0  0  0
   31.7236   16.1862   21.9467 C   0  0  0  0  0  0  0  0  0  0  0  0
   31.7244   17.6731   22.0759 N   0  0  0  0  0  0  0  0  0  0  0  0
   27.1489   13.9037   18.5658 O   0  0  0  0  0  0  0  0  0  0  0  0
  2  1  1  1  0  0  0
  2  3  1  0  0  0  0
  2  5  1  0  0  0  0
  3  4  1  0  0  0  0
  3 10  1  0  0  0  0
  5  6  1  0  0  0  0
  6  7  1  0  0  0  0
  7  8  1  0  0  0  0
  8  9  1  0  0  0  0
M  END
>  <CHROM.1>
147.81006571,-174.05767284,-175.00685640,179.34530289,66.10563821,28.64713055
15.59652562,20.47800429,2.56425262,-0.29827574,-1.70986022

>  <Name>
ligand

>  <RI>
0

>  <Rbt.Current_Directory>
/home/itssahil/PROJECTS/Mol_Feturizer/New_Systems/rnas/3DJ2

>  <Rbt.Executable>
rbdock ($Id: //depot/dev/client3/rdock/2013.1/src/exe/rbdock.cxx#4 $)

>  <Rbt.Library>
libRbt.so (2013.1, Build901 2013/11/27)

>  <Rbt.Parameter_File>
/export/apps/rDock/src/rDock_2013.1_src/data/scripts/dock_solv.prm

>  <Rbt.Receptor>
prm/pocket_docking_4.prm

>  <SCORE>
-9.77251

>  <SCORE.INTER>
-8.19412

>  <SCORE.INTER.CONST>
1

>  <SCORE.INTER.POLAR>
0

>  <SCORE.INTER.ROT>
5

>  <SCORE.INTER.SOLV>
17.7491

>  <SCORE.INTER.VDW>
-18.3124

>  <SCORE.INTER.norm>
-0.819412

>  <SCORE.INTRA>
-1.57839

>  <SCORE.INTRA.DIHEDRAL>
-2.43771

>  <SCORE.INTRA.DIHEDRAL.0>
4.28128

>  <SCORE.INTRA.POLAR>
0

>  <SCORE.INTRA.POLAR.0>
0

>  <SCORE.INTRA.REPUL>
0

>  <SCORE.INTRA.REPUL.0>
0

>  <SCORE.INTRA.SOLV>
-0.475321

>  <SCORE.INTRA.SOLV.lig_0>
-32.3374

>  <SCORE.INTRA.VDW>
-0.121872

>  <SCORE.INTRA.VDW.0>
-0.659551

>  <SCORE.INTRA.norm>
-0.157839

>  <SCORE.RESTR>
0

>  <SCORE.RESTR.CAVITY>
0

>  <SCORE.RESTR.norm>
0

>  <SCORE.SYSTEM>
0

>  <SCORE.SYSTEM.CONST>
0

>  <SCORE.SYSTEM.DIHEDRAL>
0

>  <SCORE.SYSTEM.SOLV>
0

>  <SCORE.SYSTEM.norm>
0

>  <SCORE.heavy>
10

>  <SCORE.norm>
-0.977251

>  <RMSD>
5.569

$$$$
ligand
 OpenBabel11021811473D
libRbt.so/2013.1/901 2013/11/27
 10  9  0  0  0  0  0  0  0  0999 V2000
   28.8298   16.2497   19.5012 N   0  0  0  0  0  0  0  0  0  0  0  0
   27.6642   15.3682   19.2120 C   0  0  2  0  0  0  0  0  0  0  0  0
   26.9764   14.8846   20.4889 C   0  0  0  0  0  0  0  0  0  0  0  0
   25.7512   14.9453   20.6342 O   0  0  0  0  0  0  0  0  0  0  0  0
   28.0795   14.1891   18.3283 C   0  0  0  0  0  0  0  0  0  0  0  0
   26.9341   13.2623   17.9430 C   0  0  0  0  0  0  0  0  0  0  0  0
   27.4561   11.9882   17.2794 C   0  0  0  0  0  0  0  0  0  0  0  0
   26.4199   10.8702   17.3066 C   0  0  0  0  0  0  0  0  0  0  0  0
   26.9665    9.5648   16.8330 N   0  0  0  0  0  0  0  0  0  0  0  0
   27.6337   14.3950   21.4049 O   0  0  0  0  0  0  0  0  0  0  0  0
  2  1  1  1  0  0  0
  2  3  1  0  0  0  0
  2  5  1  0  0  0  0
  3  4  1  0  0  0  0
  3 10  1  0  0  0  0
  5  6  1  0  0  0  0
  6  7  1  0  0  0  0
  7  8  1  0  0  0  0
  8  9  1  0  0  0  0
M  END
>  <CHROM.1>
131.87715289,-177.93982711,-169.88302246,161.03894207,-172.24244028,27.25617258
13.57105857,18.92773247,-1.42273671,-0.80504205,-2.42574163

>  <Name>
ligand

>  <RI>
0

>  <Rbt.Current_Directory>
/home/itssahil/PROJECTS/Mol_Feturizer/New_Systems/rnas/3DJ2

>  <Rbt.Executable>
rbdock ($Id: //depot/dev/client3/rdock/2013.1/src/exe/rbdock.cxx#4 $)

>  <Rbt.Library>
libRbt.so (2013.1, Build901 2013/11/27)

>  <Rbt.Parameter_File>
/export/apps/rDock/src/rDock_2013.1_src/data/scripts/dock_solv.prm

>  <Rbt.Receptor>
prm/blind_docking_40.prm

>  <SCORE>
-11.3298

>  <SCORE.INTER>
-10.2831

>  <SCORE.INTER.CONST>
1

>  <SCORE.INTER.POLAR>
0

>  <SCORE.INTER.ROT>
5

>  <SCORE.INTER.SOLV>
15.3863

>  <SCORE.INTER.VDW>
-18.9175

>  <SCORE.INTER.norm>
-1.02831

>  <SCORE.INTRA>
-1.20637

>  <SCORE.INTRA.DIHEDRAL>
-0.73923

>  <SCORE.INTRA.DIHEDRAL.0>
4.28128

>  <SCORE.INTRA.POLAR>
0

>  <SCORE.INTRA.POLAR.0>
0

>  <SCORE.INTRA.REPUL>
0

>  <SCORE.INTRA.REPUL.0>
0

>  <SCORE.INTRA.SOLV>
-1.34147

>  <SCORE.INTRA.SOLV.lig_0>
-32.3374

>  <SCORE.INTRA.VDW>
-0.166015

>  <SCORE.INTRA.VDW.0>
-0.659551

>  <SCORE.INTRA.norm>
-0.120637

>  <SCORE.RESTR>
0.159641

>  <SCORE.RESTR.CAVITY>
0.159641

>  <SCORE.RESTR.norm>
0.0159641

>  <SCORE.SYSTEM>
0

>  <SCORE.SYSTEM.CONST>
0

>  <SCORE.SYSTEM.DIHEDRAL>
0

>  <SCORE.SYSTEM.SOLV>
0

>  <SCORE.SYSTEM.norm>
0

>  <SCORE.heavy>
10

>  <SCORE.norm>
-1.13298

>  <RMSD>
5.570

$$$$
ligand
 OpenBabel11021811473D
libRbt.so/2013.1/901 2013/11/27
 10  9  0  0  0  0  0  0  0  0999 V2000
   25.7088   15.0326   20.5667 N   0  0  0  0  0  0  0  0  0  0  0  0
   27.0500   15.5412   20.1644 C   0  0  2  0  0  0  0  0  0  0  0  0
   27.4913   14.9926   18.8074 C   0  0  0  0  0  0  0  0  0  0  0  0
   28.1475   15.6708   18.0104 O   0  0  0  0  0  0  0  0  0  0  0  0
   28.0919   15.2431   21.2457 C   0  0  0  0  0  0  0  0  0  0  0  0
   29.4397   15.9146   21.0176 C   0  0  0  0  0  0  0  0  0  0  0  0
   30.4429   15.5175   22.1002 C   0  0  0  0  0  0  0  0  0  0  0  0
   31.7942   16.1933   21.8953 C   0  0  0  0  0  0  0  0  0  0  0  0
   31.7338   17.6728   22.0815 N   0  0  0  0  0  0  0  0  0  0  0  0
   27.2201   13.8385   18.4825 O   0  0  0  0  0  0  0  0  0  0  0  0
  2  1  1  1  0  0  0
  2  3  1  0  0  0  0
  2  5  1  0  0  0  0
  3  4  1  0  0  0  0
  3 10  1  0  0  0  0
  5  6  1  0  0  0  0
  6  7  1  0  0  0  0
  7  8  1  0  0  0  0
  8  9  1  0  0  0  0
M  END
>  <CHROM.1>
144.57365883,-170.99301738,-177.33522318,-179.37874586,66.64563942,28.71258291
15.54719682,20.40091012,2.55413768,-0.31300889,-1.69766970

>  <Name>
ligand

>  <RI>
0

>  <Rbt.Current_Directory>
/home/itssahil/PROJECTS/Mol_Feturizer/New_Systems/rnas/3DJ2

>  <Rbt.Executable>
rbdock ($Id: //depot/dev/client3/rdock/2013.1/src/exe/rbdock.cxx#4 $)

>  <Rbt.Library>
libRbt.so (2013.1, Build901 2013/11/27)

>  <Rbt.Parameter_File>
/export/apps/rDock/src/rDock_2013.1_src/data/scripts/dock_solv.prm

>  <Rbt.Receptor>
prm/pocket_docking_5.prm

>  <SCORE>
-9.90564

>  <SCORE.INTER>
-8.33297

>  <SCORE.INTER.CONST>
1

>  <SCORE.INTER.POLAR>
0

>  <SCORE.INTER.ROT>
5

>  <SCORE.INTER.SOLV>
17.5094

>  <SCORE.INTER.VDW>
-18.3251

>  <SCORE.INTER.norm>
-0.833297

>  <SCORE.INTRA>
-1.57267

>  <SCORE.INTRA.DIHEDRAL>
-2.31717

>  <SCORE.INTRA.DIHEDRAL.0>
4.28128

>  <SCORE.INTRA.POLAR>
0

>  <SCORE.INTRA.POLAR.0>
0

>  <SCORE.INTRA.REPUL>
0

>  <SCORE.INTRA.REPUL.0>
0

>  <SCORE.INTRA.SOLV>
-0.475062

>  <SCORE.INTRA.SOLV.lig_0>
-32.3374

>  <SCORE.INTRA.VDW>
-0.176548

>  <SCORE.INTRA.VDW.0>
-0.659551

>  <SCORE.INTRA.norm>
-0.157267

>  <SCORE.RESTR>
0

>  <SCORE.RESTR.CAVITY>
0

>  <SCORE.RESTR.norm>
0

>  <SCORE.SYSTEM>
0

>  <SCORE.SYSTEM.CONST>
0

>  <SCORE.SYSTEM.DIHEDRAL>
0

>  <SCORE.SYSTEM.SOLV>
0

>  <SCORE.SYSTEM.norm>
0

>  <SCORE.heavy>
10

>  <SCORE.norm>
-0.990564

>  <RMSD>
5.570

$$$$
ligand
 OpenBabel11021811473D
libRbt.so/2013.1/901 2013/11/27
 10  9  0  0  0  0  0  0  0  0999 V2000
   25.7293   15.0850   20.5400 N   0  0  0  0  0  0  0  0  0  0  0  0
   27.0867   15.5420   20.1301 C   0  0  2  0  0  0  0  0  0  0  0  0
   27.5203   14.9360   18.7952 C   0  0  0  0  0  0  0  0  0  0  0  0
   27.2115   13.7853   18.4689 O   0  0  0  0  0  0  0  0  0  0  0  0
   28.1134   15.2513   21.2279 C   0  0  0  0  0  0  0  0  0  0  0  0
   29.4698   15.9070   21.0051 C   0  0  0  0  0  0  0  0  0  0  0  0
   30.4514   15.5325   22.1152 C   0  0  0  0  0  0  0  0  0  0  0  0
   31.8065   16.2042   21.9232 C   0  0  0  0  0  0  0  0  0  0  0  0
   31.7438   17.6867   22.0831 N   0  0  0  0  0  0  0  0  0  0  0  0
   28.1761   15.5974   17.9930 O   0  0  0  0  0  0  0  0  0  0  0  0
  2  1  1  1  0  0  0
  2  3  1  0  0  0  0
  2  5  1  0  0  0  0
  3  4  1  0  0  0  0
  3 10  1  0  0  0  0
  5  6  1  0  0  0  0
  6  7  1  0  0  0  0
  7  8  1  0  0  0  0
  8  9  1  0  0  0  0
M  END
>  <CHROM.1>
-35.44238952,-169.45794581,-178.08439792,-178.80924329,66.87522540,28.73091727
15.53732213,20.39194648,2.53468102,-0.29669831,-1.73530522

>  <Name>
ligand

>  <RI>
0

>  <Rbt.Current_Directory>
/home/itssahil/PROJECTS/Mol_Feturizer/New_Systems/rnas/3DJ2

>  <Rbt.Executable>
rbdock ($Id: //depot/dev/client3/rdock/2013.1/src/exe/rbdock.cxx#4 $)

>  <Rbt.Library>
libRbt.so (2013.1, Build901 2013/11/27)

>  <Rbt.Parameter_File>
/export/apps/rDock/src/rDock_2013.1_src/data/scripts/dock_solv.prm

>  <Rbt.Receptor>
prm/pocket_docking_8.prm

>  <SCORE>
-9.87371

>  <SCORE.INTER>
-8.38455

>  <SCORE.INTER.CONST>
1

>  <SCORE.INTER.POLAR>
0

>  <SCORE.INTER.ROT>
5

>  <SCORE.INTER.SOLV>
17.4414

>  <SCORE.INTER.VDW>
-18.3368

>  <SCORE.INTER.norm>
-0.838455

>  <SCORE.INTRA>
-1.48916

>  <SCORE.INTRA.DIHEDRAL>
-2.11579

>  <SCORE.INTRA.DIHEDRAL.0>
4.28128

>  <SCORE.INTRA.POLAR>
0

>  <SCORE.INTRA.POLAR.0>
0

>  <SCORE.INTRA.REPUL>
0

>  <SCORE.INTRA.REPUL.0>
0

>  <SCORE.INTRA.SOLV>
-0.472306

>  <SCORE.INTRA.SOLV.lig_0>
-32.3374

>  <SCORE.INTRA.VDW>
-0.195117

>  <SCORE.INTRA.VDW.0>
-0.659551

>  <SCORE.INTRA.norm>
-0.148916

>  <SCORE.RESTR>
0

>  <SCORE.RESTR.CAVITY>
0

>  <SCORE.RESTR.norm>
0

>  <SCORE.SYSTEM>
0

>  <SCORE.SYSTEM.CONST>
0

>  <SCORE.SYSTEM.DIHEDRAL>
0

>  <SCORE.SYSTEM.SOLV>
0

>  <SCORE.SYSTEM.norm>
0

>  <SCORE.heavy>
10

>  <SCORE.norm>
-0.987371

>  <RMSD>
5.572

$$$$
ligand
 OpenBabel11021811473D
libRbt.so/2013.1/901 2013/11/27
 10  9  0  0  0  0  0  0  0  0999 V2000
   25.7161   15.0167   20.5776 N   0  0  0  0  0  0  0  0  0  0  0  0
   27.0550   15.5267   20.1696 C   0  0  2  0  0  0  0  0  0  0  0  0
   27.4915   14.9777   18.8112 C   0  0  0  0  0  0  0  0  0  0  0  0
   28.1228   15.6641   18.0012 O   0  0  0  0  0  0  0  0  0  0  0  0
   28.1016   15.2307   21.2469 C   0  0  0  0  0  0  0  0  0  0  0  0
   29.4507   15.8957   21.0078 C   0  0  0  0  0  0  0  0  0  0  0  0
   30.4517   15.5184   22.0994 C   0  0  0  0  0  0  0  0  0  0  0  0
   31.8006   16.1975   21.8901 C   0  0  0  0  0  0  0  0  0  0  0  0
   31.7370   17.6769   22.0760 N   0  0  0  0  0  0  0  0  0  0  0  0
   27.2417   13.8156   18.4980 O   0  0  0  0  0  0  0  0  0  0  0  0
  2  1  1  1  0  0  0
  2  3  1  0  0  0  0
  2  5  1  0  0  0  0
  3  4  1  0  0  0  0
  3 10  1  0  0  0  0
  5  6  1  0  0  0  0
  6  7  1  0  0  0  0
  7  8  1  0  0  0  0
  8  9  1  0  0  0  0
M  END
>  <CHROM.1>
143.23971931,-171.39709310,-178.23322524,-178.89852197,67.52395473,28.71731131
15.53745365,20.40150868,2.55636566,-0.31775897,-1.69522075

>  <Name>
ligand

>  <RI>
0

>  <Rbt.Current_Directory>
/home/itssahil/PROJECTS/Mol_Feturizer/New_Systems/rnas/3DJ2

>  <Rbt.Executable>
rbdock ($Id: //depot/dev/client3/rdock/2013.1/src/exe/rbdock.cxx#4 $)

>  <Rbt.Library>
libRbt.so (2013.1, Build901 2013/11/27)

>  <Rbt.Parameter_File>
/export/apps/rDock/src/rDock_2013.1_src/data/scripts/dock_solv.prm

>  <Rbt.Receptor>
prm/pocket_docking_8.prm

>  <SCORE>
-9.89779

>  <SCORE.INTER>
-8.31891

>  <SCORE.INTER.CONST>
1

>  <SCORE.INTER.POLAR>
0

>  <SCORE.INTER.ROT>
5

>  <SCORE.INTER.SOLV>
17.5288

>  <SCORE.INTER.VDW>
-18.3222

>  <SCORE.INTER.norm>
-0.831891

>  <SCORE.INTRA>
-1.57887

>  <SCORE.INTRA.DIHEDRAL>
-2.30897

>  <SCORE.INTRA.DIHEDRAL.0>
4.28128

>  <SCORE.INTRA.POLAR>
0

>  <SCORE.INTRA.POLAR.0>
0

>  <SCORE.INTRA.REPUL>
0

>  <SCORE.INTRA.REPUL.0>
0

>  <SCORE.INTRA.SOLV>
-0.486118

>  <SCORE.INTRA.SOLV.lig_0>
-32.3374

>  <SCORE.INTRA.VDW>
-0.181331

>  <SCORE.INTRA.VDW.0>
-0.659551

>  <SCORE.INTRA.norm>
-0.157887

>  <SCORE.RESTR>
0

>  <SCORE.RESTR.CAVITY>
0

>  <SCORE.RESTR.norm>
0

>  <SCORE.SYSTEM>
0

>  <SCORE.SYSTEM.CONST>
0

>  <SCORE.SYSTEM.DIHEDRAL>
0

>  <SCORE.SYSTEM.SOLV>
0

>  <SCORE.SYSTEM.norm>
0

>  <SCORE.heavy>
10

>  <SCORE.norm>
-0.989779

>  <RMSD>
5.572

$$$$
ligand
 OpenBabel11021811473D
libRbt.so/2013.1/901 2013/11/27
 10  9  0  0  0  0  0  0  0  0999 V2000
   25.7048   15.0988   20.5615 N   0  0  0  0  0  0  0  0  0  0  0  0
   27.0589   15.5605   20.1462 C   0  0  2  0  0  0  0  0  0  0  0  0
   27.4865   14.9611   18.8064 C   0  0  0  0  0  0  0  0  0  0  0  0
   28.1656   15.5964   17.9932 O   0  0  0  0  0  0  0  0  0  0  0  0
   28.0922   15.2673   21.2370 C   0  0  0  0  0  0  0  0  0  0  0  0
   29.4443   15.9313   21.0125 C   0  0  0  0  0  0  0  0  0  0  0  0
   30.4332   15.5534   22.1149 C   0  0  0  0  0  0  0  0  0  0  0  0
   31.7837   16.2340   21.9218 C   0  0  0  0  0  0  0  0  0  0  0  0
   31.7025   17.7200   22.0334 N   0  0  0  0  0  0  0  0  0  0  0  0
   27.1802   13.8075   18.5124 O   0  0  0  0  0  0  0  0  0  0  0  0
  2  1  1  1  0  0  0
  2  3  1  0  0  0  0
  2  5  1  0  0  0  0
  3  4  1  0  0  0  0
  3 10  1  0  0  0  0
  5  6  1  0  0  0  0
  6  7  1  0  0  0  0
  7  8  1  0  0  0  0
  8  9  1  0  0  0  0
M  END
>  <CHROM.1>
144.91164636,-169.22706034,-178.05332991,-178.76749393,64.31150682,28.70547977
15.55727841,20.39799379,2.54310606,-0.30341057,-1.73048792

>  <Name>
ligand

>  <RI>
0

>  <Rbt.Current_Directory>
/home/itssahil/PROJECTS/Mol_Feturizer/New_Systems/rnas/3DJ2

>  <Rbt.Executable>
rbdock ($Id: //depot/dev/client3/rdock/2013.1/src/exe/rbdock.cxx#4 $)

>  <Rbt.Library>
libRbt.so (2013.1, Build901 2013/11/27)

>  <Rbt.Parameter_File>
/export/apps/rDock/src/rDock_2013.1_src/data/scripts/dock_solv.prm

>  <Rbt.Receptor>
prm/pocket_docking_7.prm

>  <SCORE>
-9.90177

>  <SCORE.INTER>
-8.37172

>  <SCORE.INTER.CONST>
1

>  <SCORE.INTER.POLAR>
0

>  <SCORE.INTER.ROT>
5

>  <SCORE.INTER.SOLV>
17.6233

>  <SCORE.INTER.VDW>
-18.3889

>  <SCORE.INTER.norm>
-0.837172

>  <SCORE.INTRA>
-1.53005

>  <SCORE.INTRA.DIHEDRAL>
-2.29533

>  <SCORE.INTRA.DIHEDRAL.0>
4.28128

>  <SCORE.INTRA.POLAR>
0

>  <SCORE.INTRA.POLAR.0>
0

>  <SCORE.INTRA.REPUL>
0

>  <SCORE.INTRA.REPUL.0>
0

>  <SCORE.INTRA.SOLV>
-0.436603

>  <SCORE.INTRA.SOLV.lig_0>
-32.3374

>  <SCORE.INTRA.VDW>
-0.164085

>  <SCORE.INTRA.VDW.0>
-0.659551

>  <SCORE.INTRA.norm>
-0.153005

>  <SCORE.RESTR>
0

>  <SCORE.RESTR.CAVITY>
0

>  <SCORE.RESTR.norm>
0

>  <SCORE.SYSTEM>
0

>  <SCORE.SYSTEM.CONST>
0

>  <SCORE.SYSTEM.DIHEDRAL>
0

>  <SCORE.SYSTEM.SOLV>
0

>  <SCORE.SYSTEM.norm>
0

>  <SCORE.heavy>
10

>  <SCORE.norm>
-0.990177

>  <RMSD>
5.573

$$$$
ligand
 OpenBabel11021811473D
libRbt.so/2013.1/901 2013/11/27
 10  9  0  0  0  0  0  0  0  0999 V2000
   26.1479   14.8942   20.6617 N   0  0  0  0  0  0  0  0  0  0  0  0
   27.0471   15.6446   19.7410 C   0  0  2  0  0  0  0  0  0  0  0  0
   27.4360   14.8184   18.5148 C   0  0  0  0  0  0  0  0  0  0  0  0
   28.1187   15.2892   17.5994 O   0  0  0  0  0  0  0  0  0  0  0  0
   28.2876   16.1490   20.4829 C   0  0  0  0  0  0  0  0  0  0  0  0
   29.1380   15.0470   21.1008 C   0  0  0  0  0  0  0  0  0  0  0  0
   30.3747   15.6257   21.7877 C   0  0  0  0  0  0  0  0  0  0  0  0
   31.3547   16.2202   20.7824 C   0  0  0  0  0  0  0  0  0  0  0  0
   32.5655   16.8029   21.4318 N   0  0  0  0  0  0  0  0  0  0  0  0
   27.0935   13.6416   18.4208 O   0  0  0  0  0  0  0  0  0  0  0  0
  2  1  1  1  0  0  0
  2  3  1  0  0  0  0
  2  5  1  0  0  0  0
  3  4  1  0  0  0  0
  3 10  1  0  0  0  0
  5  6  1  0  0  0  0
  6  7  1  0  0  0  0
  7  8  1  0  0  0  0
  8  9  1  0  0  0  0
M  END
>  <CHROM.1>
176.10378848,60.15256188,178.40288545,-67.99520335,179.47618060,28.75509694
15.39350200,20.01911816,2.61575796,-0.26673355,-1.72562617

>  <Name>
ligand

>  <RI>
0

>  <Rbt.Current_Directory>
/home/itssahil/PROJECTS/Mol_Feturizer/New_Systems/rnas/3DJ2

>  <Rbt.Executable>
rbdock ($Id: //depot/dev/client3/rdock/2013.1/src/exe/rbdock.cxx#4 $)

>  <Rbt.Library>
libRbt.so (2013.1, Build901 2013/11/27)

>  <Rbt.Parameter_File>
/export/apps/rDock/src/rDock_2013.1_src/data/scripts/dock_solv.prm

>  <Rbt.Receptor>
prm/pocket_docking_8.prm

>  <SCORE>
-9.77656

>  <SCORE.INTER>
-8.98399

>  <SCORE.INTER.CONST>
1

>  <SCORE.INTER.POLAR>
0

>  <SCORE.INTER.ROT>
5

>  <SCORE.INTER.SOLV>
16.6565

>  <SCORE.INTER.VDW>
-18.4748

>  <SCORE.INTER.norm>
-0.898399

>  <SCORE.INTRA>
-0.792567

>  <SCORE.INTRA.DIHEDRAL>
-2.49504

>  <SCORE.INTRA.DIHEDRAL.0>
4.28128

>  <SCORE.INTRA.POLAR>
0

>  <SCORE.INTRA.POLAR.0>
0

>  <SCORE.INTRA.REPUL>
0

>  <SCORE.INTRA.REPUL.0>
0

>  <SCORE.INTRA.SOLV>
-0.217153

>  <SCORE.INTRA.SOLV.lig_0>
-32.3374

>  <SCORE.INTRA.VDW>
0.563529

>  <SCORE.INTRA.VDW.0>
-0.659551

>  <SCORE.INTRA.norm>
-0.0792567

>  <SCORE.RESTR>
0

>  <SCORE.RESTR.CAVITY>
0

>  <SCORE.RESTR.norm>
0

>  <SCORE.SYSTEM>
0

>  <SCORE.SYSTEM.CONST>
0

>  <SCORE.SYSTEM.DIHEDRAL>
0

>  <SCORE.SYSTEM.SOLV>
0

>  <SCORE.SYSTEM.norm>
0

>  <SCORE.heavy>
10

>  <SCORE.norm>
-0.977656

>  <RMSD>
5.574

$$$$
ligand
 OpenBabel11021811473D
libRbt.so/2013.1/901 2013/11/27
 10  9  0  0  0  0  0  0  0  0999 V2000
   26.9010   14.6298   20.6931 N   0  0  0  0  0  0  0  0  0  0  0  0
   27.2720   15.5814   19.6086 C   0  0  2  0  0  0  0  0  0  0  0  0
   27.8207   14.8642   18.3750 C   0  0  0  0  0  0  0  0  0  0  0  0
   28.2726   15.4833   17.4063 O   0  0  0  0  0  0  0  0  0  0  0  0
   28.2602   16.6324   20.1213 C   0  0  0  0  0  0  0  0  0  0  0  0
   29.5594   16.0554   20.6676 C   0  0  0  0  0  0  0  0  0  0  0  0
   30.4710   17.1601   21.2013 C   0  0  0  0  0  0  0  0  0  0  0  0
   31.7851   16.6011   21.7353 C   0  0  0  0  0  0  0  0  0  0  0  0
   32.6855   17.6609   22.2770 N   0  0  0  0  0  0  0  0  0  0  0  0
   27.8474   13.6362   18.3272 O   0  0  0  0  0  0  0  0  0  0  0  0
  2  1  1  1  0  0  0
  2  3  1  0  0  0  0
  2  5  1  0  0  0  0
  3  4  1  0  0  0  0
  3 10  1  0  0  0  0
  5  6  1  0  0  0  0
  6  7  1  0  0  0  0
  7  8  1  0  0  0  0
  8  9  1  0  0  0  0
M  END
>  <CHROM.1>
-174.72113237,59.17427341,-178.09509549,-179.22895103,-179.32226041,29.08963115
15.81044220,20.00695999,2.45131145,-0.37175534,-1.81576190

>  <Name>
ligand

>  <RI>
0

>  <Rbt.Current_Directory>
/home/itssahil/PROJECTS/Mol_Feturizer/New_Systems/rnas/3DJ2

>  <Rbt.Executable>
rbdock ($Id: //depot/dev/client3/rdock/2013.1/src/exe/rbdock.cxx#4 $)

>  <Rbt.Library>
libRbt.so (2013.1, Build901 2013/11/27)

>  <Rbt.Parameter_File>
/export/apps/rDock/src/rDock_2013.1_src/data/scripts/dock_solv.prm

>  <Rbt.Receptor>
prm/pocket_docking_6.prm

>  <SCORE>
-9.61971

>  <SCORE.INTER>
-8.16419

>  <SCORE.INTER.CONST>
1

>  <SCORE.INTER.POLAR>
0

>  <SCORE.INTER.ROT>
5

>  <SCORE.INTER.SOLV>
15.3627

>  <SCORE.INTER.VDW>
-17.497

>  <SCORE.INTER.norm>
-0.816419

>  <SCORE.INTRA>
-1.45552

>  <SCORE.INTRA.DIHEDRAL>
-2.72328

>  <SCORE.INTRA.DIHEDRAL.0>
4.28128

>  <SCORE.INTRA.POLAR>
0

>  <SCORE.INTRA.POLAR.0>
0

>  <SCORE.INTRA.REPUL>
0

>  <SCORE.INTRA.REPUL.0>
0

>  <SCORE.INTRA.SOLV>
-0.419261

>  <SCORE.INTRA.SOLV.lig_0>
-32.3374

>  <SCORE.INTRA.VDW>
0.115753

>  <SCORE.INTRA.VDW.0>
-0.659551

>  <SCORE.INTRA.norm>
-0.145552

>  <SCORE.RESTR>
0

>  <SCORE.RESTR.CAVITY>
0

>  <SCORE.RESTR.norm>
0

>  <SCORE.SYSTEM>
0

>  <SCORE.SYSTEM.CONST>
0

>  <SCORE.SYSTEM.DIHEDRAL>
0

>  <SCORE.SYSTEM.SOLV>
0

>  <SCORE.SYSTEM.norm>
0

>  <SCORE.heavy>
10

>  <SCORE.norm>
-0.961971

>  <RMSD>
5.575

$$$$
ligand
 OpenBabel11021811473D
libRbt.so/2013.1/901 2013/11/27
 10  9  0  0  0  0  0  0  0  0999 V2000
   26.7417   14.5332   20.6950 N   0  0  0  0  0  0  0  0  0  0  0  0
   27.0269   15.4595   19.5636 C   0  0  2  0  0  0  0  0  0  0  0  0
   27.4596   14.7125   18.3019 C   0  0  0  0  0  0  0  0  0  0  0  0
   28.1555   15.2468   17.4324 O   0  0  0  0  0  0  0  0  0  0  0  0
   28.0662   16.5085   19.9678 C   0  0  0  0  0  0  0  0  0  0  0  0
   29.3934   15.9262   20.4357 C   0  0  0  0  0  0  0  0  0  0  0  0
   30.3703   17.0323   20.8335 C   0  0  0  0  0  0  0  0  0  0  0  0
   31.7163   16.4676   21.2737 C   0  0  0  0  0  0  0  0  0  0  0  0
   32.4233   15.7408   20.1786 N   0  0  0  0  0  0  0  0  0  0  0  0
   27.1404   13.5377   18.1316 O   0  0  0  0  0  0  0  0  0  0  0  0
  2  1  1  1  0  0  0
  2  3  1  0  0  0  0
  2  5  1  0  0  0  0
  3  4  1  0  0  0  0
  3 10  1  0  0  0  0
  5  6  1  0  0  0  0
  6  7  1  0  0  0  0
  7  8  1  0  0  0  0
  8  9  1  0  0  0  0
M  END
>  <CHROM.1>
-154.92724226,58.10971524,-179.43759563,-178.66110106,63.33018826,28.84843075
15.49707691,19.64861757,2.58553991,-0.16970544,-2.02091444

>  <Name>
ligand

>  <RI>
0

>  <Rbt.Current_Directory>
/home/itssahil/PROJECTS/Mol_Feturizer/New_Systems/rnas/3DJ2

>  <Rbt.Executable>
rbdock ($Id: //depot/dev/client3/rdock/2013.1/src/exe/rbdock.cxx#4 $)

>  <Rbt.Library>
libRbt.so (2013.1, Build901 2013/11/27)

>  <Rbt.Parameter_File>
/export/apps/rDock/src/rDock_2013.1_src/data/scripts/dock_solv.prm

>  <Rbt.Receptor>
prm/pocket_docking_7.prm

>  <SCORE>
-8.94997

>  <SCORE.INTER>
-8.30234

>  <SCORE.INTER.CONST>
1

>  <SCORE.INTER.POLAR>
0

>  <SCORE.INTER.ROT>
5

>  <SCORE.INTER.SOLV>
17.7592

>  <SCORE.INTER.VDW>
-18.388

>  <SCORE.INTER.norm>
-0.830234

>  <SCORE.INTRA>
-0.647635

>  <SCORE.INTRA.DIHEDRAL>
-2.64164

>  <SCORE.INTRA.DIHEDRAL.0>
4.28128

>  <SCORE.INTRA.POLAR>
0

>  <SCORE.INTRA.POLAR.0>
0

>  <SCORE.INTRA.REPUL>
0

>  <SCORE.INTRA.REPUL.0>
0

>  <SCORE.INTRA.SOLV>
0.491762

>  <SCORE.INTRA.SOLV.lig_0>
-32.3374

>  <SCORE.INTRA.VDW>
0.427305

>  <SCORE.INTRA.VDW.0>
-0.659551

>  <SCORE.INTRA.norm>
-0.0647635

>  <SCORE.RESTR>
0

>  <SCORE.RESTR.CAVITY>
0

>  <SCORE.RESTR.norm>
0

>  <SCORE.SYSTEM>
0

>  <SCORE.SYSTEM.CONST>
0

>  <SCORE.SYSTEM.DIHEDRAL>
0

>  <SCORE.SYSTEM.SOLV>
0

>  <SCORE.SYSTEM.norm>
0

>  <SCORE.heavy>
10

>  <SCORE.norm>
-0.894997

>  <RMSD>
5.575

$$$$
ligand
 OpenBabel11021811473D
libRbt.so/2013.1/901 2013/11/27
 10  9  0  0  0  0  0  0  0  0999 V2000
   25.7099   15.0966   20.5608 N   0  0  0  0  0  0  0  0  0  0  0  0
   27.0645   15.5569   20.1455 C   0  0  2  0  0  0  0  0  0  0  0  0
   27.4891   14.9618   18.8028 C   0  0  0  0  0  0  0  0  0  0  0  0
   27.1730   13.8160   18.4667 O   0  0  0  0  0  0  0  0  0  0  0  0
   28.0986   15.2573   21.2339 C   0  0  0  0  0  0  0  0  0  0  0  0
   29.4562   15.9075   21.0028 C   0  0  0  0  0  0  0  0  0  0  0  0
   30.4479   15.5156   22.0978 C   0  0  0  0  0  0  0  0  0  0  0  0
   31.8010   16.1911   21.9044 C   0  0  0  0  0  0  0  0  0  0  0  0
   31.7350   17.6731   22.0683 N   0  0  0  0  0  0  0  0  0  0  0  0
   28.1445   15.6278   18.0041 O   0  0  0  0  0  0  0  0  0  0  0  0
  2  1  1  1  0  0  0
  2  3  1  0  0  0  0
  2  5  1  0  0  0  0
  3  4  1  0  0  0  0
  3 10  1  0  0  0  0
  5  6  1  0  0  0  0
  6  7  1  0  0  0  0
  7  8  1  0  0  0  0
  8  9  1  0  0  0  0
M  END
>  <CHROM.1>
-35.11779474,-169.82744401,-177.65556127,-178.30963889,65.99997944,28.71176276
15.54527097,20.39239101,2.54430963,-0.29547164,-1.72428179

>  <Name>
ligand

>  <RI>
0

>  <Rbt.Current_Directory>
/home/itssahil/PROJECTS/Mol_Feturizer/New_Systems/rnas/3DJ2

>  <Rbt.Executable>
rbdock ($Id: //depot/dev/client3/rdock/2013.1/src/exe/rbdock.cxx#4 $)

>  <Rbt.Library>
libRbt.so (2013.1, Build901 2013/11/27)

>  <Rbt.Parameter_File>
/export/apps/rDock/src/rDock_2013.1_src/data/scripts/dock_solv.prm

>  <Rbt.Receptor>
prm/pocket_docking_6.prm

>  <SCORE>
-9.87065

>  <SCORE.INTER>
-8.3739

>  <SCORE.INTER.CONST>
1

>  <SCORE.INTER.POLAR>
0

>  <SCORE.INTER.ROT>
5

>  <SCORE.INTER.SOLV>
17.4546

>  <SCORE.INTER.VDW>
-18.3341

>  <SCORE.INTER.norm>
-0.83739

>  <SCORE.INTRA>
-1.49675

>  <SCORE.INTRA.DIHEDRAL>
-2.17133

>  <SCORE.INTRA.DIHEDRAL.0>
4.28128

>  <SCORE.INTRA.POLAR>
0

>  <SCORE.INTRA.POLAR.0>
0

>  <SCORE.INTRA.REPUL>
0

>  <SCORE.INTRA.REPUL.0>
0

>  <SCORE.INTRA.SOLV>
-0.457631

>  <SCORE.INTRA.SOLV.lig_0>
-32.3374

>  <SCORE.INTRA.VDW>
-0.182266

>  <SCORE.INTRA.VDW.0>
-0.659551

>  <SCORE.INTRA.norm>
-0.149675

>  <SCORE.RESTR>
0

>  <SCORE.RESTR.CAVITY>
0

>  <SCORE.RESTR.norm>
0

>  <SCORE.SYSTEM>
0

>  <SCORE.SYSTEM.CONST>
0

>  <SCORE.SYSTEM.DIHEDRAL>
0

>  <SCORE.SYSTEM.SOLV>
0

>  <SCORE.SYSTEM.norm>
0

>  <SCORE.heavy>
10

>  <SCORE.norm>
-0.987065

>  <RMSD>
5.578

$$$$
ligand
 OpenBabel11021811473D
libRbt.so/2013.1/901 2013/11/27
 10  9  0  0  0  0  0  0  0  0999 V2000
   25.6813   15.1164   20.5286 N   0  0  0  0  0  0  0  0  0  0  0  0
   27.0347   15.5772   20.1102 C   0  0  2  0  0  0  0  0  0  0  0  0
   27.4683   14.9599   18.7804 C   0  0  0  0  0  0  0  0  0  0  0  0
   28.1632   15.5791   17.9683 O   0  0  0  0  0  0  0  0  0  0  0  0
   28.0662   15.3040   21.2080 C   0  0  0  0  0  0  0  0  0  0  0  0
   29.4266   15.9424   20.9608 C   0  0  0  0  0  0  0  0  0  0  0  0
   30.4419   15.5003   22.0143 C   0  0  0  0  0  0  0  0  0  0  0  0
   31.7900   16.1867   21.8247 C   0  0  0  0  0  0  0  0  0  0  0  0
   31.7252   17.6597   22.0554 N   0  0  0  0  0  0  0  0  0  0  0  0
   27.1508   13.8074   18.4942 O   0  0  0  0  0  0  0  0  0  0  0  0
  2  1  1  1  0  0  0
  2  3  1  0  0  0  0
  2  5  1  0  0  0  0
  3  4  1  0  0  0  0
  3 10  1  0  0  0  0
  5  6  1  0  0  0  0
  6  7  1  0  0  0  0
  7  8  1  0  0  0  0
  8  9  1  0  0  0  0
M  END
>  <CHROM.1>
145.96955629,-170.62151859,-173.73673622,-177.01890162,65.77055421,28.69517586
15.54727495,20.35883434,2.54380603,-0.27421702,-1.75818517

>  <Name>
ligand

>  <RI>
0

>  <Rbt.Current_Directory>
/home/itssahil/PROJECTS/Mol_Feturizer/New_Systems/rnas/3DJ2

>  <Rbt.Executable>
rbdock ($Id: //depot/dev/client3/rdock/2013.1/src/exe/rbdock.cxx#4 $)

>  <Rbt.Library>
libRbt.so (2013.1, Build901 2013/11/27)

>  <Rbt.Parameter_File>
/export/apps/rDock/src/rDock_2013.1_src/data/scripts/dock_solv.prm

>  <Rbt.Receptor>
prm/pocket_docking_5.prm

>  <SCORE>
-9.88031

>  <SCORE.INTER>
-8.39992

>  <SCORE.INTER.CONST>
1

>  <SCORE.INTER.POLAR>
0

>  <SCORE.INTER.ROT>
5

>  <SCORE.INTER.SOLV>
17.4221

>  <SCORE.INTER.VDW>
-18.3406

>  <SCORE.INTER.norm>
-0.839992

>  <SCORE.INTRA>
-1.4804

>  <SCORE.INTRA.DIHEDRAL>
-2.16491

>  <SCORE.INTRA.DIHEDRAL.0>
4.28128

>  <SCORE.INTRA.POLAR>
0

>  <SCORE.INTRA.POLAR.0>
0

>  <SCORE.INTRA.REPUL>
0

>  <SCORE.INTRA.REPUL.0>
0

>  <SCORE.INTRA.SOLV>
-0.448209

>  <SCORE.INTRA.SOLV.lig_0>
-32.3374

>  <SCORE.INTRA.VDW>
-0.173836

>  <SCORE.INTRA.VDW.0>
-0.659551

>  <SCORE.INTRA.norm>
-0.14804

>  <SCORE.RESTR>
0

>  <SCORE.RESTR.CAVITY>
0

>  <SCORE.RESTR.norm>
0

>  <SCORE.SYSTEM>
0

>  <SCORE.SYSTEM.CONST>
0

>  <SCORE.SYSTEM.DIHEDRAL>
0

>  <SCORE.SYSTEM.SOLV>
0

>  <SCORE.SYSTEM.norm>
0

>  <SCORE.heavy>
10

>  <SCORE.norm>
-0.988031

>  <RMSD>
5.583

$$$$
ligand
 OpenBabel11021811473D
libRbt.so/2013.1/901 2013/11/27
 10  9  0  0  0  0  0  0  0  0999 V2000
   25.9338   15.0209   20.5678 N   0  0  0  0  0  0  0  0  0  0  0  0
   27.2256   15.3710   19.9136 C   0  0  2  0  0  0  0  0  0  0  0  0
   27.3998   14.6666   18.5679 C   0  0  0  0  0  0  0  0  0  0  0  0
   26.9875   13.5186   18.3731 O   0  0  0  0  0  0  0  0  0  0  0  0
   28.4045   15.0796   20.8459 C   0  0  0  0  0  0  0  0  0  0  0  0
   29.7608   15.4854   20.2847 C   0  0  0  0  0  0  0  0  0  0  0  0
   30.8892   15.1059   21.2433 C   0  0  0  0  0  0  0  0  0  0  0  0
   30.9072   15.9991   22.4787 C   0  0  0  0  0  0  0  0  0  0  0  0
   31.2818   17.4095   22.1659 N   0  0  0  0  0  0  0  0  0  0  0  0
   27.9411   15.2432   17.6269 O   0  0  0  0  0  0  0  0  0  0  0  0
  2  1  1  1  0  0  0
  2  3  1  0  0  0  0
  2  5  1  0  0  0  0
  3  4  1  0  0  0  0
  3 10  1  0  0  0  0
  5  6  1  0  0  0  0
  6  7  1  0  0  0  0
  7  8  1  0  0  0  0
  8  9  1  0  0  0  0
M  END
>  <CHROM.1>
-35.73168217,-176.61539897,-177.42677039,-72.13111310,-67.73198018,28.66788643
15.27262856,20.17025340,2.41602731,-0.20478210,-1.84767079

>  <Name>
ligand

>  <RI>
0

>  <Rbt.Current_Directory>
/home/itssahil/PROJECTS/Mol_Feturizer/New_Systems/rnas/3DJ2

>  <Rbt.Executable>
rbdock ($Id: //depot/dev/client3/rdock/2013.1/src/exe/rbdock.cxx#4 $)

>  <Rbt.Library>
libRbt.so (2013.1, Build901 2013/11/27)

>  <Rbt.Parameter_File>
/export/apps/rDock/src/rDock_2013.1_src/data/scripts/dock_solv.prm

>  <Rbt.Receptor>
prm/pocket_docking_6.prm

>  <SCORE>
-8.61398

>  <SCORE.INTER>
-8.0395

>  <SCORE.INTER.CONST>
1

>  <SCORE.INTER.POLAR>
0

>  <SCORE.INTER.ROT>
5

>  <SCORE.INTER.SOLV>
16.7857

>  <SCORE.INTER.VDW>
-17.8882

>  <SCORE.INTER.norm>
-0.80395

>  <SCORE.INTRA>
-0.57448

>  <SCORE.INTRA.DIHEDRAL>
-1.82851

>  <SCORE.INTRA.DIHEDRAL.0>
4.28128

>  <SCORE.INTRA.POLAR>
0

>  <SCORE.INTRA.POLAR.0>
0

>  <SCORE.INTRA.REPUL>
0

>  <SCORE.INTRA.REPUL.0>
0

>  <SCORE.INTRA.SOLV>
-0.0683961

>  <SCORE.INTRA.SOLV.lig_0>
-32.3374

>  <SCORE.INTRA.VDW>
0.373971

>  <SCORE.INTRA.VDW.0>
-0.659551

>  <SCORE.INTRA.norm>
-0.057448

>  <SCORE.RESTR>
0

>  <SCORE.RESTR.CAVITY>
0

>  <SCORE.RESTR.norm>
0

>  <SCORE.SYSTEM>
0

>  <SCORE.SYSTEM.CONST>
0

>  <SCORE.SYSTEM.DIHEDRAL>
0

>  <SCORE.SYSTEM.SOLV>
0

>  <SCORE.SYSTEM.norm>
0

>  <SCORE.heavy>
10

>  <SCORE.norm>
-0.861398

>  <RMSD>
5.584

$$$$
ligand
 OpenBabel11021811473D
libRbt.so/2013.1/901 2013/11/27
 10  9  0  0  0  0  0  0  0  0999 V2000
   28.6489   14.1710   22.1964 N   0  0  0  0  0  0  0  0  0  0  0  0
   28.2165   15.4871   21.6486 C   0  0  2  0  0  0  0  0  0  0  0  0
   26.9035   15.3851   20.8722 C   0  0  0  0  0  0  0  0  0  0  0  0
   26.7308   15.9743   19.8003 O   0  0  0  0  0  0  0  0  0  0  0  0
   29.3202   16.1074   20.7878 C   0  0  0  0  0  0  0  0  0  0  0  0
   30.6344   16.3334   21.5232 C   0  0  0  0  0  0  0  0  0  0  0  0
   31.7202   16.8321   20.5700 C   0  0  0  0  0  0  0  0  0  0  0  0
   33.0449   17.0590   21.2897 C   0  0  0  0  0  0  0  0  0  0  0  0
   32.9521   18.0997   22.3553 N   0  0  0  0  0  0  0  0  0  0  0  0
   25.9837   14.6851   21.2904 O   0  0  0  0  0  0  0  0  0  0  0  0
  2  1  1  6  0  0  0
  2  3  1  0  0  0  0
  2  5  1  0  0  0  0
  3  4  1  0  0  0  0
  3 10  1  0  0  0  0
  5  6  1  0  0  0  0
  6  7  1  0  0  0  0
  7  8  1  0  0  0  0
  8  9  1  0  0  0  0
M  END
>  <CHROM.1>
-137.72709324,-58.68162782,174.75678848,-179.80226342,-61.72276215,29.37407605
16.00700847,21.21605228,-2.98508038,-0.34194847,-0.86143987

>  <Name>
ligand

>  <RI>
0

>  <Rbt.Current_Directory>
/home/itssahil/PROJECTS/Mol_Feturizer/New_Systems/rnas/3DJ2

>  <Rbt.Executable>
rbdock ($Id: //depot/dev/client3/rdock/2013.1/src/exe/rbdock.cxx#4 $)

>  <Rbt.Library>
libRbt.so (2013.1, Build901 2013/11/27)

>  <Rbt.Parameter_File>
/export/apps/rDock/src/rDock_2013.1_src/data/scripts/dock_solv.prm

>  <Rbt.Receptor>
prm/pocket_docking_4.prm

>  <SCORE>
-8.44425

>  <SCORE.INTER>
-7.98927

>  <SCORE.INTER.CONST>
1

>  <SCORE.INTER.POLAR>
0

>  <SCORE.INTER.ROT>
5

>  <SCORE.INTER.SOLV>
17.3698

>  <SCORE.INTER.VDW>
-18.0494

>  <SCORE.INTER.norm>
-0.798927

>  <SCORE.INTRA>
-0.454979

>  <SCORE.INTRA.DIHEDRAL>
-2.58692

>  <SCORE.INTRA.DIHEDRAL.0>
4.28128

>  <SCORE.INTRA.POLAR>
0

>  <SCORE.INTRA.POLAR.0>
0

>  <SCORE.INTRA.REPUL>
0

>  <SCORE.INTRA.REPUL.0>
0

>  <SCORE.INTRA.SOLV>
0.523327

>  <SCORE.INTRA.SOLV.lig_0>
-32.3374

>  <SCORE.INTRA.VDW>
0.576816

>  <SCORE.INTRA.VDW.0>
-0.659551

>  <SCORE.INTRA.norm>
-0.0454979

>  <SCORE.RESTR>
0

>  <SCORE.RESTR.CAVITY>
0

>  <SCORE.RESTR.norm>
0

>  <SCORE.SYSTEM>
0

>  <SCORE.SYSTEM.CONST>
0

>  <SCORE.SYSTEM.DIHEDRAL>
0

>  <SCORE.SYSTEM.SOLV>
0

>  <SCORE.SYSTEM.norm>
0

>  <SCORE.heavy>
10

>  <SCORE.norm>
-0.844425

>  <RMSD>
5.586

$$$$
ligand
 OpenBabel11021811473D
libRbt.so/2013.1/901 2013/11/27
 10  9  0  0  0  0  0  0  0  0999 V2000
   26.8781   14.6223   20.6885 N   0  0  0  0  0  0  0  0  0  0  0  0
   27.2495   15.5672   19.5983 C   0  0  2  0  0  0  0  0  0  0  0  0
   27.7886   14.8417   18.3653 C   0  0  0  0  0  0  0  0  0  0  0  0
   28.2638   15.4532   17.4030 O   0  0  0  0  0  0  0  0  0  0  0  0
   28.2459   16.6147   20.1020 C   0  0  0  0  0  0  0  0  0  0  0  0
   29.5345   16.0316   20.6668 C   0  0  0  0  0  0  0  0  0  0  0  0
   30.4550   17.1341   21.1895 C   0  0  0  0  0  0  0  0  0  0  0  0
   31.7443   16.5662   21.7724 C   0  0  0  0  0  0  0  0  0  0  0  0
   32.6643   17.6260   22.2800 N   0  0  0  0  0  0  0  0  0  0  0  0
   27.7835   13.6136   18.3117 O   0  0  0  0  0  0  0  0  0  0  0  0
  2  1  1  1  0  0  0
  2  3  1  0  0  0  0
  2  5  1  0  0  0  0
  3  4  1  0  0  0  0
  3 10  1  0  0  0  0
  5  6  1  0  0  0  0
  6  7  1  0  0  0  0
  7  8  1  0  0  0  0
  8  9  1  0  0  0  0
M  END
>  <CHROM.1>
-173.26657973,58.18095955,-178.12326220,179.39887265,179.55567964,29.06265188
15.78687608,20.00340040,2.45105902,-0.37408817,-1.80852689

>  <Name>
ligand

>  <RI>
0

>  <Rbt.Current_Directory>
/home/itssahil/PROJECTS/Mol_Feturizer/New_Systems/rnas/3DJ2

>  <Rbt.Executable>
rbdock ($Id: //depot/dev/client3/rdock/2013.1/src/exe/rbdock.cxx#4 $)

>  <Rbt.Library>
libRbt.so (2013.1, Build901 2013/11/27)

>  <Rbt.Parameter_File>
/export/apps/rDock/src/rDock_2013.1_src/data/scripts/dock_solv.prm

>  <Rbt.Receptor>
prm/pocket_docking_6.prm

>  <SCORE>
-9.6353

>  <SCORE.INTER>
-8.20754

>  <SCORE.INTER.CONST>
1

>  <SCORE.INTER.POLAR>
0

>  <SCORE.INTER.ROT>
5

>  <SCORE.INTER.SOLV>
15.4136

>  <SCORE.INTER.VDW>
-17.5429

>  <SCORE.INTER.norm>
-0.820754

>  <SCORE.INTRA>
-1.42776

>  <SCORE.INTRA.DIHEDRAL>
-2.7092

>  <SCORE.INTRA.DIHEDRAL.0>
4.28128

>  <SCORE.INTRA.POLAR>
0

>  <SCORE.INTRA.POLAR.0>
0

>  <SCORE.INTRA.REPUL>
0

>  <SCORE.INTRA.REPUL.0>
0

>  <SCORE.INTRA.SOLV>
-0.407144

>  <SCORE.INTRA.SOLV.lig_0>
-32.3374

>  <SCORE.INTRA.VDW>
0.130414

>  <SCORE.INTRA.VDW.0>
-0.659551

>  <SCORE.INTRA.norm>
-0.142776

>  <SCORE.RESTR>
0

>  <SCORE.RESTR.CAVITY>
0

>  <SCORE.RESTR.norm>
0

>  <SCORE.SYSTEM>
0

>  <SCORE.SYSTEM.CONST>
0

>  <SCORE.SYSTEM.DIHEDRAL>
0

>  <SCORE.SYSTEM.SOLV>
0

>  <SCORE.SYSTEM.norm>
0

>  <SCORE.heavy>
10

>  <SCORE.norm>
-0.96353

>  <RMSD>
5.586

$$$$
ligand
 OpenBabel11021811473D
libRbt.so/2013.1/901 2013/11/27
 10  9  0  0  0  0  0  0  0  0999 V2000
   25.6998   15.0653   20.5648 N   0  0  0  0  0  0  0  0  0  0  0  0
   27.0476   15.5379   20.1411 C   0  0  2  0  0  0  0  0  0  0  0  0
   27.4616   14.9606   18.7874 C   0  0  0  0  0  0  0  0  0  0  0  0
   28.0918   15.6254   17.9587 O   0  0  0  0  0  0  0  0  0  0  0  0
   28.0943   15.2316   21.2154 C   0  0  0  0  0  0  0  0  0  0  0  0
   29.4472   15.8888   20.9759 C   0  0  0  0  0  0  0  0  0  0  0  0
   30.4568   15.4765   22.0468 C   0  0  0  0  0  0  0  0  0  0  0  0
   31.7967   16.1803   21.8626 C   0  0  0  0  0  0  0  0  0  0  0  0
   31.7115   17.6527   22.0910 N   0  0  0  0  0  0  0  0  0  0  0  0
   27.1940   13.7966   18.4970 O   0  0  0  0  0  0  0  0  0  0  0  0
  2  1  1  1  0  0  0
  2  3  1  0  0  0  0
  2  5  1  0  0  0  0
  3  4  1  0  0  0  0
  3 10  1  0  0  0  0
  5  6  1  0  0  0  0
  6  7  1  0  0  0  0
  7  8  1  0  0  0  0
  8  9  1  0  0  0  0
M  END
>  <CHROM.1>
142.50435928,-169.99195656,-176.95864286,-177.12392906,66.58364806,28.70005757
15.52645539,20.37787296,2.54861089,-0.29779301,-1.71741651

>  <Name>
ligand

>  <RI>
0

>  <Rbt.Current_Directory>
/home/itssahil/PROJECTS/Mol_Feturizer/New_Systems/rnas/3DJ2

>  <Rbt.Executable>
rbdock ($Id: //depot/dev/client3/rdock/2013.1/src/exe/rbdock.cxx#4 $)

>  <Rbt.Library>
libRbt.so (2013.1, Build901 2013/11/27)

>  <Rbt.Parameter_File>
/export/apps/rDock/src/rDock_2013.1_src/data/scripts/dock_solv.prm

>  <Rbt.Receptor>
prm/pocket_docking_8.prm

>  <SCORE>
-9.869

>  <SCORE.INTER>
-8.33481

>  <SCORE.INTER.CONST>
1

>  <SCORE.INTER.POLAR>
0

>  <SCORE.INTER.ROT>
5

>  <SCORE.INTER.SOLV>
17.4665

>  <SCORE.INTER.VDW>
-18.312

>  <SCORE.INTER.norm>
-0.833481

>  <SCORE.INTRA>
-1.53419

>  <SCORE.INTRA.DIHEDRAL>
-2.20695

>  <SCORE.INTRA.DIHEDRAL.0>
4.28128

>  <SCORE.INTRA.POLAR>
0

>  <SCORE.INTRA.POLAR.0>
0

>  <SCORE.INTRA.REPUL>
0

>  <SCORE.INTRA.REPUL.0>
0

>  <SCORE.INTRA.SOLV>
-0.461563

>  <SCORE.INTRA.SOLV.lig_0>
-32.3374

>  <SCORE.INTRA.VDW>
-0.199933

>  <SCORE.INTRA.VDW.0>
-0.659551

>  <SCORE.INTRA.norm>
-0.153419

>  <SCORE.RESTR>
0

>  <SCORE.RESTR.CAVITY>
0

>  <SCORE.RESTR.norm>
0

>  <SCORE.SYSTEM>
0

>  <SCORE.SYSTEM.CONST>
0

>  <SCORE.SYSTEM.DIHEDRAL>
0

>  <SCORE.SYSTEM.SOLV>
0

>  <SCORE.SYSTEM.norm>
0

>  <SCORE.heavy>
10

>  <SCORE.norm>
-0.9869

>  <RMSD>
5.587

$$$$
ligand
 OpenBabel11021811473D
libRbt.so/2013.1/901 2013/11/27
 10  9  0  0  0  0  0  0  0  0999 V2000
   26.5141   14.4675   20.5441 N   0  0  0  0  0  0  0  0  0  0  0  0
   27.5211   15.2319   19.7562 C   0  0  2  0  0  0  0  0  0  0  0  0
   27.6151   14.7419   18.3111 C   0  0  0  0  0  0  0  0  0  0  0  0
   28.2010   15.3903   17.4381 O   0  0  0  0  0  0  0  0  0  0  0  0
   28.8897   15.1960   20.4413 C   0  0  0  0  0  0  0  0  0  0  0  0
   28.8831   15.7002   21.8784 C   0  0  0  0  0  0  0  0  0  0  0  0
   30.3065   15.8780   22.4060 C   0  0  0  0  0  0  0  0  0  0  0  0
   31.0178   17.0470   21.7337 C   0  0  0  0  0  0  0  0  0  0  0  0
   32.3814   17.2898   22.2894 N   0  0  0  0  0  0  0  0  0  0  0  0
   27.1230   13.6640   17.9841 O   0  0  0  0  0  0  0  0  0  0  0  0
  2  1  1  1  0  0  0
  2  3  1  0  0  0  0
  2  5  1  0  0  0  0
  3  4  1  0  0  0  0
  3 10  1  0  0  0  0
  5  6  1  0  0  0  0
  6  7  1  0  0  0  0
  7  8  1  0  0  0  0
  8  9  1  0  0  0  0
M  END
>  <CHROM.1>
166.52006433,-55.87325376,-169.51416405,69.87303235,176.65455962,28.83905558
15.44634707,20.23796804,2.43226031,-0.50532149,-1.60142508

>  <Name>
ligand

>  <RI>
0

>  <Rbt.Current_Directory>
/home/itssahil/PROJECTS/Mol_Feturizer/New_Systems/rnas/3DJ2

>  <Rbt.Executable>
rbdock ($Id: //depot/dev/client3/rdock/2013.1/src/exe/rbdock.cxx#4 $)

>  <Rbt.Library>
libRbt.so (2013.1, Build901 2013/11/27)

>  <Rbt.Parameter_File>
/export/apps/rDock/src/rDock_2013.1_src/data/scripts/dock_solv.prm

>  <Rbt.Receptor>
prm/pocket_docking_6.prm

>  <SCORE>
-9.1023

>  <SCORE.INTER>
-8.58144

>  <SCORE.INTER.CONST>
1

>  <SCORE.INTER.POLAR>
0

>  <SCORE.INTER.ROT>
5

>  <SCORE.INTER.SOLV>
15.9525

>  <SCORE.INTER.VDW>
-17.9718

>  <SCORE.INTER.norm>
-0.858144

>  <SCORE.INTRA>
-0.520866

>  <SCORE.INTRA.DIHEDRAL>
-1.84411

>  <SCORE.INTRA.DIHEDRAL.0>
4.28128

>  <SCORE.INTRA.POLAR>
0

>  <SCORE.INTRA.POLAR.0>
0

>  <SCORE.INTRA.REPUL>
0

>  <SCORE.INTRA.REPUL.0>
0

>  <SCORE.INTRA.SOLV>
-0.22179

>  <SCORE.INTRA.SOLV.lig_0>
-32.3374

>  <SCORE.INTRA.VDW>
0.512083

>  <SCORE.INTRA.VDW.0>
-0.659551

>  <SCORE.INTRA.norm>
-0.0520866

>  <SCORE.RESTR>
0

>  <SCORE.RESTR.CAVITY>
0

>  <SCORE.RESTR.norm>
0

>  <SCORE.SYSTEM>
0

>  <SCORE.SYSTEM.CONST>
0

>  <SCORE.SYSTEM.DIHEDRAL>
0

>  <SCORE.SYSTEM.SOLV>
0

>  <SCORE.SYSTEM.norm>
0

>  <SCORE.heavy>
10

>  <SCORE.norm>
-0.91023

>  <RMSD>
5.593

$$$$
ligand
 OpenBabel11021811473D
libRbt.so/2013.1/901 2013/11/27
 10  9  0  0  0  0  0  0  0  0999 V2000
   26.5668   14.4441   20.5329 N   0  0  0  0  0  0  0  0  0  0  0  0
   27.5369   15.2364   19.7264 C   0  0  2  0  0  0  0  0  0  0  0  0
   27.6062   14.7588   18.2758 C   0  0  0  0  0  0  0  0  0  0  0  0
   27.0710   13.7082   17.9074 O   0  0  0  0  0  0  0  0  0  0  0  0
   28.9223   15.2264   20.3777 C   0  0  0  0  0  0  0  0  0  0  0  0
   28.9392   15.7170   21.8194 C   0  0  0  0  0  0  0  0  0  0  0  0
   30.3699   15.9439   22.3070 C   0  0  0  0  0  0  0  0  0  0  0  0
   31.0123   17.1522   21.6349 C   0  0  0  0  0  0  0  0  0  0  0  0
   32.3745   17.4517   22.1659 N   0  0  0  0  0  0  0  0  0  0  0  0
   28.1846   15.4308   17.4243 O   0  0  0  0  0  0  0  0  0  0  0  0
  2  1  1  1  0  0  0
  2  3  1  0  0  0  0
  2  5  1  0  0  0  0
  3  4  1  0  0  0  0
  3 10  1  0  0  0  0
  5  6  1  0  0  0  0
  6  7  1  0  0  0  0
  7  8  1  0  0  0  0
  8  9  1  0  0  0  0
M  END
>  <CHROM.1>
-10.61665189,-55.73012184,-168.64253136,70.36168277,175.91461674,28.85112677
15.49322508,20.17677814,2.46123510,-0.53715413,-1.57815435

>  <Name>
ligand

>  <RI>
0

>  <Rbt.Current_Directory>
/home/itssahil/PROJECTS/Mol_Feturizer/New_Systems/rnas/3DJ2

>  <Rbt.Executable>
rbdock ($Id: //depot/dev/client3/rdock/2013.1/src/exe/rbdock.cxx#4 $)

>  <Rbt.Library>
libRbt.so (2013.1, Build901 2013/11/27)

>  <Rbt.Parameter_File>
/export/apps/rDock/src/rDock_2013.1_src/data/scripts/dock_solv.prm

>  <Rbt.Receptor>
prm/pocket_docking_4.prm

>  <SCORE>
-9.13843

>  <SCORE.INTER>
-8.70837

>  <SCORE.INTER.CONST>
1

>  <SCORE.INTER.POLAR>
0

>  <SCORE.INTER.ROT>
5

>  <SCORE.INTER.SOLV>
15.4851

>  <SCORE.INTER.VDW>
-17.9006

>  <SCORE.INTER.norm>
-0.870837

>  <SCORE.INTRA>
-0.430055

>  <SCORE.INTRA.DIHEDRAL>
-1.641

>  <SCORE.INTRA.DIHEDRAL.0>
4.28128

>  <SCORE.INTRA.POLAR>
0

>  <SCORE.INTRA.POLAR.0>
0

>  <SCORE.INTRA.REPUL>
0

>  <SCORE.INTRA.REPUL.0>
0

>  <SCORE.INTRA.SOLV>
-0.233028

>  <SCORE.INTRA.SOLV.lig_0>
-32.3374

>  <SCORE.INTRA.VDW>
0.506962

>  <SCORE.INTRA.VDW.0>
-0.659551

>  <SCORE.INTRA.norm>
-0.0430055

>  <SCORE.RESTR>
0

>  <SCORE.RESTR.CAVITY>
0

>  <SCORE.RESTR.norm>
0

>  <SCORE.SYSTEM>
0

>  <SCORE.SYSTEM.CONST>
0

>  <SCORE.SYSTEM.DIHEDRAL>
0

>  <SCORE.SYSTEM.SOLV>
0

>  <SCORE.SYSTEM.norm>
0

>  <SCORE.heavy>
10

>  <SCORE.norm>
-0.913843

>  <RMSD>
5.600

$$$$
ligand
 OpenBabel11021811473D
libRbt.so/2013.1/901 2013/11/27
 10  9  0  0  0  0  0  0  0  0999 V2000
   25.9532   15.0468   20.6748 N   0  0  0  0  0  0  0  0  0  0  0  0
   27.2161   15.5660   20.0792 C   0  0  2  0  0  0  0  0  0  0  0  0
   27.7733   14.6321   19.0047 C   0  0  0  0  0  0  0  0  0  0  0  0
   28.7486   13.9036   19.2139 O   0  0  0  0  0  0  0  0  0  0  0  0
   28.2582   15.8402   21.1666 C   0  0  0  0  0  0  0  0  0  0  0  0
   29.5595   16.4388   20.6492 C   0  0  0  0  0  0  0  0  0  0  0  0
   30.5170   16.7518   21.7987 C   0  0  0  0  0  0  0  0  0  0  0  0
   31.8690   17.2415   21.2920 C   0  0  0  0  0  0  0  0  0  0  0  0
   32.7748   17.6788   22.3945 N   0  0  0  0  0  0  0  0  0  0  0  0
   27.2414   14.5657   17.8984 O   0  0  0  0  0  0  0  0  0  0  0  0
  2  1  1  1  0  0  0
  2  3  1  0  0  0  0
  2  5  1  0  0  0  0
  3  4  1  0  0  0  0
  3 10  1  0  0  0  0
  5  6  1  0  0  0  0
  6  7  1  0  0  0  0
  7  8  1  0  0  0  0
  8  9  1  0  0  0  0
M  END
>  <CHROM.1>
-104.48718816,-177.18211239,176.98573450,175.18206539,174.43467596,28.99322314
15.74115969,20.38743809,2.49071049,-0.17545888,-2.12641525

>  <Name>
ligand

>  <RI>
0

>  <Rbt.Current_Directory>
/home/itssahil/PROJECTS/Mol_Feturizer/New_Systems/rnas/3DJ2

>  <Rbt.Executable>
rbdock ($Id: //depot/dev/client3/rdock/2013.1/src/exe/rbdock.cxx#4 $)

>  <Rbt.Library>
libRbt.so (2013.1, Build901 2013/11/27)

>  <Rbt.Parameter_File>
/export/apps/rDock/src/rDock_2013.1_src/data/scripts/dock_solv.prm

>  <Rbt.Receptor>
prm/pocket_docking_7.prm

>  <SCORE>
-8.06515

>  <SCORE.INTER>
-6.65282

>  <SCORE.INTER.CONST>
1

>  <SCORE.INTER.POLAR>
0

>  <SCORE.INTER.ROT>
5

>  <SCORE.INTER.SOLV>
17.6403

>  <SCORE.INTER.VDW>
-17.2486

>  <SCORE.INTER.norm>
-0.665282

>  <SCORE.INTRA>
-1.41233

>  <SCORE.INTRA.DIHEDRAL>
-2.51508

>  <SCORE.INTRA.DIHEDRAL.0>
4.28128

>  <SCORE.INTRA.POLAR>
0

>  <SCORE.INTRA.POLAR.0>
0

>  <SCORE.INTRA.REPUL>
0

>  <SCORE.INTRA.REPUL.0>
0

>  <SCORE.INTRA.SOLV>
-1.345

>  <SCORE.INTRA.SOLV.lig_0>
-32.3374

>  <SCORE.INTRA.VDW>
0.517707

>  <SCORE.INTRA.VDW.0>
-0.659551

>  <SCORE.INTRA.norm>
-0.141233

>  <SCORE.RESTR>
0

>  <SCORE.RESTR.CAVITY>
0

>  <SCORE.RESTR.norm>
0

>  <SCORE.SYSTEM>
0

>  <SCORE.SYSTEM.CONST>
0

>  <SCORE.SYSTEM.DIHEDRAL>
0

>  <SCORE.SYSTEM.SOLV>
0

>  <SCORE.SYSTEM.norm>
0

>  <SCORE.heavy>
10

>  <SCORE.norm>
-0.806515

>  <RMSD>
5.601

$$$$
ligand
 OpenBabel11021811473D
libRbt.so/2013.1/901 2013/11/27
 10  9  0  0  0  0  0  0  0  0999 V2000
   25.9210   14.8730   20.6892 N   0  0  0  0  0  0  0  0  0  0  0  0
   26.9111   15.5757   19.8260 C   0  0  2  0  0  0  0  0  0  0  0  0
   27.3294   14.7304   18.6228 C   0  0  0  0  0  0  0  0  0  0  0  0
   26.9951   13.5468   18.5078 O   0  0  0  0  0  0  0  0  0  0  0  0
   28.1295   16.0154   20.6420 C   0  0  0  0  0  0  0  0  0  0  0  0
   28.8701   14.8732   21.3250 C   0  0  0  0  0  0  0  0  0  0  0  0
   30.1580   15.3676   21.9830 C   0  0  0  0  0  0  0  0  0  0  0  0
   31.1894   15.8067   20.9496 C   0  0  0  0  0  0  0  0  0  0  0  0
   32.4056   16.4110   21.5684 N   0  0  0  0  0  0  0  0  0  0  0  0
   27.9982   15.2225   17.7163 O   0  0  0  0  0  0  0  0  0  0  0  0
  2  1  1  1  0  0  0
  2  3  1  0  0  0  0
  2  5  1  0  0  0  0
  3  4  1  0  0  0  0
  3 10  1  0  0  0  0
  5  6  1  0  0  0  0
  6  7  1  0  0  0  0
  7  8  1  0  0  0  0
  8  9  1  0  0  0  0
M  END
>  <CHROM.1>
-8.48350420,59.19503464,173.46786563,-67.97451607,174.67901402,28.58999989
15.22306146,20.14968908,2.60041018,-0.20169792,-1.72668576

>  <Name>
ligand

>  <RI>
0

>  <Rbt.Current_Directory>
/home/itssahil/PROJECTS/Mol_Feturizer/New_Systems/rnas/3DJ2

>  <Rbt.Executable>
rbdock ($Id: //depot/dev/client3/rdock/2013.1/src/exe/rbdock.cxx#4 $)

>  <Rbt.Library>
libRbt.so (2013.1, Build901 2013/11/27)

>  <Rbt.Parameter_File>
/export/apps/rDock/src/rDock_2013.1_src/data/scripts/dock_solv.prm

>  <Rbt.Receptor>
prm/pocket_docking_4.prm

>  <SCORE>
-9.96285

>  <SCORE.INTER>
-9.27442

>  <SCORE.INTER.CONST>
1

>  <SCORE.INTER.POLAR>
0

>  <SCORE.INTER.ROT>
5

>  <SCORE.INTER.SOLV>
17.5886

>  <SCORE.INTER.VDW>
-18.9791

>  <SCORE.INTER.norm>
-0.927442

>  <SCORE.INTRA>
-0.688432

>  <SCORE.INTRA.DIHEDRAL>
-2.18187

>  <SCORE.INTRA.DIHEDRAL.0>
4.28128

>  <SCORE.INTRA.POLAR>
0

>  <SCORE.INTRA.POLAR.0>
0

>  <SCORE.INTRA.REPUL>
0

>  <SCORE.INTRA.REPUL.0>
0

>  <SCORE.INTRA.SOLV>
-0.199526

>  <SCORE.INTRA.SOLV.lig_0>
-32.3374

>  <SCORE.INTRA.VDW>
0.502266

>  <SCORE.INTRA.VDW.0>
-0.659551

>  <SCORE.INTRA.norm>
-0.0688432

>  <SCORE.RESTR>
0

>  <SCORE.RESTR.CAVITY>
0

>  <SCORE.RESTR.norm>
0

>  <SCORE.SYSTEM>
0

>  <SCORE.SYSTEM.CONST>
0

>  <SCORE.SYSTEM.DIHEDRAL>
0

>  <SCORE.SYSTEM.SOLV>
0

>  <SCORE.SYSTEM.norm>
0

>  <SCORE.heavy>
10

>  <SCORE.norm>
-0.996285

>  <RMSD>
5.602

$$$$
ligand
 OpenBabel11021811473D
libRbt.so/2013.1/901 2013/11/27
 10  9  0  0  0  0  0  0  0  0999 V2000
   25.9310   14.8263   20.6926 N   0  0  0  0  0  0  0  0  0  0  0  0
   26.9050   15.5535   19.8314 C   0  0  2  0  0  0  0  0  0  0  0  0
   27.3281   14.7282   18.6160 C   0  0  0  0  0  0  0  0  0  0  0  0
   27.0003   13.5446   18.4836 O   0  0  0  0  0  0  0  0  0  0  0  0
   28.1219   16.0020   20.6449 C   0  0  0  0  0  0  0  0  0  0  0  0
   28.8692   14.8659   21.3304 C   0  0  0  0  0  0  0  0  0  0  0  0
   30.1674   15.3645   21.9647 C   0  0  0  0  0  0  0  0  0  0  0  0
   31.1825   15.7961   20.9122 C   0  0  0  0  0  0  0  0  0  0  0  0
   32.4192   16.3809   21.5087 N   0  0  0  0  0  0  0  0  0  0  0  0
   27.9944   15.2372   17.7171 O   0  0  0  0  0  0  0  0  0  0  0  0
  2  1  1  1  0  0  0
  2  3  1  0  0  0  0
  2  5  1  0  0  0  0
  3  4  1  0  0  0  0
  3 10  1  0  0  0  0
  5  6  1  0  0  0  0
  6  7  1  0  0  0  0
  7  8  1  0  0  0  0
  8  9  1  0  0  0  0
M  END
>  <CHROM.1>
-7.79593131,58.16351210,172.47992104,-67.67627404,175.75785611,28.59123509
15.21121831,20.13665125,2.60949294,-0.20720349,-1.71636749

>  <Name>
ligand

>  <RI>
0

>  <Rbt.Current_Directory>
/home/itssahil/PROJECTS/Mol_Feturizer/New_Systems/rnas/3DJ2

>  <Rbt.Executable>
rbdock ($Id: //depot/dev/client3/rdock/2013.1/src/exe/rbdock.cxx#4 $)

>  <Rbt.Library>
libRbt.so (2013.1, Build901 2013/11/27)

>  <Rbt.Parameter_File>
/export/apps/rDock/src/rDock_2013.1_src/data/scripts/dock_solv.prm

>  <Rbt.Receptor>
prm/pocket_docking_7.prm

>  <SCORE>
-9.96203

>  <SCORE.INTER>
-9.29508

>  <SCORE.INTER.CONST>
1

>  <SCORE.INTER.POLAR>
0

>  <SCORE.INTER.ROT>
5

>  <SCORE.INTER.SOLV>
17.5938

>  <SCORE.INTER.VDW>
-18.9947

>  <SCORE.INTER.norm>
-0.929508

>  <SCORE.INTRA>
-0.666956

>  <SCORE.INTRA.DIHEDRAL>
-2.17077

>  <SCORE.INTRA.DIHEDRAL.0>
4.28128

>  <SCORE.INTRA.POLAR>
0

>  <SCORE.INTRA.POLAR.0>
0

>  <SCORE.INTRA.REPUL>
0

>  <SCORE.INTRA.REPUL.0>
0

>  <SCORE.INTRA.SOLV>
-0.195358

>  <SCORE.INTRA.SOLV.lig_0>
-32.3374

>  <SCORE.INTRA.VDW>
0.516107

>  <SCORE.INTRA.VDW.0>
-0.659551

>  <SCORE.INTRA.norm>
-0.0666956

>  <SCORE.RESTR>
0

>  <SCORE.RESTR.CAVITY>
0

>  <SCORE.RESTR.norm>
0

>  <SCORE.SYSTEM>
0

>  <SCORE.SYSTEM.CONST>
0

>  <SCORE.SYSTEM.DIHEDRAL>
0

>  <SCORE.SYSTEM.SOLV>
0

>  <SCORE.SYSTEM.norm>
0

>  <SCORE.heavy>
10

>  <SCORE.norm>
-0.996203

>  <RMSD>
5.602

$$$$
ligand
 OpenBabel11021811473D
libRbt.so/2013.1/901 2013/11/27
 10  9  0  0  0  0  0  0  0  0999 V2000
   28.0640   15.4373   18.9564 N   0  0  0  0  0  0  0  0  0  0  0  0
   28.1371   15.0468   20.3922 C   0  0  2  0  0  0  0  0  0  0  0  0
   26.7655   15.0715   21.0669 C   0  0  0  0  0  0  0  0  0  0  0  0
   25.7224   15.2179   20.4216 O   0  0  0  0  0  0  0  0  0  0  0  0
   29.1386   15.9265   21.1451 C   0  0  0  0  0  0  0  0  0  0  0  0
   30.5681   15.8291   20.6291 C   0  0  0  0  0  0  0  0  0  0  0  0
   31.4919   16.7855   21.3828 C   0  0  0  0  0  0  0  0  0  0  0  0
   32.9162   16.7421   20.8405 C   0  0  0  0  0  0  0  0  0  0  0  0
   33.8253   17.7054   21.5280 N   0  0  0  0  0  0  0  0  0  0  0  0
   26.6650   14.9203   22.2826 O   0  0  0  0  0  0  0  0  0  0  0  0
  2  1  1  6  0  0  0
  2  3  1  0  0  0  0
  2  5  1  0  0  0  0
  3  4  1  0  0  0  0
  3 10  1  0  0  0  0
  5  6  1  0  0  0  0
  6  7  1  0  0  0  0
  7  8  1  0  0  0  0
  8  9  1  0  0  0  0
M  END
>  <CHROM.1>
9.38743197,-61.26302808,177.14804854,-177.68407904,177.86621327,29.28641603
15.86295278,20.87879166,-3.06734278,0.30228039,1.51009279

>  <Name>
ligand

>  <RI>
0

>  <Rbt.Current_Directory>
/home/itssahil/PROJECTS/Mol_Feturizer/New_Systems/rnas/3DJ2

>  <Rbt.Executable>
rbdock ($Id: //depot/dev/client3/rdock/2013.1/src/exe/rbdock.cxx#4 $)

>  <Rbt.Library>
libRbt.so (2013.1, Build901 2013/11/27)

>  <Rbt.Parameter_File>
/export/apps/rDock/src/rDock_2013.1_src/data/scripts/dock_solv.prm

>  <Rbt.Receptor>
prm/pocket_docking_3.prm

>  <SCORE>
-10.3347

>  <SCORE.INTER>
-8.9027

>  <SCORE.INTER.CONST>
1

>  <SCORE.INTER.POLAR>
0

>  <SCORE.INTER.ROT>
5

>  <SCORE.INTER.SOLV>
14.0817

>  <SCORE.INTER.VDW>
-17.5624

>  <SCORE.INTER.norm>
-0.89027

>  <SCORE.INTRA>
-1.43203

>  <SCORE.INTRA.DIHEDRAL>
-2.6936

>  <SCORE.INTRA.DIHEDRAL.0>
4.28128

>  <SCORE.INTRA.POLAR>
0

>  <SCORE.INTRA.POLAR.0>
0

>  <SCORE.INTRA.REPUL>
0

>  <SCORE.INTRA.REPUL.0>
0

>  <SCORE.INTRA.SOLV>
-0.442821

>  <SCORE.INTRA.SOLV.lig_0>
-32.3374

>  <SCORE.INTRA.VDW>
0.13618

>  <SCORE.INTRA.VDW.0>
-0.659551

>  <SCORE.INTRA.norm>
-0.143203

>  <SCORE.RESTR>
0

>  <SCORE.RESTR.CAVITY>
0

>  <SCORE.RESTR.norm>
0

>  <SCORE.SYSTEM>
0

>  <SCORE.SYSTEM.CONST>
0

>  <SCORE.SYSTEM.DIHEDRAL>
0

>  <SCORE.SYSTEM.SOLV>
0

>  <SCORE.SYSTEM.norm>
0

>  <SCORE.heavy>
10

>  <SCORE.norm>
-1.03347

>  <RMSD>
5.603

$$$$
ligand
 OpenBabel11021811473D
libRbt.so/2013.1/901 2013/11/27
 10  9  0  0  0  0  0  0  0  0999 V2000
   25.9401   14.7793   20.7227 N   0  0  0  0  0  0  0  0  0  0  0  0
   26.9018   15.5179   19.8573 C   0  0  2  0  0  0  0  0  0  0  0  0
   27.3149   14.7050   18.6303 C   0  0  0  0  0  0  0  0  0  0  0  0
   28.0053   15.1893   17.7277 O   0  0  0  0  0  0  0  0  0  0  0  0
   28.1257   15.9642   20.6615 C   0  0  0  0  0  0  0  0  0  0  0  0
   28.9234   14.8202   21.2730 C   0  0  0  0  0  0  0  0  0  0  0  0
   30.2103   15.3308   21.9207 C   0  0  0  0  0  0  0  0  0  0  0  0
   31.2014   15.8448   20.8825 C   0  0  0  0  0  0  0  0  0  0  0  0
   32.4334   16.4215   21.4964 N   0  0  0  0  0  0  0  0  0  0  0  0
   26.9848   13.5258   18.5226 O   0  0  0  0  0  0  0  0  0  0  0  0
  2  1  1  1  0  0  0
  2  3  1  0  0  0  0
  2  5  1  0  0  0  0
  3  4  1  0  0  0  0
  3 10  1  0  0  0  0
  5  6  1  0  0  0  0
  6  7  1  0  0  0  0
  7  8  1  0  0  0  0
  8  9  1  0  0  0  0
M  END
>  <CHROM.1>
173.04146918,60.97043771,173.50339914,-68.32019682,176.67303902,28.60349682
15.19094068,20.13627954,2.62470792,-0.22185616,-1.71282109

>  <Name>
ligand

>  <RI>
0

>  <Rbt.Current_Directory>
/home/itssahil/PROJECTS/Mol_Feturizer/New_Systems/rnas/3DJ2

>  <Rbt.Executable>
rbdock ($Id: //depot/dev/client3/rdock/2013.1/src/exe/rbdock.cxx#4 $)

>  <Rbt.Library>
libRbt.so (2013.1, Build901 2013/11/27)

>  <Rbt.Parameter_File>
/export/apps/rDock/src/rDock_2013.1_src/data/scripts/dock_solv.prm

>  <Rbt.Receptor>
prm/pocket_docking_6.prm

>  <SCORE>
-9.87225

>  <SCORE.INTER>
-9.13011

>  <SCORE.INTER.CONST>
1

>  <SCORE.INTER.POLAR>
0

>  <SCORE.INTER.ROT>
5

>  <SCORE.INTER.SOLV>
17.5992

>  <SCORE.INTER.VDW>
-18.8865

>  <SCORE.INTER.norm>
-0.913011

>  <SCORE.INTRA>
-0.742139

>  <SCORE.INTRA.DIHEDRAL>
-2.27395

>  <SCORE.INTRA.DIHEDRAL.0>
4.28128

>  <SCORE.INTRA.POLAR>
0

>  <SCORE.INTRA.POLAR.0>
0

>  <SCORE.INTRA.REPUL>
0

>  <SCORE.INTRA.REPUL.0>
0

>  <SCORE.INTRA.SOLV>
-0.232031

>  <SCORE.INTRA.SOLV.lig_0>
-32.3374

>  <SCORE.INTRA.VDW>
0.51085

>  <SCORE.INTRA.VDW.0>
-0.659551

>  <SCORE.INTRA.norm>
-0.0742139

>  <SCORE.RESTR>
0

>  <SCORE.RESTR.CAVITY>
0

>  <SCORE.RESTR.norm>
0

>  <SCORE.SYSTEM>
0

>  <SCORE.SYSTEM.CONST>
0

>  <SCORE.SYSTEM.DIHEDRAL>
0

>  <SCORE.SYSTEM.SOLV>
0

>  <SCORE.SYSTEM.norm>
0

>  <SCORE.heavy>
10

>  <SCORE.norm>
-0.987225

>  <RMSD>
5.608

$$$$
ligand
 OpenBabel11021811473D
libRbt.so/2013.1/901 2013/11/27
 10  9  0  0  0  0  0  0  0  0999 V2000
   25.9388   14.7694   20.7520 N   0  0  0  0  0  0  0  0  0  0  0  0
   26.8868   15.5171   19.8793 C   0  0  2  0  0  0  0  0  0  0  0  0
   27.2846   14.7149   18.6401 C   0  0  0  0  0  0  0  0  0  0  0  0
   27.9526   15.2111   17.7272 O   0  0  0  0  0  0  0  0  0  0  0  0
   28.1208   15.9597   20.6699 C   0  0  0  0  0  0  0  0  0  0  0  0
   28.8780   14.8195   21.3376 C   0  0  0  0  0  0  0  0  0  0  0  0
   30.1739   15.3185   21.9762 C   0  0  0  0  0  0  0  0  0  0  0  0
   31.1833   15.7729   20.9279 C   0  0  0  0  0  0  0  0  0  0  0  0
   32.4146   16.3636   21.5300 N   0  0  0  0  0  0  0  0  0  0  0  0
   26.9644   13.5330   18.5323 O   0  0  0  0  0  0  0  0  0  0  0  0
  2  1  1  1  0  0  0
  2  3  1  0  0  0  0
  2  5  1  0  0  0  0
  3  4  1  0  0  0  0
  3 10  1  0  0  0  0
  5  6  1  0  0  0  0
  6  7  1  0  0  0  0
  7  8  1  0  0  0  0
  8  9  1  0  0  0  0
M  END
>  <CHROM.1>
172.47293041,57.15206141,173.82264675,-67.65753357,175.51585613,28.57886401
15.17939910,20.16370151,2.61861302,-0.21774025,-1.69640363

>  <Name>
ligand

>  <RI>
0

>  <Rbt.Current_Directory>
/home/itssahil/PROJECTS/Mol_Feturizer/New_Systems/rnas/3DJ2

>  <Rbt.Executable>
rbdock ($Id: //depot/dev/client3/rdock/2013.1/src/exe/rbdock.cxx#4 $)

>  <Rbt.Library>
libRbt.so (2013.1, Build901 2013/11/27)

>  <Rbt.Parameter_File>
/export/apps/rDock/src/rDock_2013.1_src/data/scripts/dock_solv.prm

>  <Rbt.Receptor>
prm/pocket_docking_5.prm

>  <SCORE>
-9.9435

>  <SCORE.INTER>
-9.25848

>  <SCORE.INTER.CONST>
1

>  <SCORE.INTER.POLAR>
0

>  <SCORE.INTER.ROT>
5

>  <SCORE.INTER.SOLV>
17.7748

>  <SCORE.INTER.VDW>
-19.0306

>  <SCORE.INTER.norm>
-0.925848

>  <SCORE.INTRA>
-0.685023

>  <SCORE.INTRA.DIHEDRAL>
-2.26303

>  <SCORE.INTRA.DIHEDRAL.0>
4.28128

>  <SCORE.INTRA.POLAR>
0

>  <SCORE.INTRA.POLAR.0>
0

>  <SCORE.INTRA.REPUL>
0

>  <SCORE.INTRA.REPUL.0>
0

>  <SCORE.INTRA.SOLV>
-0.170417

>  <SCORE.INTRA.SOLV.lig_0>
-32.3374

>  <SCORE.INTRA.VDW>
0.531698

>  <SCORE.INTRA.VDW.0>
-0.659551

>  <SCORE.INTRA.norm>
-0.0685023

>  <SCORE.RESTR>
0

>  <SCORE.RESTR.CAVITY>
0

>  <SCORE.RESTR.norm>
0

>  <SCORE.SYSTEM>
0

>  <SCORE.SYSTEM.CONST>
0

>  <SCORE.SYSTEM.DIHEDRAL>
0

>  <SCORE.SYSTEM.SOLV>
0

>  <SCORE.SYSTEM.norm>
0

>  <SCORE.heavy>
10

>  <SCORE.norm>
-0.99435

>  <RMSD>
5.614

$$$$
ligand
 OpenBabel11021811473D
libRbt.so/2013.1/901 2013/11/27
 10  9  0  0  0  0  0  0  0  0999 V2000
   26.5067   14.5115   20.8200 N   0  0  0  0  0  0  0  0  0  0  0  0
   26.8818   15.1399   19.5224 C   0  0  2  0  0  0  0  0  0  0  0  0
   27.5009   14.1335   18.5523 C   0  0  0  0  0  0  0  0  0  0  0  0
   28.6938   13.8181   18.6110 O   0  0  0  0  0  0  0  0  0  0  0  0
   27.8115   16.3356   19.7454 C   0  0  0  0  0  0  0  0  0  0  0  0
   29.0579   16.0154   20.5598 C   0  0  0  0  0  0  0  0  0  0  0  0
   29.9002   17.2693   20.7933 C   0  0  0  0  0  0  0  0  0  0  0  0
   31.1464   16.9687   21.6186 C   0  0  0  0  0  0  0  0  0  0  0  0
   32.1210   16.0990   20.8967 N   0  0  0  0  0  0  0  0  0  0  0  0
   26.8108   13.5886   17.6934 O   0  0  0  0  0  0  0  0  0  0  0  0
  2  1  1  1  0  0  0
  2  3  1  0  0  0  0
  2  5  1  0  0  0  0
  3  4  1  0  0  0  0
  3 10  1  0  0  0  0
  5  6  1  0  0  0  0
  6  7  1  0  0  0  0
  7  8  1  0  0  0  0
  8  9  1  0  0  0  0
M  END
>  <CHROM.1>
-82.29480617,54.54151572,-177.38925033,179.47655895,66.91406572,28.64689522
15.36056940,19.85421529,2.41029729,-0.04504846,-2.34605848

>  <Name>
ligand

>  <RI>
0

>  <Rbt.Current_Directory>
/home/itssahil/PROJECTS/Mol_Feturizer/New_Systems/rnas/3DJ2

>  <Rbt.Executable>
rbdock ($Id: //depot/dev/client3/rdock/2013.1/src/exe/rbdock.cxx#4 $)

>  <Rbt.Library>
libRbt.so (2013.1, Build901 2013/11/27)

>  <Rbt.Parameter_File>
/export/apps/rDock/src/rDock_2013.1_src/data/scripts/dock_solv.prm

>  <Rbt.Receptor>
prm/pocket_docking_5.prm

>  <SCORE>
-8.77322

>  <SCORE.INTER>
-8.10569

>  <SCORE.INTER.CONST>
1

>  <SCORE.INTER.POLAR>
0

>  <SCORE.INTER.ROT>
5

>  <SCORE.INTER.SOLV>
16.4414

>  <SCORE.INTER.VDW>
-17.8176

>  <SCORE.INTER.norm>
-0.810569

>  <SCORE.INTRA>
-0.667529

>  <SCORE.INTRA.DIHEDRAL>
-2.46467

>  <SCORE.INTRA.DIHEDRAL.0>
4.28128

>  <SCORE.INTRA.POLAR>
0

>  <SCORE.INTRA.POLAR.0>
0

>  <SCORE.INTRA.REPUL>
0

>  <SCORE.INTRA.REPUL.0>
0

>  <SCORE.INTRA.SOLV>
0.461767

>  <SCORE.INTRA.SOLV.lig_0>
-32.3374

>  <SCORE.INTRA.VDW>
0.333923

>  <SCORE.INTRA.VDW.0>
-0.659551

>  <SCORE.INTRA.norm>
-0.0667529

>  <SCORE.RESTR>
0

>  <SCORE.RESTR.CAVITY>
0

>  <SCORE.RESTR.norm>
0

>  <SCORE.SYSTEM>
0

>  <SCORE.SYSTEM.CONST>
0

>  <SCORE.SYSTEM.DIHEDRAL>
0

>  <SCORE.SYSTEM.SOLV>
0

>  <SCORE.SYSTEM.norm>
0

>  <SCORE.heavy>
10

>  <SCORE.norm>
-0.877322

>  <RMSD>
5.622

$$$$
ligand
 OpenBabel11021811473D
libRbt.so/2013.1/901 2013/11/27
 10  9  0  0  0  0  0  0  0  0999 V2000
   26.0375   15.5629   20.0393 N   0  0  0  0  0  0  0  0  0  0  0  0
   27.4545   15.2931   19.6668 C   0  0  2  0  0  0  0  0  0  0  0  0
   27.5812   14.7298   18.2513 C   0  0  0  0  0  0  0  0  0  0  0  0
   27.0124   13.6880   17.9092 O   0  0  0  0  0  0  0  0  0  0  0  0
   28.1197   14.3691   20.6902 C   0  0  0  0  0  0  0  0  0  0  0  0
   28.8124   15.0983   21.8339 C   0  0  0  0  0  0  0  0  0  0  0  0
   30.0493   15.8480   21.3399 C   0  0  0  0  0  0  0  0  0  0  0  0
   30.7756   16.5546   22.4791 C   0  0  0  0  0  0  0  0  0  0  0  0
   32.0006   17.2753   22.0237 N   0  0  0  0  0  0  0  0  0  0  0  0
   28.2425   15.3217   17.4008 O   0  0  0  0  0  0  0  0  0  0  0  0
  2  1  1  1  0  0  0
  2  3  1  0  0  0  0
  2  5  1  0  0  0  0
  3  4  1  0  0  0  0
  3 10  1  0  0  0  0
  5  6  1  0  0  0  0
  6  7  1  0  0  0  0
  7  8  1  0  0  0  0
  8  9  1  0  0  0  0
M  END
>  <CHROM.1>
-58.09299051,-90.81577035,-68.74460644,-178.52704106,179.04656532,28.60394233
15.35926189,20.12390348,2.37823296,-0.39846537,-1.66259225

>  <Name>
ligand

>  <RI>
0

>  <Rbt.Current_Directory>
/home/itssahil/PROJECTS/Mol_Feturizer/New_Systems/rnas/3DJ2

>  <Rbt.Executable>
rbdock ($Id: //depot/dev/client3/rdock/2013.1/src/exe/rbdock.cxx#4 $)

>  <Rbt.Library>
libRbt.so (2013.1, Build901 2013/11/27)

>  <Rbt.Parameter_File>
/export/apps/rDock/src/rDock_2013.1_src/data/scripts/dock_solv.prm

>  <Rbt.Receptor>
prm/pocket_docking_4.prm

>  <SCORE>
-8.793

>  <SCORE.INTER>
-8.65574

>  <SCORE.INTER.CONST>
1

>  <SCORE.INTER.POLAR>
0

>  <SCORE.INTER.ROT>
5

>  <SCORE.INTER.SOLV>
16.2578

>  <SCORE.INTER.VDW>
-18.1231

>  <SCORE.INTER.norm>
-0.865574

>  <SCORE.INTRA>
-0.137259

>  <SCORE.INTRA.DIHEDRAL>
0.599923

>  <SCORE.INTRA.DIHEDRAL.0>
4.28128

>  <SCORE.INTRA.POLAR>
0

>  <SCORE.INTRA.POLAR.0>
0

>  <SCORE.INTRA.REPUL>
0

>  <SCORE.INTRA.REPUL.0>
0

>  <SCORE.INTRA.SOLV>
-0.532776

>  <SCORE.INTRA.SOLV.lig_0>
-32.3374

>  <SCORE.INTRA.VDW>
-0.170832

>  <SCORE.INTRA.VDW.0>
-0.659551

>  <SCORE.INTRA.norm>
-0.0137259

>  <SCORE.RESTR>
0

>  <SCORE.RESTR.CAVITY>
0

>  <SCORE.RESTR.norm>
0

>  <SCORE.SYSTEM>
0

>  <SCORE.SYSTEM.CONST>
0

>  <SCORE.SYSTEM.DIHEDRAL>
0

>  <SCORE.SYSTEM.SOLV>
0

>  <SCORE.SYSTEM.norm>
0

>  <SCORE.heavy>
10

>  <SCORE.norm>
-0.8793

>  <RMSD>
5.623

$$$$
ligand
 OpenBabel11021811473D
libRbt.so/2013.1/901 2013/11/27
 10  9  0  0  0  0  0  0  0  0999 V2000
   26.0419   15.5821   20.0780 N   0  0  0  0  0  0  0  0  0  0  0  0
   27.4530   15.3135   19.6832 C   0  0  2  0  0  0  0  0  0  0  0  0
   27.5588   14.7616   18.2614 C   0  0  0  0  0  0  0  0  0  0  0  0
   27.0116   13.7054   17.9281 O   0  0  0  0  0  0  0  0  0  0  0  0
   28.1316   14.3805   20.6895 C   0  0  0  0  0  0  0  0  0  0  0  0
   28.8200   15.0986   21.8427 C   0  0  0  0  0  0  0  0  0  0  0  0
   30.0431   15.8754   21.3560 C   0  0  0  0  0  0  0  0  0  0  0  0
   30.7809   16.5492   22.5075 C   0  0  0  0  0  0  0  0  0  0  0  0
   31.9752   17.3212   22.0548 N   0  0  0  0  0  0  0  0  0  0  0  0
   28.1801   15.3768   17.3975 O   0  0  0  0  0  0  0  0  0  0  0  0
  2  1  1  1  0  0  0
  2  3  1  0  0  0  0
  2  5  1  0  0  0  0
  3  4  1  0  0  0  0
  3 10  1  0  0  0  0
  5  6  1  0  0  0  0
  6  7  1  0  0  0  0
  7  8  1  0  0  0  0
  8  9  1  0  0  0  0
M  END
>  <CHROM.1>
-59.96670156,-89.76273928,-68.46133818,-177.42270378,-179.64821648,28.59450451
15.38190102,20.14020565,2.38337932,-0.41392047,-1.64190708

>  <Name>
ligand

>  <RI>
0

>  <Rbt.Current_Directory>
/home/itssahil/PROJECTS/Mol_Feturizer/New_Systems/rnas/3DJ2

>  <Rbt.Executable>
rbdock ($Id: //depot/dev/client3/rdock/2013.1/src/exe/rbdock.cxx#4 $)

>  <Rbt.Library>
libRbt.so (2013.1, Build901 2013/11/27)

>  <Rbt.Parameter_File>
/export/apps/rDock/src/rDock_2013.1_src/data/scripts/dock_solv.prm

>  <Rbt.Receptor>
prm/pocket_docking_8.prm

>  <SCORE>
-8.79712

>  <SCORE.INTER>
-8.60892

>  <SCORE.INTER.CONST>
1

>  <SCORE.INTER.POLAR>
0

>  <SCORE.INTER.ROT>
5

>  <SCORE.INTER.SOLV>
16.3029

>  <SCORE.INTER.VDW>
-18.1069

>  <SCORE.INTER.norm>
-0.860892

>  <SCORE.INTRA>
-0.190663

>  <SCORE.INTRA.DIHEDRAL>
0.433759

>  <SCORE.INTRA.DIHEDRAL.0>
4.28128

>  <SCORE.INTRA.POLAR>
0

>  <SCORE.INTRA.POLAR.0>
0

>  <SCORE.INTRA.REPUL>
0

>  <SCORE.INTRA.REPUL.0>
0

>  <SCORE.INTRA.SOLV>
-0.512803

>  <SCORE.INTRA.SOLV.lig_0>
-32.3374

>  <SCORE.INTRA.VDW>
-0.151141

>  <SCORE.INTRA.VDW.0>
-0.659551

>  <SCORE.INTRA.norm>
-0.0190663

>  <SCORE.RESTR>
0.00247294

>  <SCORE.RESTR.CAVITY>
0.00247294

>  <SCORE.RESTR.norm>
0.000247294

>  <SCORE.SYSTEM>
0

>  <SCORE.SYSTEM.CONST>
0

>  <SCORE.SYSTEM.DIHEDRAL>
0

>  <SCORE.SYSTEM.SOLV>
0

>  <SCORE.SYSTEM.norm>
0

>  <SCORE.heavy>
10

>  <SCORE.norm>
-0.879712

>  <RMSD>
5.626

$$$$
ligand
 OpenBabel11021811473D
libRbt.so/2013.1/901 2013/11/27
 10  9  0  0  0  0  0  0  0  0999 V2000
   26.9139   14.6212   20.6856 N   0  0  0  0  0  0  0  0  0  0  0  0
   27.2272   15.5611   19.5731 C   0  0  2  0  0  0  0  0  0  0  0  0
   27.7012   14.8299   18.3169 C   0  0  0  0  0  0  0  0  0  0  0  0
   27.5352   13.6151   18.1661 O   0  0  0  0  0  0  0  0  0  0  0  0
   28.2481   16.6112   20.0189 C   0  0  0  0  0  0  0  0  0  0  0  0
   29.5212   16.0302   20.6198 C   0  0  0  0  0  0  0  0  0  0  0  0
   30.4576   17.1377   21.1022 C   0  0  0  0  0  0  0  0  0  0  0  0
   31.7414   16.5732   21.7001 C   0  0  0  0  0  0  0  0  0  0  0  0
   32.6634   17.6366   22.1965 N   0  0  0  0  0  0  0  0  0  0  0  0
   28.2455   15.4466   17.4035 O   0  0  0  0  0  0  0  0  0  0  0  0
  2  1  1  1  0  0  0
  2  3  1  0  0  0  0
  2  5  1  0  0  0  0
  3  4  1  0  0  0  0
  3 10  1  0  0  0  0
  5  6  1  0  0  0  0
  6  7  1  0  0  0  0
  7  8  1  0  0  0  0
  8  9  1  0  0  0  0
M  END
>  <CHROM.1>
15.61702065,53.61802630,-177.19395610,-179.68794572,-179.16448713,29.02528744
15.78622266,19.94315930,2.47460044,-0.40155204,-1.77308959

>  <Name>
ligand

>  <RI>
0

>  <Rbt.Current_Directory>
/home/itssahil/PROJECTS/Mol_Feturizer/New_Systems/rnas/3DJ2

>  <Rbt.Executable>
rbdock ($Id: //depot/dev/client3/rdock/2013.1/src/exe/rbdock.cxx#4 $)

>  <Rbt.Library>
libRbt.so (2013.1, Build901 2013/11/27)

>  <Rbt.Parameter_File>
/export/apps/rDock/src/rDock_2013.1_src/data/scripts/dock_solv.prm

>  <Rbt.Receptor>
prm/blind_docking_60.prm

>  <SCORE>
-9.65634

>  <SCORE.INTER>
-8.45636

>  <SCORE.INTER.CONST>
1

>  <SCORE.INTER.POLAR>
0

>  <SCORE.INTER.ROT>
5

>  <SCORE.INTER.SOLV>
15.21

>  <SCORE.INTER.VDW>
-17.6409

>  <SCORE.INTER.norm>
-0.845636

>  <SCORE.INTRA>
-1.19999

>  <SCORE.INTRA.DIHEDRAL>
-2.57961

>  <SCORE.INTRA.DIHEDRAL.0>
4.28128

>  <SCORE.INTRA.POLAR>
0

>  <SCORE.INTRA.POLAR.0>
0

>  <SCORE.INTRA.REPUL>
0

>  <SCORE.INTRA.REPUL.0>
0

>  <SCORE.INTRA.SOLV>
-0.358815

>  <SCORE.INTRA.SOLV.lig_0>
-32.3374

>  <SCORE.INTRA.VDW>
0.269227

>  <SCORE.INTRA.VDW.0>
-0.659551

>  <SCORE.INTRA.norm>
-0.119999

>  <SCORE.RESTR>
0

>  <SCORE.RESTR.CAVITY>
0

>  <SCORE.RESTR.norm>
0

>  <SCORE.SYSTEM>
0

>  <SCORE.SYSTEM.CONST>
0

>  <SCORE.SYSTEM.DIHEDRAL>
0

>  <SCORE.SYSTEM.SOLV>
0

>  <SCORE.SYSTEM.norm>
0

>  <SCORE.heavy>
10

>  <SCORE.norm>
-0.965634

>  <RMSD>
5.628

$$$$
ligand
 OpenBabel11021811473D
libRbt.so/2013.1/901 2013/11/27
 10  9  0  0  0  0  0  0  0  0999 V2000
   26.0129   15.5064   20.1370 N   0  0  0  0  0  0  0  0  0  0  0  0
   27.4258   15.2920   19.7161 C   0  0  2  0  0  0  0  0  0  0  0  0
   27.5285   14.7930   18.2747 C   0  0  0  0  0  0  0  0  0  0  0  0
   28.1502   15.4181   17.4095 O   0  0  0  0  0  0  0  0  0  0  0  0
   28.1433   14.3442   20.6809 C   0  0  0  0  0  0  0  0  0  0  0  0
   28.8489   15.0433   21.8353 C   0  0  0  0  0  0  0  0  0  0  0  0
   30.0611   15.8332   21.3424 C   0  0  0  0  0  0  0  0  0  0  0  0
   30.7840   16.5339   22.4873 C   0  0  0  0  0  0  0  0  0  0  0  0
   31.9663   17.3204   22.0281 N   0  0  0  0  0  0  0  0  0  0  0  0
   27.0072   13.7302   17.9434 O   0  0  0  0  0  0  0  0  0  0  0  0
  2  1  1  1  0  0  0
  2  3  1  0  0  0  0
  2  5  1  0  0  0  0
  3  4  1  0  0  0  0
  3 10  1  0  0  0  0
  5  6  1  0  0  0  0
  6  7  1  0  0  0  0
  7  8  1  0  0  0  0
  8  9  1  0  0  0  0
M  END
>  <CHROM.1>
120.83796698,-90.88986200,-69.38823497,-179.70272629,-179.57615288,28.58790397
15.36764514,20.14570868,2.40483204,-0.43037724,-1.61181769

>  <Name>
ligand

>  <RI>
0

>  <Rbt.Current_Directory>
/home/itssahil/PROJECTS/Mol_Feturizer/New_Systems/rnas/3DJ2

>  <Rbt.Executable>
rbdock ($Id: //depot/dev/client3/rdock/2013.1/src/exe/rbdock.cxx#4 $)

>  <Rbt.Library>
libRbt.so (2013.1, Build901 2013/11/27)

>  <Rbt.Parameter_File>
/export/apps/rDock/src/rDock_2013.1_src/data/scripts/dock_solv.prm

>  <Rbt.Receptor>
prm/pocket_docking_5.prm

>  <SCORE>
-8.67199

>  <SCORE.INTER>
-8.57924

>  <SCORE.INTER.CONST>
1

>  <SCORE.INTER.POLAR>
0

>  <SCORE.INTER.ROT>
5

>  <SCORE.INTER.SOLV>
16.3625

>  <SCORE.INTER.VDW>
-18.107

>  <SCORE.INTER.norm>
-0.857924

>  <SCORE.INTRA>
-0.0927492

>  <SCORE.INTRA.DIHEDRAL>
0.647013

>  <SCORE.INTRA.DIHEDRAL.0>
4.28128

>  <SCORE.INTRA.POLAR>
0

>  <SCORE.INTRA.POLAR.0>
0

>  <SCORE.INTRA.REPUL>
0

>  <SCORE.INTRA.REPUL.0>
0

>  <SCORE.INTRA.SOLV>
-0.547237

>  <SCORE.INTRA.SOLV.lig_0>
-32.3374

>  <SCORE.INTRA.VDW>
-0.142637

>  <SCORE.INTRA.VDW.0>
-0.659551

>  <SCORE.INTRA.norm>
-0.00927492

>  <SCORE.RESTR>
0

>  <SCORE.RESTR.CAVITY>
0

>  <SCORE.RESTR.norm>
0

>  <SCORE.SYSTEM>
0

>  <SCORE.SYSTEM.CONST>
0

>  <SCORE.SYSTEM.DIHEDRAL>
0

>  <SCORE.SYSTEM.SOLV>
0

>  <SCORE.SYSTEM.norm>
0

>  <SCORE.heavy>
10

>  <SCORE.norm>
-0.867199

>  <RMSD>
5.629

$$$$
ligand
 OpenBabel11021811473D
libRbt.so/2013.1/901 2013/11/27
 10  9  0  0  0  0  0  0  0  0999 V2000
   27.9960   15.4521   22.3250 N   0  0  0  0  0  0  0  0  0  0  0  0
   28.0227   15.7815   20.8723 C   0  0  2  0  0  0  0  0  0  0  0  0
   26.8958   15.0910   20.1039 C   0  0  0  0  0  0  0  0  0  0  0  0
   25.7823   14.9038   20.6049 O   0  0  0  0  0  0  0  0  0  0  0  0
   29.3884   15.4514   20.2645 C   0  0  0  0  0  0  0  0  0  0  0  0
   30.5311   16.3101   20.7901 C   0  0  0  0  0  0  0  0  0  0  0  0
   31.8788   15.8128   20.2681 C   0  0  0  0  0  0  0  0  0  0  0  0
   33.0040   16.7924   20.5823 C   0  0  0  0  0  0  0  0  0  0  0  0
   33.2006   16.9951   22.0477 N   0  0  0  0  0  0  0  0  0  0  0  0
   27.0663   14.7216   18.9439 O   0  0  0  0  0  0  0  0  0  0  0  0
  2  1  1  1  0  0  0
  2  3  1  0  0  0  0
  2  5  1  0  0  0  0
  3  4  1  0  0  0  0
  3 10  1  0  0  0  0
  5  6  1  0  0  0  0
  6  7  1  0  0  0  0
  7  8  1  0  0  0  0
  8  9  1  0  0  0  0
M  END
>  <CHROM.1>
34.89698863,-66.15887928,173.12270524,170.14639746,61.61226898,29.33882913
15.71414099,20.66137949,2.95357827,-0.23042349,-1.79696928

>  <Name>
ligand

>  <RI>
0

>  <Rbt.Current_Directory>
/home/itssahil/PROJECTS/Mol_Feturizer/New_Systems/rnas/3DJ2

>  <Rbt.Executable>
rbdock ($Id: //depot/dev/client3/rdock/2013.1/src/exe/rbdock.cxx#4 $)

>  <Rbt.Library>
libRbt.so (2013.1, Build901 2013/11/27)

>  <Rbt.Parameter_File>
/export/apps/rDock/src/rDock_2013.1_src/data/scripts/dock_solv.prm

>  <Rbt.Receptor>
prm/pocket_docking_8.prm

>  <SCORE>
-7.92918

>  <SCORE.INTER>
-7.64223

>  <SCORE.INTER.CONST>
1

>  <SCORE.INTER.POLAR>
0

>  <SCORE.INTER.ROT>
5

>  <SCORE.INTER.SOLV>
17.0376

>  <SCORE.INTER.VDW>
-17.7073

>  <SCORE.INTER.norm>
-0.764223

>  <SCORE.INTRA>
-0.286951

>  <SCORE.INTRA.DIHEDRAL>
-2.03753

>  <SCORE.INTRA.DIHEDRAL.0>
4.28128

>  <SCORE.INTRA.POLAR>
0

>  <SCORE.INTRA.POLAR.0>
0

>  <SCORE.INTRA.REPUL>
0

>  <SCORE.INTRA.REPUL.0>
0

>  <SCORE.INTRA.SOLV>
0.390167

>  <SCORE.INTRA.SOLV.lig_0>
-32.3374

>  <SCORE.INTRA.VDW>
0.536731

>  <SCORE.INTRA.VDW.0>
-0.659551

>  <SCORE.INTRA.norm>
-0.0286951

>  <SCORE.RESTR>
0

>  <SCORE.RESTR.CAVITY>
0

>  <SCORE.RESTR.norm>
0

>  <SCORE.SYSTEM>
0

>  <SCORE.SYSTEM.CONST>
0

>  <SCORE.SYSTEM.DIHEDRAL>
0

>  <SCORE.SYSTEM.SOLV>
0

>  <SCORE.SYSTEM.norm>
0

>  <SCORE.heavy>
10

>  <SCORE.norm>
-0.792918

>  <RMSD>
5.630

$$$$
ligand
 OpenBabel11021811473D
libRbt.so/2013.1/901 2013/11/27
 10  9  0  0  0  0  0  0  0  0999 V2000
   28.6655   15.0197   19.0966 N   0  0  0  0  0  0  0  0  0  0  0  0
   28.2883   14.9724   20.5370 C   0  0  2  0  0  0  0  0  0  0  0  0
   26.7749   15.0502   20.7395 C   0  0  0  0  0  0  0  0  0  0  0  0
   26.0243   15.5246   19.8808 O   0  0  0  0  0  0  0  0  0  0  0  0
   29.0078   16.0706   21.3244 C   0  0  0  0  0  0  0  0  0  0  0  0
   30.5270   15.9693   21.2935 C   0  0  0  0  0  0  0  0  0  0  0  0
   31.1732   17.1746   21.9760 C   0  0  0  0  0  0  0  0  0  0  0  0
   32.6946   17.1250   21.8912 C   0  0  0  0  0  0  0  0  0  0  0  0
   33.3464   18.3171   22.5088 N   0  0  0  0  0  0  0  0  0  0  0  0
   26.2593   14.6144   21.7667 O   0  0  0  0  0  0  0  0  0  0  0  0
  2  1  1  6  0  0  0
  2  3  1  0  0  0  0
  2  5  1  0  0  0  0
  3  4  1  0  0  0  0
  3 10  1  0  0  0  0
  5  6  1  0  0  0  0
  6  7  1  0  0  0  0
  7  8  1  0  0  0  0
  8  9  1  0  0  0  0
M  END
>  <CHROM.1>
-21.76429084,-60.77219763,174.13538969,-177.07774526,177.95319035,29.23080242
15.97858983,21.10296963,-2.79644658,0.32447481,1.28893807

>  <Name>
ligand

>  <RI>
0

>  <Rbt.Current_Directory>
/home/itssahil/PROJECTS/Mol_Feturizer/New_Systems/rnas/3DJ2

>  <Rbt.Executable>
rbdock ($Id: //depot/dev/client3/rdock/2013.1/src/exe/rbdock.cxx#4 $)

>  <Rbt.Library>
libRbt.so (2013.1, Build901 2013/11/27)

>  <Rbt.Parameter_File>
/export/apps/rDock/src/rDock_2013.1_src/data/scripts/dock_solv.prm

>  <Rbt.Receptor>
prm/pocket_docking_5.prm

>  <SCORE>
-10.4277

>  <SCORE.INTER>
-8.81597

>  <SCORE.INTER.CONST>
1

>  <SCORE.INTER.POLAR>
0

>  <SCORE.INTER.ROT>
5

>  <SCORE.INTER.SOLV>
13.3182

>  <SCORE.INTER.VDW>
-17.25

>  <SCORE.INTER.norm>
-0.881597

>  <SCORE.INTRA>
-1.61177

>  <SCORE.INTRA.DIHEDRAL>
-2.51256

>  <SCORE.INTRA.DIHEDRAL.0>
4.28128

>  <SCORE.INTRA.POLAR>
0

>  <SCORE.INTRA.POLAR.0>
0

>  <SCORE.INTRA.REPUL>
0

>  <SCORE.INTRA.REPUL.0>
0

>  <SCORE.INTRA.SOLV>
-0.41971

>  <SCORE.INTRA.SOLV.lig_0>
-32.3374

>  <SCORE.INTRA.VDW>
-0.14564

>  <SCORE.INTRA.VDW.0>
-0.659551

>  <SCORE.INTRA.norm>
-0.161177

>  <SCORE.RESTR>
0

>  <SCORE.RESTR.CAVITY>
0

>  <SCORE.RESTR.norm>
0

>  <SCORE.SYSTEM>
0

>  <SCORE.SYSTEM.CONST>
0

>  <SCORE.SYSTEM.DIHEDRAL>
0

>  <SCORE.SYSTEM.SOLV>
0

>  <SCORE.SYSTEM.norm>
0

>  <SCORE.heavy>
10

>  <SCORE.norm>
-1.04277

>  <RMSD>
5.631

$$$$
ligand
 OpenBabel11021811473D
libRbt.so/2013.1/901 2013/11/27
 10  9  0  0  0  0  0  0  0  0999 V2000
   26.0325   15.4935   20.1687 N   0  0  0  0  0  0  0  0  0  0  0  0
   27.4429   15.2839   19.7372 C   0  0  2  0  0  0  0  0  0  0  0  0
   27.5351   14.7518   18.3070 C   0  0  0  0  0  0  0  0  0  0  0  0
   28.1442   15.3604   17.4213 O   0  0  0  0  0  0  0  0  0  0  0  0
   28.1810   14.3671   20.7161 C   0  0  0  0  0  0  0  0  0  0  0  0
   28.8681   15.0987   21.8615 C   0  0  0  0  0  0  0  0  0  0  0  0
   30.0485   15.9277   21.3560 C   0  0  0  0  0  0  0  0  0  0  0  0
   30.8166   16.5766   22.5020 C   0  0  0  0  0  0  0  0  0  0  0  0
   32.0152   17.3347   22.0373 N   0  0  0  0  0  0  0  0  0  0  0  0
   27.0178   13.6781   18.0059 O   0  0  0  0  0  0  0  0  0  0  0  0
  2  1  1  1  0  0  0
  2  3  1  0  0  0  0
  2  5  1  0  0  0  0
  3  4  1  0  0  0  0
  3 10  1  0  0  0  0
  5  6  1  0  0  0  0
  6  7  1  0  0  0  0
  7  8  1  0  0  0  0
  8  9  1  0  0  0  0
M  END
>  <CHROM.1>
121.07806184,-89.70602345,-68.49481085,-175.37794817,177.07929662,28.60498902
15.37250819,20.17180891,2.40249134,-0.42582710,-1.63726794

>  <Name>
ligand

>  <RI>
0

>  <Rbt.Current_Directory>
/home/itssahil/PROJECTS/Mol_Feturizer/New_Systems/rnas/3DJ2

>  <Rbt.Executable>
rbdock ($Id: //depot/dev/client3/rdock/2013.1/src/exe/rbdock.cxx#4 $)

>  <Rbt.Library>
libRbt.so (2013.1, Build901 2013/11/27)

>  <Rbt.Parameter_File>
/export/apps/rDock/src/rDock_2013.1_src/data/scripts/dock_solv.prm

>  <Rbt.Receptor>
prm/pocket_docking_8.prm

>  <SCORE>
-8.72849

>  <SCORE.INTER>
-8.60872

>  <SCORE.INTER.CONST>
1

>  <SCORE.INTER.POLAR>
0

>  <SCORE.INTER.ROT>
5

>  <SCORE.INTER.SOLV>
16.2788

>  <SCORE.INTER.VDW>
-18.0988

>  <SCORE.INTER.norm>
-0.860872

>  <SCORE.INTRA>
-0.119771

>  <SCORE.INTRA.DIHEDRAL>
0.525215

>  <SCORE.INTRA.DIHEDRAL.0>
4.28128

>  <SCORE.INTRA.POLAR>
0

>  <SCORE.INTRA.POLAR.0>
0

>  <SCORE.INTRA.REPUL>
0

>  <SCORE.INTRA.REPUL.0>
0

>  <SCORE.INTRA.SOLV>
-0.518272

>  <SCORE.INTRA.SOLV.lig_0>
-32.3374

>  <SCORE.INTRA.VDW>
-0.123243

>  <SCORE.INTRA.VDW.0>
-0.659551

>  <SCORE.INTRA.norm>
-0.0119771

>  <SCORE.RESTR>
0

>  <SCORE.RESTR.CAVITY>
0

>  <SCORE.RESTR.norm>
0

>  <SCORE.SYSTEM>
0

>  <SCORE.SYSTEM.CONST>
0

>  <SCORE.SYSTEM.DIHEDRAL>
0

>  <SCORE.SYSTEM.SOLV>
0

>  <SCORE.SYSTEM.norm>
0

>  <SCORE.heavy>
10

>  <SCORE.norm>
-0.872849

>  <RMSD>
5.631

$$$$
ligand
 OpenBabel11021811473D
libRbt.so/2013.1/901 2013/11/27
 10  9  0  0  0  0  0  0  0  0999 V2000
   28.6547   14.9817   19.0687 N   0  0  0  0  0  0  0  0  0  0  0  0
   28.2607   14.9376   20.5048 C   0  0  2  0  0  0  0  0  0  0  0  0
   26.7468   15.0412   20.6906 C   0  0  0  0  0  0  0  0  0  0  0  0
   26.1812   14.6086   21.7000 O   0  0  0  0  0  0  0  0  0  0  0  0
   28.9903   16.0213   21.3028 C   0  0  0  0  0  0  0  0  0  0  0  0
   30.5082   15.8999   21.2798 C   0  0  0  0  0  0  0  0  0  0  0  0
   31.1660   17.0811   21.9927 C   0  0  0  0  0  0  0  0  0  0  0  0
   32.6873   17.0080   21.9243 C   0  0  0  0  0  0  0  0  0  0  0  0
   33.3514   18.1700   22.5846 N   0  0  0  0  0  0  0  0  0  0  0  0
   26.0491   15.5868   19.8382 O   0  0  0  0  0  0  0  0  0  0  0  0
  2  1  1  6  0  0  0
  2  3  1  0  0  0  0
  2  5  1  0  0  0  0
  3  4  1  0  0  0  0
  3 10  1  0  0  0  0
  5  6  1  0  0  0  0
  6  7  1  0  0  0  0
  7  8  1  0  0  0  0
  8  9  1  0  0  0  0
M  END
>  <CHROM.1>
156.29277822,-60.33067560,175.03760326,-177.42231276,178.55413446,29.21418507
15.92992656,21.08963872,-2.78702880,0.29957031,1.28534602

>  <Name>
ligand

>  <RI>
0

>  <Rbt.Current_Directory>
/home/itssahil/PROJECTS/Mol_Feturizer/New_Systems/rnas/3DJ2

>  <Rbt.Executable>
rbdock ($Id: //depot/dev/client3/rdock/2013.1/src/exe/rbdock.cxx#4 $)

>  <Rbt.Library>
libRbt.so (2013.1, Build901 2013/11/27)

>  <Rbt.Parameter_File>
/export/apps/rDock/src/rDock_2013.1_src/data/scripts/dock_solv.prm

>  <Rbt.Receptor>
prm/pocket_docking_5.prm

>  <SCORE>
-10.5231

>  <SCORE.INTER>
-8.84424

>  <SCORE.INTER.CONST>
1

>  <SCORE.INTER.POLAR>
0

>  <SCORE.INTER.ROT>
5

>  <SCORE.INTER.SOLV>
13.474

>  <SCORE.INTER.VDW>
-17.3208

>  <SCORE.INTER.norm>
-0.884424

>  <SCORE.INTRA>
-1.67881

>  <SCORE.INTRA.DIHEDRAL>
-2.66461

>  <SCORE.INTRA.DIHEDRAL.0>
4.28128

>  <SCORE.INTRA.POLAR>
0

>  <SCORE.INTRA.POLAR.0>
0

>  <SCORE.INTRA.REPUL>
0

>  <SCORE.INTRA.REPUL.0>
0

>  <SCORE.INTRA.SOLV>
-0.417921

>  <SCORE.INTRA.SOLV.lig_0>
-32.3374

>  <SCORE.INTRA.VDW>
-0.137545

>  <SCORE.INTRA.VDW.0>
-0.659551

>  <SCORE.INTRA.norm>
-0.167881

>  <SCORE.RESTR>
0

>  <SCORE.RESTR.CAVITY>
0

>  <SCORE.RESTR.norm>
0

>  <SCORE.SYSTEM>
0

>  <SCORE.SYSTEM.CONST>
0

>  <SCORE.SYSTEM.DIHEDRAL>
0

>  <SCORE.SYSTEM.SOLV>
0

>  <SCORE.SYSTEM.norm>
0

>  <SCORE.heavy>
10

>  <SCORE.norm>
-1.05231

>  <RMSD>
5.633

$$$$
ligand
 OpenBabel11021811473D
libRbt.so/2013.1/901 2013/11/27
 10  9  0  0  0  0  0  0  0  0999 V2000
   26.0158   15.5427   20.0773 N   0  0  0  0  0  0  0  0  0  0  0  0
   27.4313   15.2862   19.6903 C   0  0  2  0  0  0  0  0  0  0  0  0
   27.5489   14.7266   18.2725 C   0  0  0  0  0  0  0  0  0  0  0  0
   27.0163   13.6616   17.9440 O   0  0  0  0  0  0  0  0  0  0  0  0
   28.1149   14.3663   20.7053 C   0  0  0  0  0  0  0  0  0  0  0  0
   28.8108   15.0994   21.8444 C   0  0  0  0  0  0  0  0  0  0  0  0
   30.0579   15.8306   21.3480 C   0  0  0  0  0  0  0  0  0  0  0  0
   30.7724   16.5628   22.4784 C   0  0  0  0  0  0  0  0  0  0  0  0
   31.9956   17.2829   22.0173 N   0  0  0  0  0  0  0  0  0  0  0  0
   28.1655   15.3442   17.4068 O   0  0  0  0  0  0  0  0  0  0  0  0
  2  1  1  1  0  0  0
  2  3  1  0  0  0  0
  2  5  1  0  0  0  0
  3  4  1  0  0  0  0
  3 10  1  0  0  0  0
  5  6  1  0  0  0  0
  6  7  1  0  0  0  0
  7  8  1  0  0  0  0
  8  9  1  0  0  0  0
M  END
>  <CHROM.1>
-60.11290595,-90.74067081,-70.32011013,-179.61937628,179.90142979,28.58802228
15.35558626,20.13892074,2.38805402,-0.40621502,-1.65325061

>  <Name>
ligand

>  <RI>
0

>  <Rbt.Current_Directory>
/home/itssahil/PROJECTS/Mol_Feturizer/New_Systems/rnas/3DJ2

>  <Rbt.Executable>
rbdock ($Id: //depot/dev/client3/rdock/2013.1/src/exe/rbdock.cxx#4 $)

>  <Rbt.Library>
libRbt.so (2013.1, Build901 2013/11/27)

>  <Rbt.Parameter_File>
/export/apps/rDock/src/rDock_2013.1_src/data/scripts/dock_solv.prm

>  <Rbt.Receptor>
prm/blind_docking_60.prm

>  <SCORE>
-8.77909

>  <SCORE.INTER>
-8.66594

>  <SCORE.INTER.CONST>
1

>  <SCORE.INTER.POLAR>
0

>  <SCORE.INTER.ROT>
5

>  <SCORE.INTER.SOLV>
16.3257

>  <SCORE.INTER.VDW>
-18.1525

>  <SCORE.INTER.norm>
-0.866594

>  <SCORE.INTRA>
-0.113153

>  <SCORE.INTRA.DIHEDRAL>
0.692469

>  <SCORE.INTRA.DIHEDRAL.0>
4.28128

>  <SCORE.INTRA.POLAR>
0

>  <SCORE.INTRA.POLAR.0>
0

>  <SCORE.INTRA.REPUL>
0

>  <SCORE.INTRA.REPUL.0>
0

>  <SCORE.INTRA.SOLV>
-0.547936

>  <SCORE.INTRA.SOLV.lig_0>
-32.3374

>  <SCORE.INTRA.VDW>
-0.185419

>  <SCORE.INTRA.VDW.0>
-0.659551

>  <SCORE.INTRA.norm>
-0.0113153

>  <SCORE.RESTR>
0

>  <SCORE.RESTR.CAVITY>
0

>  <SCORE.RESTR.norm>
0

>  <SCORE.SYSTEM>
0

>  <SCORE.SYSTEM.CONST>
0

>  <SCORE.SYSTEM.DIHEDRAL>
0

>  <SCORE.SYSTEM.SOLV>
0

>  <SCORE.SYSTEM.norm>
0

>  <SCORE.heavy>
10

>  <SCORE.norm>
-0.877909

>  <RMSD>
5.635

$$$$
ligand
 OpenBabel11021811473D
libRbt.so/2013.1/901 2013/11/27
 10  9  0  0  0  0  0  0  0  0999 V2000
   28.6824   15.0115   19.0897 N   0  0  0  0  0  0  0  0  0  0  0  0
   28.2848   14.9639   20.5246 C   0  0  2  0  0  0  0  0  0  0  0  0
   26.7691   15.0481   20.7059 C   0  0  0  0  0  0  0  0  0  0  0  0
   26.0323   15.5234   19.8358 O   0  0  0  0  0  0  0  0  0  0  0  0
   28.9979   16.0579   21.3235 C   0  0  0  0  0  0  0  0  0  0  0  0
   30.5155   15.9313   21.3406 C   0  0  0  0  0  0  0  0  0  0  0  0
   31.1580   17.1085   22.0738 C   0  0  0  0  0  0  0  0  0  0  0  0
   32.6793   17.0089   22.0811 C   0  0  0  0  0  0  0  0  0  0  0  0
   33.3317   18.1843   22.7292 N   0  0  0  0  0  0  0  0  0  0  0  0
   26.2376   14.6167   21.7269 O   0  0  0  0  0  0  0  0  0  0  0  0
  2  1  1  6  0  0  0
  2  3  1  0  0  0  0
  2  5  1  0  0  0  0
  3  4  1  0  0  0  0
  3 10  1  0  0  0  0
  5  6  1  0  0  0  0
  6  7  1  0  0  0  0
  7  8  1  0  0  0  0
  8  9  1  0  0  0  0
M  END
>  <CHROM.1>
-21.55297642,-62.12083709,176.09315608,-179.10105799,176.98174809,29.22349599
15.94062076,21.14373659,-2.76908515,0.30210351,1.29550591

>  <Name>
ligand

>  <RI>
0

>  <Rbt.Current_Directory>
/home/itssahil/PROJECTS/Mol_Feturizer/New_Systems/rnas/3DJ2

>  <Rbt.Executable>
rbdock ($Id: //depot/dev/client3/rdock/2013.1/src/exe/rbdock.cxx#4 $)

>  <Rbt.Library>
libRbt.so (2013.1, Build901 2013/11/27)

>  <Rbt.Parameter_File>
/export/apps/rDock/src/rDock_2013.1_src/data/scripts/dock_solv.prm

>  <Rbt.Receptor>
prm/pocket_docking_6.prm

>  <SCORE>
-10.5237

>  <SCORE.INTER>
-8.85021

>  <SCORE.INTER.CONST>
1

>  <SCORE.INTER.POLAR>
0

>  <SCORE.INTER.ROT>
5

>  <SCORE.INTER.SOLV>
13.4707

>  <SCORE.INTER.VDW>
-17.3237

>  <SCORE.INTER.norm>
-0.885021

>  <SCORE.INTRA>
-1.67346

>  <SCORE.INTRA.DIHEDRAL>
-2.58708

>  <SCORE.INTRA.DIHEDRAL.0>
4.28128

>  <SCORE.INTRA.POLAR>
0

>  <SCORE.INTRA.POLAR.0>
0

>  <SCORE.INTRA.REPUL>
0

>  <SCORE.INTRA.REPUL.0>
0

>  <SCORE.INTRA.SOLV>
-0.447249

>  <SCORE.INTRA.SOLV.lig_0>
-32.3374

>  <SCORE.INTRA.VDW>
-0.156293

>  <SCORE.INTRA.VDW.0>
-0.659551

>  <SCORE.INTRA.norm>
-0.167346

>  <SCORE.RESTR>
0

>  <SCORE.RESTR.CAVITY>
0

>  <SCORE.RESTR.norm>
0

>  <SCORE.SYSTEM>
0

>  <SCORE.SYSTEM.CONST>
0

>  <SCORE.SYSTEM.DIHEDRAL>
0

>  <SCORE.SYSTEM.SOLV>
0

>  <SCORE.SYSTEM.norm>
0

>  <SCORE.heavy>
10

>  <SCORE.norm>
-1.05237

>  <RMSD>
5.636

$$$$
ligand
 OpenBabel11021811473D
libRbt.so/2013.1/901 2013/11/27
 10  9  0  0  0  0  0  0  0  0999 V2000
   28.6923   14.7650   19.1455 N   0  0  0  0  0  0  0  0  0  0  0  0
   28.2432   14.8651   20.5624 C   0  0  2  0  0  0  0  0  0  0  0  0
   26.7269   15.0234   20.6766 C   0  0  0  0  0  0  0  0  0  0  0  0
   26.1017   14.6311   21.6671 O   0  0  0  0  0  0  0  0  0  0  0  0
   28.9728   16.0000   21.2858 C   0  0  0  0  0  0  0  0  0  0  0  0
   30.4847   15.8297   21.3517 C   0  0  0  0  0  0  0  0  0  0  0  0
   31.1452   17.0308   22.0280 C   0  0  0  0  0  0  0  0  0  0  0  0
   32.6661   16.9278   22.0052 C   0  0  0  0  0  0  0  0  0  0  0  0
   33.3344   18.1183   22.6081 N   0  0  0  0  0  0  0  0  0  0  0  0
   26.0877   15.5744   19.7829 O   0  0  0  0  0  0  0  0  0  0  0  0
  2  1  1  6  0  0  0
  2  3  1  0  0  0  0
  2  5  1  0  0  0  0
  3  4  1  0  0  0  0
  3 10  1  0  0  0  0
  5  6  1  0  0  0  0
  6  7  1  0  0  0  0
  7  8  1  0  0  0  0
  8  9  1  0  0  0  0
M  END
>  <CHROM.1>
152.06479437,-61.11248493,177.31165055,-175.54590638,177.53197456,29.20003463
15.87417524,21.11072234,-2.75304908,0.25755072,1.19111062

>  <Name>
ligand

>  <RI>
0

>  <Rbt.Current_Directory>
/home/itssahil/PROJECTS/Mol_Feturizer/New_Systems/rnas/3DJ2

>  <Rbt.Executable>
rbdock ($Id: //depot/dev/client3/rdock/2013.1/src/exe/rbdock.cxx#4 $)

>  <Rbt.Library>
libRbt.so (2013.1, Build901 2013/11/27)

>  <Rbt.Parameter_File>
/export/apps/rDock/src/rDock_2013.1_src/data/scripts/dock_solv.prm

>  <Rbt.Receptor>
prm/pocket_docking_5.prm

>  <SCORE>
-10.6468

>  <SCORE.INTER>
-8.93136

>  <SCORE.INTER.CONST>
1

>  <SCORE.INTER.POLAR>
0

>  <SCORE.INTER.ROT>
5

>  <SCORE.INTER.SOLV>
13.697

>  <SCORE.INTER.VDW>
-17.4532

>  <SCORE.INTER.norm>
-0.893136

>  <SCORE.INTRA>
-1.71546

>  <SCORE.INTRA.DIHEDRAL>
-2.66199

>  <SCORE.INTRA.DIHEDRAL.0>
4.28128

>  <SCORE.INTRA.POLAR>
0

>  <SCORE.INTRA.POLAR.0>
0

>  <SCORE.INTRA.REPUL>
0

>  <SCORE.INTRA.REPUL.0>
0

>  <SCORE.INTRA.SOLV>
-0.442005

>  <SCORE.INTRA.SOLV.lig_0>
-32.3374

>  <SCORE.INTRA.VDW>
-0.163465

>  <SCORE.INTRA.VDW.0>
-0.659551

>  <SCORE.INTRA.norm>
-0.171546

>  <SCORE.RESTR>
0

>  <SCORE.RESTR.CAVITY>
0

>  <SCORE.RESTR.norm>
0

>  <SCORE.SYSTEM>
0

>  <SCORE.SYSTEM.CONST>
0

>  <SCORE.SYSTEM.DIHEDRAL>
0

>  <SCORE.SYSTEM.SOLV>
0

>  <SCORE.SYSTEM.norm>
0

>  <SCORE.heavy>
10

>  <SCORE.norm>
-1.06468

>  <RMSD>
5.638

$$$$
ligand
 OpenBabel11021811473D
libRbt.so/2013.1/901 2013/11/27
 10  9  0  0  0  0  0  0  0  0999 V2000
   28.4587   15.2588   18.9891 N   0  0  0  0  0  0  0  0  0  0  0  0
   28.2036   15.0480   20.4416 C   0  0  2  0  0  0  0  0  0  0  0  0
   26.7124   15.0857   20.7764 C   0  0  0  0  0  0  0  0  0  0  0  0
   25.8740   15.5157   19.9776 O   0  0  0  0  0  0  0  0  0  0  0  0
   28.9842   16.0605   21.2838 C   0  0  0  0  0  0  0  0  0  0  0  0
   30.4935   16.0057   21.0877 C   0  0  0  0  0  0  0  0  0  0  0  0
   31.1923   17.1093   21.8813 C   0  0  0  0  0  0  0  0  0  0  0  0
   32.6997   17.1032   21.6531 C   0  0  0  0  0  0  0  0  0  0  0  0
   33.3964   18.2123   22.3685 N   0  0  0  0  0  0  0  0  0  0  0  0
   26.3038   14.6608   21.8550 O   0  0  0  0  0  0  0  0  0  0  0  0
  2  1  1  6  0  0  0
  2  3  1  0  0  0  0
  2  5  1  0  0  0  0
  3  4  1  0  0  0  0
  3 10  1  0  0  0  0
  5  6  1  0  0  0  0
  6  7  1  0  0  0  0
  7  8  1  0  0  0  0
  8  9  1  0  0  0  0
M  END
>  <CHROM.1>
-13.89133678,-59.21016373,175.86291942,-177.76739587,177.33397847,29.18684262
16.00012969,21.03613533,-2.87011164,0.34310808,1.40532660

>  <Name>
ligand

>  <RI>
0

>  <Rbt.Current_Directory>
/home/itssahil/PROJECTS/Mol_Feturizer/New_Systems/rnas/3DJ2

>  <Rbt.Executable>
rbdock ($Id: //depot/dev/client3/rdock/2013.1/src/exe/rbdock.cxx#4 $)

>  <Rbt.Library>
libRbt.so (2013.1, Build901 2013/11/27)

>  <Rbt.Parameter_File>
/export/apps/rDock/src/rDock_2013.1_src/data/scripts/dock_solv.prm

>  <Rbt.Receptor>
prm/pocket_docking_7.prm

>  <SCORE>
-10.3417

>  <SCORE.INTER>
-8.75776

>  <SCORE.INTER.CONST>
1

>  <SCORE.INTER.POLAR>
0

>  <SCORE.INTER.ROT>
5

>  <SCORE.INTER.SOLV>
13.1722

>  <SCORE.INTER.VDW>
-17.1626

>  <SCORE.INTER.norm>
-0.875776

>  <SCORE.INTRA>
-1.58393

>  <SCORE.INTRA.DIHEDRAL>
-2.60265

>  <SCORE.INTRA.DIHEDRAL.0>
4.28128

>  <SCORE.INTRA.POLAR>
0

>  <SCORE.INTRA.POLAR.0>
0

>  <SCORE.INTRA.REPUL>
0

>  <SCORE.INTRA.REPUL.0>
0

>  <SCORE.INTRA.SOLV>
-0.408904

>  <SCORE.INTRA.SOLV.lig_0>
-32.3374

>  <SCORE.INTRA.VDW>
-0.0781555

>  <SCORE.INTRA.VDW.0>
-0.659551

>  <SCORE.INTRA.norm>
-0.158393

>  <SCORE.RESTR>
0

>  <SCORE.RESTR.CAVITY>
0

>  <SCORE.RESTR.norm>
0

>  <SCORE.SYSTEM>
0

>  <SCORE.SYSTEM.CONST>
0

>  <SCORE.SYSTEM.DIHEDRAL>
0

>  <SCORE.SYSTEM.SOLV>
0

>  <SCORE.SYSTEM.norm>
0

>  <SCORE.heavy>
10

>  <SCORE.norm>
-1.03417

>  <RMSD>
5.643

$$$$
ligand
 OpenBabel11021811473D
libRbt.so/2013.1/901 2013/11/27
 10  9  0  0  0  0  0  0  0  0999 V2000
   25.8470   15.1118   20.5494 N   0  0  0  0  0  0  0  0  0  0  0  0
   27.0963   15.7095   20.0005 C   0  0  2  0  0  0  0  0  0  0  0  0
   27.5594   15.0064   18.7244 C   0  0  0  0  0  0  0  0  0  0  0  0
   27.2939   13.8215   18.4981 O   0  0  0  0  0  0  0  0  0  0  0  0
   28.2039   15.7214   21.0573 C   0  0  0  0  0  0  0  0  0  0  0  0
   29.4982   16.3805   20.5993 C   0  0  0  0  0  0  0  0  0  0  0  0
   30.5581   16.3360   21.6997 C   0  0  0  0  0  0  0  0  0  0  0  0
   31.8585   16.9996   21.2604 C   0  0  0  0  0  0  0  0  0  0  0  0
   32.8732   17.0608   22.3532 N   0  0  0  0  0  0  0  0  0  0  0  0
   28.1959   15.6193   17.8699 O   0  0  0  0  0  0  0  0  0  0  0  0
  2  1  1  1  0  0  0
  2  3  1  0  0  0  0
  2  5  1  0  0  0  0
  3  4  1  0  0  0  0
  3 10  1  0  0  0  0
  5  6  1  0  0  0  0
  6  7  1  0  0  0  0
  7  8  1  0  0  0  0
  8  9  1  0  0  0  0
M  END
>  <CHROM.1>
-27.51372083,-177.12273567,-179.22305980,-179.65952874,175.62904163,28.89804798
15.75855057,20.22663126,2.58548792,-0.25385420,-1.82482149

>  <Name>
ligand

>  <RI>
0

>  <Rbt.Current_Directory>
/home/itssahil/PROJECTS/Mol_Feturizer/New_Systems/rnas/3DJ2

>  <Rbt.Executable>
rbdock ($Id: //depot/dev/client3/rdock/2013.1/src/exe/rbdock.cxx#4 $)

>  <Rbt.Library>
libRbt.so (2013.1, Build901 2013/11/27)

>  <Rbt.Parameter_File>
/export/apps/rDock/src/rDock_2013.1_src/data/scripts/dock_solv.prm

>  <Rbt.Receptor>
prm/pocket_docking_5.prm

>  <SCORE>
-9.46858

>  <SCORE.INTER>
-7.43942

>  <SCORE.INTER.CONST>
1

>  <SCORE.INTER.POLAR>
0

>  <SCORE.INTER.ROT>
5

>  <SCORE.INTER.SOLV>
18.5941

>  <SCORE.INTER.VDW>
-18.091

>  <SCORE.INTER.norm>
-0.743942

>  <SCORE.INTRA>
-2.02916

>  <SCORE.INTRA.DIHEDRAL>
-2.60891

>  <SCORE.INTRA.DIHEDRAL.0>
4.28128

>  <SCORE.INTRA.POLAR>
0

>  <SCORE.INTRA.POLAR.0>
0

>  <SCORE.INTRA.REPUL>
0

>  <SCORE.INTRA.REPUL.0>
0

>  <SCORE.INTRA.SOLV>
-1.33271

>  <SCORE.INTRA.SOLV.lig_0>
-32.3374

>  <SCORE.INTRA.VDW>
-0.0583516

>  <SCORE.INTRA.VDW.0>
-0.659551

>  <SCORE.INTRA.norm>
-0.202916

>  <SCORE.RESTR>
0

>  <SCORE.RESTR.CAVITY>
0

>  <SCORE.RESTR.norm>
0

>  <SCORE.SYSTEM>
0

>  <SCORE.SYSTEM.CONST>
0

>  <SCORE.SYSTEM.DIHEDRAL>
0

>  <SCORE.SYSTEM.SOLV>
0

>  <SCORE.SYSTEM.norm>
0

>  <SCORE.heavy>
10

>  <SCORE.norm>
-0.946858

>  <RMSD>
5.647

$$$$
ligand
 OpenBabel11021811473D
libRbt.so/2013.1/901 2013/11/27
 10  9  0  0  0  0  0  0  0  0999 V2000
   28.6038   14.9953   19.0420 N   0  0  0  0  0  0  0  0  0  0  0  0
   28.1993   14.9401   20.4747 C   0  0  2  0  0  0  0  0  0  0  0  0
   26.6847   15.0506   20.6507 C   0  0  0  0  0  0  0  0  0  0  0  0
   26.1077   14.5985   21.6449 O   0  0  0  0  0  0  0  0  0  0  0  0
   28.9292   16.0122   21.2880 C   0  0  0  0  0  0  0  0  0  0  0  0
   30.4455   15.8703   21.2915 C   0  0  0  0  0  0  0  0  0  0  0  0
   31.1054   17.0305   22.0361 C   0  0  0  0  0  0  0  0  0  0  0  0
   32.6265   16.9334   22.0017 C   0  0  0  0  0  0  0  0  0  0  0  0
   33.2941   18.0928   22.6630 N   0  0  0  0  0  0  0  0  0  0  0  0
   25.9980   15.6213   19.8058 O   0  0  0  0  0  0  0  0  0  0  0  0
  2  1  1  6  0  0  0
  2  3  1  0  0  0  0
  2  5  1  0  0  0  0
  3  4  1  0  0  0  0
  3 10  1  0  0  0  0
  5  6  1  0  0  0  0
  6  7  1  0  0  0  0
  7  8  1  0  0  0  0
  8  9  1  0  0  0  0
M  END
>  <CHROM.1>
155.46528762,-61.18660804,175.85765283,-177.74187727,177.07822876,29.15401544
15.91110178,21.09038470,-2.77743859,0.28771227,1.29878561

>  <Name>
ligand

>  <RI>
0

>  <Rbt.Current_Directory>
/home/itssahil/PROJECTS/Mol_Feturizer/New_Systems/rnas/3DJ2

>  <Rbt.Executable>
rbdock ($Id: //depot/dev/client3/rdock/2013.1/src/exe/rbdock.cxx#4 $)

>  <Rbt.Library>
libRbt.so (2013.1, Build901 2013/11/27)

>  <Rbt.Parameter_File>
/export/apps/rDock/src/rDock_2013.1_src/data/scripts/dock_solv.prm

>  <Rbt.Receptor>
prm/pocket_docking_5.prm

>  <SCORE>
-10.5751

>  <SCORE.INTER>
-8.87341

>  <SCORE.INTER.CONST>
1

>  <SCORE.INTER.POLAR>
0

>  <SCORE.INTER.ROT>
5

>  <SCORE.INTER.SOLV>
13.4654

>  <SCORE.INTER.VDW>
-17.3374

>  <SCORE.INTER.norm>
-0.887341

>  <SCORE.INTRA>
-1.70166

>  <SCORE.INTRA.DIHEDRAL>
-2.67091

>  <SCORE.INTRA.DIHEDRAL.0>
4.28128

>  <SCORE.INTRA.POLAR>
0

>  <SCORE.INTRA.POLAR.0>
0

>  <SCORE.INTRA.REPUL>
0

>  <SCORE.INTRA.REPUL.0>
0

>  <SCORE.INTRA.SOLV>
-0.43309

>  <SCORE.INTRA.SOLV.lig_0>
-32.3374

>  <SCORE.INTRA.VDW>
-0.149658

>  <SCORE.INTRA.VDW.0>
-0.659551

>  <SCORE.INTRA.norm>
-0.170166

>  <SCORE.RESTR>
0

>  <SCORE.RESTR.CAVITY>
0

>  <SCORE.RESTR.norm>
0

>  <SCORE.SYSTEM>
0

>  <SCORE.SYSTEM.CONST>
0

>  <SCORE.SYSTEM.DIHEDRAL>
0

>  <SCORE.SYSTEM.SOLV>
0

>  <SCORE.SYSTEM.norm>
0

>  <SCORE.heavy>
10

>  <SCORE.norm>
-1.05751

>  <RMSD>
5.650

$$$$
ligand
 OpenBabel11021811473D
libRbt.so/2013.1/901 2013/11/27
 10  9  0  0  0  0  0  0  0  0999 V2000
   28.6297   14.7241   19.1212 N   0  0  0  0  0  0  0  0  0  0  0  0
   28.1919   14.8466   20.5399 C   0  0  2  0  0  0  0  0  0  0  0  0
   26.6775   15.0157   20.6633 C   0  0  0  0  0  0  0  0  0  0  0  0
   26.0478   14.5773   21.6314 O   0  0  0  0  0  0  0  0  0  0  0  0
   28.9338   15.9870   21.2419 C   0  0  0  0  0  0  0  0  0  0  0  0
   30.4463   15.8146   21.2873 C   0  0  0  0  0  0  0  0  0  0  0  0
   31.1201   17.0304   21.9230 C   0  0  0  0  0  0  0  0  0  0  0  0
   32.6369   16.8808   21.9628 C   0  0  0  0  0  0  0  0  0  0  0  0
   33.3224   18.0915   22.5029 N   0  0  0  0  0  0  0  0  0  0  0  0
   26.0447   15.6216   19.8011 O   0  0  0  0  0  0  0  0  0  0  0  0
  2  1  1  6  0  0  0
  2  3  1  0  0  0  0
  2  5  1  0  0  0  0
  3  4  1  0  0  0  0
  3 10  1  0  0  0  0
  5  6  1  0  0  0  0
  6  7  1  0  0  0  0
  7  8  1  0  0  0  0
  8  9  1  0  0  0  0
M  END
>  <CHROM.1>
148.12432491,-60.57247291,176.43390918,-179.38544093,176.47907012,29.15964733
15.85683706,21.06728698,-2.76244712,0.25354683,1.17710510

>  <Name>
ligand

>  <RI>
0

>  <Rbt.Current_Directory>
/home/itssahil/PROJECTS/Mol_Feturizer/New_Systems/rnas/3DJ2

>  <Rbt.Executable>
rbdock ($Id: //depot/dev/client3/rdock/2013.1/src/exe/rbdock.cxx#4 $)

>  <Rbt.Library>
libRbt.so (2013.1, Build901 2013/11/27)

>  <Rbt.Parameter_File>
/export/apps/rDock/src/rDock_2013.1_src/data/scripts/dock_solv.prm

>  <Rbt.Receptor>
prm/pocket_docking_6.prm

>  <SCORE>
-10.6457

>  <SCORE.INTER>
-8.90748

>  <SCORE.INTER.CONST>
1

>  <SCORE.INTER.POLAR>
0

>  <SCORE.INTER.ROT>
5

>  <SCORE.INTER.SOLV>
13.6876

>  <SCORE.INTER.VDW>
-17.4342

>  <SCORE.INTER.norm>
-0.890748

>  <SCORE.INTRA>
-1.73869

>  <SCORE.INTRA.DIHEDRAL>
-2.70084

>  <SCORE.INTRA.DIHEDRAL.0>
4.28128

>  <SCORE.INTRA.POLAR>
0

>  <SCORE.INTRA.POLAR.0>
0

>  <SCORE.INTRA.REPUL>
0

>  <SCORE.INTRA.REPUL.0>
0

>  <SCORE.INTRA.SOLV>
-0.432305

>  <SCORE.INTRA.SOLV.lig_0>
-32.3374

>  <SCORE.INTRA.VDW>
-0.172118

>  <SCORE.INTRA.VDW.0>
-0.659551

>  <SCORE.INTRA.norm>
-0.173869

>  <SCORE.RESTR>
0.000443601

>  <SCORE.RESTR.CAVITY>
0.000443601

>  <SCORE.RESTR.norm>
4.43601e-05

>  <SCORE.SYSTEM>
0

>  <SCORE.SYSTEM.CONST>
0

>  <SCORE.SYSTEM.DIHEDRAL>
0

>  <SCORE.SYSTEM.SOLV>
0

>  <SCORE.SYSTEM.norm>
0

>  <SCORE.heavy>
10

>  <SCORE.norm>
-1.06457

>  <RMSD>
5.650

$$$$
ligand
 OpenBabel11021811473D
libRbt.so/2013.1/901 2013/11/27
 10  9  0  0  0  0  0  0  0  0999 V2000
   28.6285   14.7221   19.1225 N   0  0  0  0  0  0  0  0  0  0  0  0
   28.1890   14.8492   20.5402 C   0  0  2  0  0  0  0  0  0  0  0  0
   26.6745   15.0189   20.6612 C   0  0  0  0  0  0  0  0  0  0  0  0
   26.0475   14.6095   21.6436 O   0  0  0  0  0  0  0  0  0  0  0  0
   28.9302   15.9917   21.2395 C   0  0  0  0  0  0  0  0  0  0  0  0
   30.4401   15.8063   21.3113 C   0  0  0  0  0  0  0  0  0  0  0  0
   31.1170   17.0331   21.9220 C   0  0  0  0  0  0  0  0  0  0  0  0
   32.6334   16.8805   21.9648 C   0  0  0  0  0  0  0  0  0  0  0  0
   33.3171   18.0714   22.5492 N   0  0  0  0  0  0  0  0  0  0  0  0
   26.0388   15.5964   19.7818 O   0  0  0  0  0  0  0  0  0  0  0  0
  2  1  1  6  0  0  0
  2  3  1  0  0  0  0
  2  5  1  0  0  0  0
  3  4  1  0  0  0  0
  3 10  1  0  0  0  0
  5  6  1  0  0  0  0
  6  7  1  0  0  0  0
  7  8  1  0  0  0  0
  8  9  1  0  0  0  0
M  END
>  <CHROM.1>
149.73910814,-61.69871455,175.53558145,-178.37107357,179.60592355,29.15614465
15.85585585,21.07329597,-2.75917870,0.25042110,1.17836749

>  <Name>
ligand

>  <RI>
0

>  <Rbt.Current_Directory>
/home/itssahil/PROJECTS/Mol_Feturizer/New_Systems/rnas/3DJ2

>  <Rbt.Executable>
rbdock ($Id: //depot/dev/client3/rdock/2013.1/src/exe/rbdock.cxx#4 $)

>  <Rbt.Library>
libRbt.so (2013.1, Build901 2013/11/27)

>  <Rbt.Parameter_File>
/export/apps/rDock/src/rDock_2013.1_src/data/scripts/dock_solv.prm

>  <Rbt.Receptor>
prm/pocket_docking_6.prm

>  <SCORE>
-10.6364

>  <SCORE.INTER>
-8.8917

>  <SCORE.INTER.CONST>
1

>  <SCORE.INTER.POLAR>
0

>  <SCORE.INTER.ROT>
5

>  <SCORE.INTER.SOLV>
13.7049

>  <SCORE.INTER.VDW>
-17.4294

>  <SCORE.INTER.norm>
-0.88917

>  <SCORE.INTRA>
-1.74621

>  <SCORE.INTRA.DIHEDRAL>
-2.69502

>  <SCORE.INTRA.DIHEDRAL.0>
4.28128

>  <SCORE.INTRA.POLAR>
0

>  <SCORE.INTRA.POLAR.0>
0

>  <SCORE.INTRA.REPUL>
0

>  <SCORE.INTRA.REPUL.0>
0

>  <SCORE.INTRA.SOLV>
-0.441167

>  <SCORE.INTRA.SOLV.lig_0>
-32.3374

>  <SCORE.INTRA.VDW>
-0.178115

>  <SCORE.INTRA.VDW.0>
-0.659551

>  <SCORE.INTRA.norm>
-0.174621

>  <SCORE.RESTR>
0.00149839

>  <SCORE.RESTR.CAVITY>
0.00149839

>  <SCORE.RESTR.norm>
0.000149839

>  <SCORE.SYSTEM>
0

>  <SCORE.SYSTEM.CONST>
0

>  <SCORE.SYSTEM.DIHEDRAL>
0

>  <SCORE.SYSTEM.SOLV>
0

>  <SCORE.SYSTEM.norm>
0

>  <SCORE.heavy>
10

>  <SCORE.norm>
-1.06364

>  <RMSD>
5.651

$$$$
ligand
 OpenBabel11021811473D
libRbt.so/2013.1/901 2013/11/27
 10  9  0  0  0  0  0  0  0  0999 V2000
   25.8357   15.0600   20.5717 N   0  0  0  0  0  0  0  0  0  0  0  0
   27.0877   15.6587   20.0300 C   0  0  2  0  0  0  0  0  0  0  0  0
   27.5377   14.9807   18.7358 C   0  0  0  0  0  0  0  0  0  0  0  0
   27.2652   13.8020   18.4866 O   0  0  0  0  0  0  0  0  0  0  0  0
   28.2007   15.6362   21.0809 C   0  0  0  0  0  0  0  0  0  0  0  0
   29.4825   16.3363   20.6494 C   0  0  0  0  0  0  0  0  0  0  0  0
   30.5480   16.2570   21.7423 C   0  0  0  0  0  0  0  0  0  0  0  0
   31.8439   16.9405   21.3205 C   0  0  0  0  0  0  0  0  0  0  0  0
   32.8830   16.9191   22.3915 N   0  0  0  0  0  0  0  0  0  0  0  0
   28.1704   15.6088   17.8894 O   0  0  0  0  0  0  0  0  0  0  0  0
  2  1  1  1  0  0  0
  2  3  1  0  0  0  0
  2  5  1  0  0  0  0
  3  4  1  0  0  0  0
  3 10  1  0  0  0  0
  5  6  1  0  0  0  0
  6  7  1  0  0  0  0
  7  8  1  0  0  0  0
  8  9  1  0  0  0  0
M  END
>  <CHROM.1>
-27.84704513,-175.10084448,-179.33143238,179.38414834,177.90989635,28.88478298
15.70247520,20.25475268,2.58726481,-0.25212146,-1.80272359

>  <Name>
ligand

>  <RI>
0

>  <Rbt.Current_Directory>
/home/itssahil/PROJECTS/Mol_Feturizer/New_Systems/rnas/3DJ2

>  <Rbt.Executable>
rbdock ($Id: //depot/dev/client3/rdock/2013.1/src/exe/rbdock.cxx#4 $)

>  <Rbt.Library>
libRbt.so (2013.1, Build901 2013/11/27)

>  <Rbt.Parameter_File>
/export/apps/rDock/src/rDock_2013.1_src/data/scripts/dock_solv.prm

>  <Rbt.Receptor>
prm/pocket_docking_5.prm

>  <SCORE>
-9.45149

>  <SCORE.INTER>
-7.37266

>  <SCORE.INTER.CONST>
1

>  <SCORE.INTER.POLAR>
0

>  <SCORE.INTER.ROT>
5

>  <SCORE.INTER.SOLV>
18.9683

>  <SCORE.INTER.VDW>
-18.1712

>  <SCORE.INTER.norm>
-0.737266

>  <SCORE.INTRA>
-2.07883

>  <SCORE.INTRA.DIHEDRAL>
-2.608

>  <SCORE.INTRA.DIHEDRAL.0>
4.28128

>  <SCORE.INTRA.POLAR>
0

>  <SCORE.INTRA.POLAR.0>
0

>  <SCORE.INTRA.REPUL>
0

>  <SCORE.INTRA.REPUL.0>
0

>  <SCORE.INTRA.SOLV>
-1.3326

>  <SCORE.INTRA.SOLV.lig_0>
-32.3374

>  <SCORE.INTRA.VDW>
-0.108529

>  <SCORE.INTRA.VDW.0>
-0.659551

>  <SCORE.INTRA.norm>
-0.207883

>  <SCORE.RESTR>
0

>  <SCORE.RESTR.CAVITY>
0

>  <SCORE.RESTR.norm>
0

>  <SCORE.SYSTEM>
0

>  <SCORE.SYSTEM.CONST>
0

>  <SCORE.SYSTEM.DIHEDRAL>
0

>  <SCORE.SYSTEM.SOLV>
0

>  <SCORE.SYSTEM.norm>
0

>  <SCORE.heavy>
10

>  <SCORE.norm>
-0.945149

>  <RMSD>
5.652

$$$$
ligand
 OpenBabel11021811473D
libRbt.so/2013.1/901 2013/11/27
 10  9  0  0  0  0  0  0  0  0999 V2000
   28.4898   15.2509   18.9965 N   0  0  0  0  0  0  0  0  0  0  0  0
   28.1820   15.0594   20.4414 C   0  0  2  0  0  0  0  0  0  0  0  0
   26.6802   15.1123   20.7229 C   0  0  0  0  0  0  0  0  0  0  0  0
   25.8776   15.5706   19.9034 O   0  0  0  0  0  0  0  0  0  0  0  0
   28.9404   16.0759   21.2989 C   0  0  0  0  0  0  0  0  0  0  0  0
   30.4562   15.9844   21.1832 C   0  0  0  0  0  0  0  0  0  0  0  0
   31.1383   17.0741   22.0098 C   0  0  0  0  0  0  0  0  0  0  0  0
   32.6554   17.0284   21.8654 C   0  0  0  0  0  0  0  0  0  0  0  0
   33.3386   18.1349   22.5975 N   0  0  0  0  0  0  0  0  0  0  0  0
   26.2268   14.6718   21.7770 O   0  0  0  0  0  0  0  0  0  0  0  0
  2  1  1  6  0  0  0
  2  3  1  0  0  0  0
  2  5  1  0  0  0  0
  3  4  1  0  0  0  0
  3 10  1  0  0  0  0
  5  6  1  0  0  0  0
  6  7  1  0  0  0  0
  7  8  1  0  0  0  0
  8  9  1  0  0  0  0
M  END
>  <CHROM.1>
-15.77439222,-60.65815654,177.07950861,-177.94612325,176.50310925,29.15330357
15.99091507,21.08264719,-2.82896809,0.32140540,1.39424051

>  <Name>
ligand

>  <RI>
0

>  <Rbt.Current_Directory>
/home/itssahil/PROJECTS/Mol_Feturizer/New_Systems/rnas/3DJ2

>  <Rbt.Executable>
rbdock ($Id: //depot/dev/client3/rdock/2013.1/src/exe/rbdock.cxx#4 $)

>  <Rbt.Library>
libRbt.so (2013.1, Build901 2013/11/27)

>  <Rbt.Parameter_File>
/export/apps/rDock/src/rDock_2013.1_src/data/scripts/dock_solv.prm

>  <Rbt.Receptor>
prm/pocket_docking_4.prm

>  <SCORE>
-10.5004

>  <SCORE.INTER>
-8.86985

>  <SCORE.INTER.CONST>
1

>  <SCORE.INTER.POLAR>
0

>  <SCORE.INTER.ROT>
5

>  <SCORE.INTER.SOLV>
13.2505

>  <SCORE.INTER.VDW>
-17.2634

>  <SCORE.INTER.norm>
-0.886985

>  <SCORE.INTRA>
-1.6306

>  <SCORE.INTRA.DIHEDRAL>
-2.61615

>  <SCORE.INTRA.DIHEDRAL.0>
4.28128

>  <SCORE.INTRA.POLAR>
0

>  <SCORE.INTRA.POLAR.0>
0

>  <SCORE.INTRA.REPUL>
0

>  <SCORE.INTRA.REPUL.0>
0

>  <SCORE.INTRA.SOLV>
-0.433232

>  <SCORE.INTRA.SOLV.lig_0>
-32.3374

>  <SCORE.INTRA.VDW>
-0.105909

>  <SCORE.INTRA.VDW.0>
-0.659551

>  <SCORE.INTRA.norm>
-0.16306

>  <SCORE.RESTR>
0

>  <SCORE.RESTR.CAVITY>
0

>  <SCORE.RESTR.norm>
0

>  <SCORE.SYSTEM>
0

>  <SCORE.SYSTEM.CONST>
0

>  <SCORE.SYSTEM.DIHEDRAL>
0

>  <SCORE.SYSTEM.SOLV>
0

>  <SCORE.SYSTEM.norm>
0

>  <SCORE.heavy>
10

>  <SCORE.norm>
-1.05004

>  <RMSD>
5.653

$$$$
ligand
 OpenBabel11021811473D
libRbt.so/2013.1/901 2013/11/27
 10  9  0  0  0  0  0  0  0  0999 V2000
   28.6255   14.7245   19.1259 N   0  0  0  0  0  0  0  0  0  0  0  0
   28.1877   14.8522   20.5441 C   0  0  2  0  0  0  0  0  0  0  0  0
   26.6736   15.0245   20.6667 C   0  0  0  0  0  0  0  0  0  0  0  0
   26.0070   15.5869   19.7919 O   0  0  0  0  0  0  0  0  0  0  0  0
   28.9315   15.9934   21.2427 C   0  0  0  0  0  0  0  0  0  0  0  0
   30.4412   15.8057   21.3127 C   0  0  0  0  0  0  0  0  0  0  0  0
   31.1193   17.0247   21.9375 C   0  0  0  0  0  0  0  0  0  0  0  0
   32.6356   16.8709   21.9769 C   0  0  0  0  0  0  0  0  0  0  0  0
   33.3224   18.0662   22.5486 N   0  0  0  0  0  0  0  0  0  0  0  0
   26.0716   14.5799   21.6419 O   0  0  0  0  0  0  0  0  0  0  0  0
  2  1  1  6  0  0  0
  2  3  1  0  0  0  0
  2  5  1  0  0  0  0
  3  4  1  0  0  0  0
  3 10  1  0  0  0  0
  5  6  1  0  0  0  0
  6  7  1  0  0  0  0
  7  8  1  0  0  0  0
  8  9  1  0  0  0  0
M  END
>  <CHROM.1>
-30.67556409,-61.68769761,176.18428366,-178.28864410,178.40058996,29.15598883
15.85020084,21.07855132,-2.76039783,0.25241435,1.18486511

>  <Name>
ligand

>  <RI>
0

>  <Rbt.Current_Directory>
/home/itssahil/PROJECTS/Mol_Feturizer/New_Systems/rnas/3DJ2

>  <Rbt.Executable>
rbdock ($Id: //depot/dev/client3/rdock/2013.1/src/exe/rbdock.cxx#4 $)

>  <Rbt.Library>
libRbt.so (2013.1, Build901 2013/11/27)

>  <Rbt.Parameter_File>
/export/apps/rDock/src/rDock_2013.1_src/data/scripts/dock_solv.prm

>  <Rbt.Receptor>
prm/pocket_docking_5.prm

>  <SCORE>
-10.5967

>  <SCORE.INTER>
-8.87766

>  <SCORE.INTER.CONST>
1

>  <SCORE.INTER.POLAR>
0

>  <SCORE.INTER.ROT>
5

>  <SCORE.INTER.SOLV>
13.7101

>  <SCORE.INTER.VDW>
-17.4218

>  <SCORE.INTER.norm>
-0.887766

>  <SCORE.INTRA>
-1.72111

>  <SCORE.INTRA.DIHEDRAL>
-2.6105

>  <SCORE.INTRA.DIHEDRAL.0>
4.28128

>  <SCORE.INTRA.POLAR>
0

>  <SCORE.INTRA.POLAR.0>
0

>  <SCORE.INTRA.REPUL>
0

>  <SCORE.INTRA.REPUL.0>
0

>  <SCORE.INTRA.SOLV>
-0.445131

>  <SCORE.INTRA.SOLV.lig_0>
-32.3374

>  <SCORE.INTRA.VDW>
-0.193292

>  <SCORE.INTRA.VDW.0>
-0.659551

>  <SCORE.INTRA.norm>
-0.172111

>  <SCORE.RESTR>
0.00210798

>  <SCORE.RESTR.CAVITY>
0.00210798

>  <SCORE.RESTR.norm>
0.000210798

>  <SCORE.SYSTEM>
0

>  <SCORE.SYSTEM.CONST>
0

>  <SCORE.SYSTEM.DIHEDRAL>
0

>  <SCORE.SYSTEM.SOLV>
0

>  <SCORE.SYSTEM.norm>
0

>  <SCORE.heavy>
10

>  <SCORE.norm>
-1.05967

>  <RMSD>
5.655

$$$$
ligand
 OpenBabel11021811473D
libRbt.so/2013.1/901 2013/11/27
 10  9  0  0  0  0  0  0  0  0999 V2000
   28.4744   15.2938   18.9863 N   0  0  0  0  0  0  0  0  0  0  0  0
   28.1762   15.0692   20.4285 C   0  0  2  0  0  0  0  0  0  0  0  0
   26.6760   15.1098   20.7200 C   0  0  0  0  0  0  0  0  0  0  0  0
   25.8624   15.5463   19.8993 O   0  0  0  0  0  0  0  0  0  0  0  0
   28.9358   16.0696   21.3036 C   0  0  0  0  0  0  0  0  0  0  0  0
   30.4514   15.9813   21.1829 C   0  0  0  0  0  0  0  0  0  0  0  0
   31.1347   17.0546   22.0300 C   0  0  0  0  0  0  0  0  0  0  0  0
   32.6500   17.0273   21.8641 C   0  0  0  0  0  0  0  0  0  0  0  0
   33.3317   18.1293   22.6044 N   0  0  0  0  0  0  0  0  0  0  0  0
   26.2350   14.6808   21.7842 O   0  0  0  0  0  0  0  0  0  0  0  0
  2  1  1  6  0  0  0
  2  3  1  0  0  0  0
  2  5  1  0  0  0  0
  3  4  1  0  0  0  0
  3 10  1  0  0  0  0
  5  6  1  0  0  0  0
  6  7  1  0  0  0  0
  7  8  1  0  0  0  0
  8  9  1  0  0  0  0
M  END
>  <CHROM.1>
-13.57840548,-60.99762028,177.14282865,-177.02466868,175.83958716,29.14757575
15.99061607,21.08353041,-2.83276489,0.32500299,1.41153965

>  <Name>
ligand

>  <RI>
0

>  <Rbt.Current_Directory>
/home/itssahil/PROJECTS/Mol_Feturizer/New_Systems/rnas/3DJ2

>  <Rbt.Executable>
rbdock ($Id: //depot/dev/client3/rdock/2013.1/src/exe/rbdock.cxx#4 $)

>  <Rbt.Library>
libRbt.so (2013.1, Build901 2013/11/27)

>  <Rbt.Parameter_File>
/export/apps/rDock/src/rDock_2013.1_src/data/scripts/dock_solv.prm

>  <Rbt.Receptor>
prm/pocket_docking_8.prm

>  <SCORE>
-10.4536

>  <SCORE.INTER>
-8.85154

>  <SCORE.INTER.CONST>
1

>  <SCORE.INTER.POLAR>
0

>  <SCORE.INTER.ROT>
5

>  <SCORE.INTER.SOLV>
13.2488

>  <SCORE.INTER.VDW>
-17.2506

>  <SCORE.INTER.norm>
-0.885154

>  <SCORE.INTRA>
-1.60207

>  <SCORE.INTRA.DIHEDRAL>
-2.57982

>  <SCORE.INTRA.DIHEDRAL.0>
4.28128

>  <SCORE.INTRA.POLAR>
0

>  <SCORE.INTRA.POLAR.0>
0

>  <SCORE.INTRA.REPUL>
0

>  <SCORE.INTRA.REPUL.0>
0

>  <SCORE.INTRA.SOLV>
-0.437186

>  <SCORE.INTRA.SOLV.lig_0>
-32.3374

>  <SCORE.INTRA.VDW>
-0.093569

>  <SCORE.INTRA.VDW.0>
-0.659551

>  <SCORE.INTRA.norm>
-0.160207

>  <SCORE.RESTR>
0

>  <SCORE.RESTR.CAVITY>
0

>  <SCORE.RESTR.norm>
0

>  <SCORE.SYSTEM>
0

>  <SCORE.SYSTEM.CONST>
0

>  <SCORE.SYSTEM.DIHEDRAL>
0

>  <SCORE.SYSTEM.SOLV>
0

>  <SCORE.SYSTEM.norm>
0

>  <SCORE.heavy>
10

>  <SCORE.norm>
-1.04536

>  <RMSD>
5.655

$$$$
ligand
 OpenBabel11021811473D
libRbt.so/2013.1/901 2013/11/27
 10  9  0  0  0  0  0  0  0  0999 V2000
   28.6297   14.7625   19.1371 N   0  0  0  0  0  0  0  0  0  0  0  0
   28.1878   14.8838   20.5545 C   0  0  2  0  0  0  0  0  0  0  0  0
   26.6722   15.0450   20.6741 C   0  0  0  0  0  0  0  0  0  0  0  0
   26.0071   15.6286   19.8121 O   0  0  0  0  0  0  0  0  0  0  0  0
   28.9218   16.0286   21.2575 C   0  0  0  0  0  0  0  0  0  0  0  0
   30.4330   15.8529   21.3278 C   0  0  0  0  0  0  0  0  0  0  0  0
   31.0998   17.0709   21.9665 C   0  0  0  0  0  0  0  0  0  0  0  0
   32.6181   16.9354   21.9945 C   0  0  0  0  0  0  0  0  0  0  0  0
   33.2939   18.1328   22.5749 N   0  0  0  0  0  0  0  0  0  0  0  0
   26.0676   14.5699   21.6331 O   0  0  0  0  0  0  0  0  0  0  0  0
  2  1  1  6  0  0  0
  2  3  1  0  0  0  0
  2  5  1  0  0  0  0
  3  4  1  0  0  0  0
  3 10  1  0  0  0  0
  5  6  1  0  0  0  0
  6  7  1  0  0  0  0
  7  8  1  0  0  0  0
  8  9  1  0  0  0  0
M  END
>  <CHROM.1>
-32.17928907,-61.56232923,176.59998371,-177.74157695,178.17987822,29.14756663
15.88801954,21.09275720,-2.75542622,0.25807742,1.18345057

>  <Name>
ligand

>  <RI>
0

>  <Rbt.Current_Directory>
/home/itssahil/PROJECTS/Mol_Feturizer/New_Systems/rnas/3DJ2

>  <Rbt.Executable>
rbdock ($Id: //depot/dev/client3/rdock/2013.1/src/exe/rbdock.cxx#4 $)

>  <Rbt.Library>
libRbt.so (2013.1, Build901 2013/11/27)

>  <Rbt.Parameter_File>
/export/apps/rDock/src/rDock_2013.1_src/data/scripts/dock_solv.prm

>  <Rbt.Receptor>
prm/pocket_docking_3.prm

>  <SCORE>
-10.6403

>  <SCORE.INTER>
-8.91361

>  <SCORE.INTER.CONST>
1

>  <SCORE.INTER.POLAR>
0

>  <SCORE.INTER.ROT>
5

>  <SCORE.INTER.SOLV>
13.6076

>  <SCORE.INTER.VDW>
-17.4116

>  <SCORE.INTER.norm>
-0.891361

>  <SCORE.INTRA>
-1.7267

>  <SCORE.INTRA.DIHEDRAL>
-2.61356

>  <SCORE.INTRA.DIHEDRAL.0>
4.28128

>  <SCORE.INTRA.POLAR>
0

>  <SCORE.INTRA.POLAR.0>
0

>  <SCORE.INTRA.REPUL>
0

>  <SCORE.INTRA.REPUL.0>
0

>  <SCORE.INTRA.SOLV>
-0.446272

>  <SCORE.INTRA.SOLV.lig_0>
-32.3374

>  <SCORE.INTRA.VDW>
-0.196785

>  <SCORE.INTRA.VDW.0>
-0.659551

>  <SCORE.INTRA.norm>
-0.17267

>  <SCORE.RESTR>
0

>  <SCORE.RESTR.CAVITY>
0

>  <SCORE.RESTR.norm>
0

>  <SCORE.SYSTEM>
0

>  <SCORE.SYSTEM.CONST>
0

>  <SCORE.SYSTEM.DIHEDRAL>
0

>  <SCORE.SYSTEM.SOLV>
0

>  <SCORE.SYSTEM.norm>
0

>  <SCORE.heavy>
10

>  <SCORE.norm>
-1.06403

>  <RMSD>
5.656

$$$$
ligand
 OpenBabel11021811473D
libRbt.so/2013.1/901 2013/11/27
 10  9  0  0  0  0  0  0  0  0999 V2000
   25.8405   15.0771   20.5616 N   0  0  0  0  0  0  0  0  0  0  0  0
   27.0892   15.6721   20.0084 C   0  0  2  0  0  0  0  0  0  0  0  0
   27.5288   14.9887   18.7134 C   0  0  0  0  0  0  0  0  0  0  0  0
   28.1838   15.5826   17.8508 O   0  0  0  0  0  0  0  0  0  0  0  0
   28.2100   15.6523   21.0511 C   0  0  0  0  0  0  0  0  0  0  0  0
   29.4877   16.3535   20.6092 C   0  0  0  0  0  0  0  0  0  0  0  0
   30.5544   16.2942   21.7023 C   0  0  0  0  0  0  0  0  0  0  0  0
   31.8475   16.9759   21.2690 C   0  0  0  0  0  0  0  0  0  0  0  0
   32.8687   17.0211   22.3564 N   0  0  0  0  0  0  0  0  0  0  0  0
   27.2573   13.8076   18.5076 O   0  0  0  0  0  0  0  0  0  0  0  0
  2  1  1  1  0  0  0
  2  3  1  0  0  0  0
  2  5  1  0  0  0  0
  3  4  1  0  0  0  0
  3 10  1  0  0  0  0
  5  6  1  0  0  0  0
  6  7  1  0  0  0  0
  7  8  1  0  0  0  0
  8  9  1  0  0  0  0
M  END
>  <CHROM.1>
152.37028596,-174.89598604,179.85249651,179.24225412,175.68354843,28.88630536
15.72441998,20.22834547,2.58914689,-0.26093208,-1.80947095

>  <Name>
ligand

>  <RI>
0

>  <Rbt.Current_Directory>
/home/itssahil/PROJECTS/Mol_Feturizer/New_Systems/rnas/3DJ2

>  <Rbt.Executable>
rbdock ($Id: //depot/dev/client3/rdock/2013.1/src/exe/rbdock.cxx#4 $)

>  <Rbt.Library>
libRbt.so (2013.1, Build901 2013/11/27)

>  <Rbt.Parameter_File>
/export/apps/rDock/src/rDock_2013.1_src/data/scripts/dock_solv.prm

>  <Rbt.Receptor>
prm/pocket_docking_4.prm

>  <SCORE>
-9.51317

>  <SCORE.INTER>
-7.42472

>  <SCORE.INTER.CONST>
1

>  <SCORE.INTER.POLAR>
0

>  <SCORE.INTER.ROT>
5

>  <SCORE.INTER.SOLV>
18.6974

>  <SCORE.INTER.VDW>
-18.1156

>  <SCORE.INTER.norm>
-0.742472

>  <SCORE.INTRA>
-2.08845

>  <SCORE.INTRA.DIHEDRAL>
-2.6451

>  <SCORE.INTRA.DIHEDRAL.0>
4.28128

>  <SCORE.INTRA.POLAR>
0

>  <SCORE.INTRA.POLAR.0>
0

>  <SCORE.INTRA.REPUL>
0

>  <SCORE.INTRA.REPUL.0>
0

>  <SCORE.INTRA.SOLV>
-1.3303

>  <SCORE.INTRA.SOLV.lig_0>
-32.3374

>  <SCORE.INTRA.VDW>
-0.10075

>  <SCORE.INTRA.VDW.0>
-0.659551

>  <SCORE.INTRA.norm>
-0.208845

>  <SCORE.RESTR>
0

>  <SCORE.RESTR.CAVITY>
0

>  <SCORE.RESTR.norm>
0

>  <SCORE.SYSTEM>
0

>  <SCORE.SYSTEM.CONST>
0

>  <SCORE.SYSTEM.DIHEDRAL>
0

>  <SCORE.SYSTEM.SOLV>
0

>  <SCORE.SYSTEM.norm>
0

>  <SCORE.heavy>
10

>  <SCORE.norm>
-0.951317

>  <RMSD>
5.656

$$$$
ligand
 OpenBabel11021811473D
libRbt.so/2013.1/901 2013/11/27
 10  9  0  0  0  0  0  0  0  0999 V2000
   25.8433   15.0625   20.5749 N   0  0  0  0  0  0  0  0  0  0  0  0
   27.0935   15.6566   20.0241 C   0  0  2  0  0  0  0  0  0  0  0  0
   27.5380   14.9694   18.7328 C   0  0  0  0  0  0  0  0  0  0  0  0
   27.2555   13.7920   18.4885 O   0  0  0  0  0  0  0  0  0  0  0  0
   28.2106   15.6407   21.0707 C   0  0  0  0  0  0  0  0  0  0  0  0
   29.4862   16.3494   20.6347 C   0  0  0  0  0  0  0  0  0  0  0  0
   30.5533   16.2841   21.7271 C   0  0  0  0  0  0  0  0  0  0  0  0
   31.8475   16.9647   21.2958 C   0  0  0  0  0  0  0  0  0  0  0  0
   32.8803   16.9766   22.3731 N   0  0  0  0  0  0  0  0  0  0  0  0
   28.1761   15.5885   17.8840 O   0  0  0  0  0  0  0  0  0  0  0  0
  2  1  1  1  0  0  0
  2  3  1  0  0  0  0
  2  5  1  0  0  0  0
  3  4  1  0  0  0  0
  3 10  1  0  0  0  0
  5  6  1  0  0  0  0
  6  7  1  0  0  0  0
  7  8  1  0  0  0  0
  8  9  1  0  0  0  0
M  END
>  <CHROM.1>
-27.30939185,-174.50478127,-179.69104827,178.84069579,176.97355114,28.88760884
15.71069673,20.24560653,2.58708214,-0.25758130,-1.81050732

>  <Name>
ligand

>  <RI>
0

>  <Rbt.Current_Directory>
/home/itssahil/PROJECTS/Mol_Feturizer/New_Systems/rnas/3DJ2

>  <Rbt.Executable>
rbdock ($Id: //depot/dev/client3/rdock/2013.1/src/exe/rbdock.cxx#4 $)

>  <Rbt.Library>
libRbt.so (2013.1, Build901 2013/11/27)

>  <Rbt.Parameter_File>
/export/apps/rDock/src/rDock_2013.1_src/data/scripts/dock_solv.prm

>  <Rbt.Receptor>
prm/pocket_docking_7.prm

>  <SCORE>
-9.4642

>  <SCORE.INTER>
-7.4001

>  <SCORE.INTER.CONST>
1

>  <SCORE.INTER.POLAR>
0

>  <SCORE.INTER.ROT>
5

>  <SCORE.INTER.SOLV>
18.8147

>  <SCORE.INTER.VDW>
-18.1383

>  <SCORE.INTER.norm>
-0.74001

>  <SCORE.INTRA>
-2.0641

>  <SCORE.INTRA.DIHEDRAL>
-2.56499

>  <SCORE.INTRA.DIHEDRAL.0>
4.28128

>  <SCORE.INTRA.POLAR>
0

>  <SCORE.INTRA.POLAR.0>
0

>  <SCORE.INTRA.REPUL>
0

>  <SCORE.INTRA.REPUL.0>
0

>  <SCORE.INTRA.SOLV>
-1.33171

>  <SCORE.INTRA.SOLV.lig_0>
-32.3374

>  <SCORE.INTRA.VDW>
-0.115752

>  <SCORE.INTRA.VDW.0>
-0.659551

>  <SCORE.INTRA.norm>
-0.20641

>  <SCORE.RESTR>
0

>  <SCORE.RESTR.CAVITY>
0

>  <SCORE.RESTR.norm>
0

>  <SCORE.SYSTEM>
0

>  <SCORE.SYSTEM.CONST>
0

>  <SCORE.SYSTEM.DIHEDRAL>
0

>  <SCORE.SYSTEM.SOLV>
0

>  <SCORE.SYSTEM.norm>
0

>  <SCORE.heavy>
10

>  <SCORE.norm>
-0.94642

>  <RMSD>
5.656

$$$$
ligand
 OpenBabel11021811473D
libRbt.so/2013.1/901 2013/11/27
 10  9  0  0  0  0  0  0  0  0999 V2000
   28.3641   15.4459   18.8783 N   0  0  0  0  0  0  0  0  0  0  0  0
   28.1516   15.0929   20.3099 C   0  0  2  0  0  0  0  0  0  0  0  0
   26.6693   15.0666   20.6833 C   0  0  0  0  0  0  0  0  0  0  0  0
   26.2731   14.5909   21.7522 O   0  0  0  0  0  0  0  0  0  0  0  0
   28.9348   16.0375   21.2254 C   0  0  0  0  0  0  0  0  0  0  0  0
   30.4395   16.0312   20.9905 C   0  0  0  0  0  0  0  0  0  0  0  0
   31.1418   17.0456   21.8927 C   0  0  0  0  0  0  0  0  0  0  0  0
   32.6442   17.0861   21.6368 C   0  0  0  0  0  0  0  0  0  0  0  0
   33.3415   18.1212   22.4552 N   0  0  0  0  0  0  0  0  0  0  0  0
   25.8267   15.5466   19.9279 O   0  0  0  0  0  0  0  0  0  0  0  0
  2  1  1  6  0  0  0
  2  3  1  0  0  0  0
  2  5  1  0  0  0  0
  3  4  1  0  0  0  0
  3 10  1  0  0  0  0
  5  6  1  0  0  0  0
  6  7  1  0  0  0  0
  7  8  1  0  0  0  0
  8  9  1  0  0  0  0
M  END
>  <CHROM.1>
168.10821786,-59.37390401,177.25276258,-178.06008956,176.94368890,29.13388104
15.99996759,20.98045049,-2.88458034,0.35532825,1.49842697

>  <Name>
ligand

>  <RI>
0

>  <Rbt.Current_Directory>
/home/itssahil/PROJECTS/Mol_Feturizer/New_Systems/rnas/3DJ2

>  <Rbt.Executable>
rbdock ($Id: //depot/dev/client3/rdock/2013.1/src/exe/rbdock.cxx#4 $)

>  <Rbt.Library>
libRbt.so (2013.1, Build901 2013/11/27)

>  <Rbt.Parameter_File>
/export/apps/rDock/src/rDock_2013.1_src/data/scripts/dock_solv.prm

>  <Rbt.Receptor>
prm/pocket_docking_3.prm

>  <SCORE>
-10.2946

>  <SCORE.INTER>
-8.68276

>  <SCORE.INTER.CONST>
1

>  <SCORE.INTER.POLAR>
0

>  <SCORE.INTER.ROT>
5

>  <SCORE.INTER.SOLV>
13.3779

>  <SCORE.INTER.VDW>
-17.1811

>  <SCORE.INTER.norm>
-0.868276

>  <SCORE.INTRA>
-1.61185

>  <SCORE.INTRA.DIHEDRAL>
-2.70602

>  <SCORE.INTRA.DIHEDRAL.0>
4.28128

>  <SCORE.INTRA.POLAR>
0

>  <SCORE.INTRA.POLAR.0>
0

>  <SCORE.INTRA.REPUL>
0

>  <SCORE.INTRA.REPUL.0>
0

>  <SCORE.INTRA.SOLV>
-0.413053

>  <SCORE.INTRA.SOLV.lig_0>
-32.3374

>  <SCORE.INTRA.VDW>
-0.0523115

>  <SCORE.INTRA.VDW.0>
-0.659551

>  <SCORE.INTRA.norm>
-0.161185

>  <SCORE.RESTR>
0

>  <SCORE.RESTR.CAVITY>
0

>  <SCORE.RESTR.norm>
0

>  <SCORE.SYSTEM>
0

>  <SCORE.SYSTEM.CONST>
0

>  <SCORE.SYSTEM.DIHEDRAL>
0

>  <SCORE.SYSTEM.SOLV>
0

>  <SCORE.SYSTEM.norm>
0

>  <SCORE.heavy>
10

>  <SCORE.norm>
-1.02946

>  <RMSD>
5.658

$$$$
ligand
 OpenBabel11021811473D
libRbt.so/2013.1/901 2013/11/27
 10  9  0  0  0  0  0  0  0  0999 V2000
   28.5575   15.0012   19.0194 N   0  0  0  0  0  0  0  0  0  0  0  0
   28.1621   14.9433   20.4545 C   0  0  2  0  0  0  0  0  0  0  0  0
   26.6482   15.0475   20.6401 C   0  0  0  0  0  0  0  0  0  0  0  0
   26.0792   14.5922   21.6375 O   0  0  0  0  0  0  0  0  0  0  0  0
   28.8928   16.0176   21.2642 C   0  0  0  0  0  0  0  0  0  0  0  0
   30.4073   15.8594   21.2900 C   0  0  0  0  0  0  0  0  0  0  0  0
   31.0735   17.0491   21.9805 C   0  0  0  0  0  0  0  0  0  0  0  0
   32.5930   16.9244   21.9827 C   0  0  0  0  0  0  0  0  0  0  0  0
   33.2679   18.1017   22.6037 N   0  0  0  0  0  0  0  0  0  0  0  0
   25.9540   15.6162   19.8000 O   0  0  0  0  0  0  0  0  0  0  0  0
  2  1  1  6  0  0  0
  2  3  1  0  0  0  0
  2  5  1  0  0  0  0
  3  4  1  0  0  0  0
  3 10  1  0  0  0  0
  5  6  1  0  0  0  0
  6  7  1  0  0  0  0
  7  8  1  0  0  0  0
  8  9  1  0  0  0  0
M  END
>  <CHROM.1>
155.45671326,-62.80227956,173.61947804,-178.50006982,177.70776241,29.11816820
15.91174101,21.06806144,-2.78419891,0.29232652,1.30633380

>  <Name>
ligand

>  <RI>
0

>  <Rbt.Current_Directory>
/home/itssahil/PROJECTS/Mol_Feturizer/New_Systems/rnas/3DJ2

>  <Rbt.Executable>
rbdock ($Id: //depot/dev/client3/rdock/2013.1/src/exe/rbdock.cxx#4 $)

>  <Rbt.Library>
libRbt.so (2013.1, Build901 2013/11/27)

>  <Rbt.Parameter_File>
/export/apps/rDock/src/rDock_2013.1_src/data/scripts/dock_solv.prm

>  <Rbt.Receptor>
prm/pocket_docking_4.prm

>  <SCORE>
-10.5386

>  <SCORE.INTER>
-8.86873

>  <SCORE.INTER.CONST>
1

>  <SCORE.INTER.POLAR>
0

>  <SCORE.INTER.ROT>
5

>  <SCORE.INTER.SOLV>
13.4139

>  <SCORE.INTER.VDW>
-17.3171

>  <SCORE.INTER.norm>
-0.886873

>  <SCORE.INTRA>
-1.6699

>  <SCORE.INTRA.DIHEDRAL>
-2.56832

>  <SCORE.INTRA.DIHEDRAL.0>
4.28128

>  <SCORE.INTRA.POLAR>
0

>  <SCORE.INTRA.POLAR.0>
0

>  <SCORE.INTRA.REPUL>
0

>  <SCORE.INTRA.REPUL.0>
0

>  <SCORE.INTRA.SOLV>
-0.440419

>  <SCORE.INTRA.SOLV.lig_0>
-32.3374

>  <SCORE.INTRA.VDW>
-0.165536

>  <SCORE.INTRA.VDW.0>
-0.659551

>  <SCORE.INTRA.norm>
-0.16699

>  <SCORE.RESTR>
0

>  <SCORE.RESTR.CAVITY>
0

>  <SCORE.RESTR.norm>
0

>  <SCORE.SYSTEM>
0

>  <SCORE.SYSTEM.CONST>
0

>  <SCORE.SYSTEM.DIHEDRAL>
0

>  <SCORE.SYSTEM.SOLV>
0

>  <SCORE.SYSTEM.norm>
0

>  <SCORE.heavy>
10

>  <SCORE.norm>
-1.05386

>  <RMSD>
5.660

$$$$
ligand
 OpenBabel11021811473D
libRbt.so/2013.1/901 2013/11/27
 10  9  0  0  0  0  0  0  0  0999 V2000
   25.8329   15.0597   20.5729 N   0  0  0  0  0  0  0  0  0  0  0  0
   27.0806   15.6504   20.0130 C   0  0  2  0  0  0  0  0  0  0  0  0
   27.5154   14.9602   18.7200 C   0  0  0  0  0  0  0  0  0  0  0  0
   28.1604   15.5519   17.8484 O   0  0  0  0  0  0  0  0  0  0  0  0
   28.2046   15.6342   21.0523 C   0  0  0  0  0  0  0  0  0  0  0  0
   29.4809   16.3338   20.6042 C   0  0  0  0  0  0  0  0  0  0  0  0
   30.5473   16.2878   21.6983 C   0  0  0  0  0  0  0  0  0  0  0  0
   31.8462   16.9491   21.2511 C   0  0  0  0  0  0  0  0  0  0  0  0
   32.8821   16.9716   22.3253 N   0  0  0  0  0  0  0  0  0  0  0  0
   27.2499   13.7760   18.5248 O   0  0  0  0  0  0  0  0  0  0  0  0
  2  1  1  1  0  0  0
  2  3  1  0  0  0  0
  2  5  1  0  0  0  0
  3  4  1  0  0  0  0
  3 10  1  0  0  0  0
  5  6  1  0  0  0  0
  6  7  1  0  0  0  0
  7  8  1  0  0  0  0
  8  9  1  0  0  0  0
M  END
>  <CHROM.1>
151.85389090,-174.78461048,179.40985223,178.35872577,177.37832626,28.87938883
15.69924275,20.22647911,2.59380816,-0.25778260,-1.81339432

>  <Name>
ligand

>  <RI>
0

>  <Rbt.Current_Directory>
/home/itssahil/PROJECTS/Mol_Feturizer/New_Systems/rnas/3DJ2

>  <Rbt.Executable>
rbdock ($Id: //depot/dev/client3/rdock/2013.1/src/exe/rbdock.cxx#4 $)

>  <Rbt.Library>
libRbt.so (2013.1, Build901 2013/11/27)

>  <Rbt.Parameter_File>
/export/apps/rDock/src/rDock_2013.1_src/data/scripts/dock_solv.prm

>  <Rbt.Receptor>
prm/pocket_docking_8.prm

>  <SCORE>
-9.49431

>  <SCORE.INTER>
-7.38339

>  <SCORE.INTER.CONST>
1

>  <SCORE.INTER.POLAR>
0

>  <SCORE.INTER.ROT>
5

>  <SCORE.INTER.SOLV>
18.8014

>  <SCORE.INTER.VDW>
-18.1227

>  <SCORE.INTER.norm>
-0.738339

>  <SCORE.INTRA>
-2.11092

>  <SCORE.INTRA.DIHEDRAL>
-2.67495

>  <SCORE.INTRA.DIHEDRAL.0>
4.28128

>  <SCORE.INTRA.POLAR>
0

>  <SCORE.INTRA.POLAR.0>
0

>  <SCORE.INTRA.REPUL>
0

>  <SCORE.INTRA.REPUL.0>
0

>  <SCORE.INTRA.SOLV>
-1.33127

>  <SCORE.INTRA.SOLV.lig_0>
-32.3374

>  <SCORE.INTRA.VDW>
-0.107812

>  <SCORE.INTRA.VDW.0>
-0.659551

>  <SCORE.INTRA.norm>
-0.211092

>  <SCORE.RESTR>
0

>  <SCORE.RESTR.CAVITY>
0

>  <SCORE.RESTR.norm>
0

>  <SCORE.SYSTEM>
0

>  <SCORE.SYSTEM.CONST>
0

>  <SCORE.SYSTEM.DIHEDRAL>
0

>  <SCORE.SYSTEM.SOLV>
0

>  <SCORE.SYSTEM.norm>
0

>  <SCORE.heavy>
10

>  <SCORE.norm>
-0.949431

>  <RMSD>
5.661

$$$$
ligand
 OpenBabel11021811473D
libRbt.so/2013.1/901 2013/11/27
 10  9  0  0  0  0  0  0  0  0999 V2000
   25.8518   15.0455   20.5777 N   0  0  0  0  0  0  0  0  0  0  0  0
   27.0972   15.6412   20.0180 C   0  0  2  0  0  0  0  0  0  0  0  0
   27.5138   14.9781   18.7050 C   0  0  0  0  0  0  0  0  0  0  0  0
   27.1969   13.8162   18.4304 O   0  0  0  0  0  0  0  0  0  0  0  0
   28.2320   15.5944   21.0445 C   0  0  0  0  0  0  0  0  0  0  0  0
   29.5049   16.3042   20.6025 C   0  0  0  0  0  0  0  0  0  0  0  0
   30.5849   16.2203   21.6808 C   0  0  0  0  0  0  0  0  0  0  0  0
   31.8655   16.9302   21.2559 C   0  0  0  0  0  0  0  0  0  0  0  0
   32.9204   16.8986   22.3112 N   0  0  0  0  0  0  0  0  0  0  0  0
   28.1635   15.6025   17.8689 O   0  0  0  0  0  0  0  0  0  0  0  0
  2  1  1  1  0  0  0
  2  3  1  0  0  0  0
  2  5  1  0  0  0  0
  3  4  1  0  0  0  0
  3 10  1  0  0  0  0
  5  6  1  0  0  0  0
  6  7  1  0  0  0  0
  7  8  1  0  0  0  0
  8  9  1  0  0  0  0
M  END
>  <CHROM.1>
-25.97491793,-174.40057364,179.68970449,-179.82589351,178.17910732,28.89156507
15.68604509,20.21414072,2.60206040,-0.25907908,-1.78607288

>  <Name>
ligand

>  <RI>
0

>  <Rbt.Current_Directory>
/home/itssahil/PROJECTS/Mol_Feturizer/New_Systems/rnas/3DJ2

>  <Rbt.Executable>
rbdock ($Id: //depot/dev/client3/rdock/2013.1/src/exe/rbdock.cxx#4 $)

>  <Rbt.Library>
libRbt.so (2013.1, Build901 2013/11/27)

>  <Rbt.Parameter_File>
/export/apps/rDock/src/rDock_2013.1_src/data/scripts/dock_solv.prm

>  <Rbt.Receptor>
prm/pocket_docking_6.prm

>  <SCORE>
-9.43481

>  <SCORE.INTER>
-7.38952

>  <SCORE.INTER.CONST>
1

>  <SCORE.INTER.POLAR>
0

>  <SCORE.INTER.ROT>
5

>  <SCORE.INTER.SOLV>
18.9556

>  <SCORE.INTER.VDW>
-18.1782

>  <SCORE.INTER.norm>
-0.738952

>  <SCORE.INTRA>
-2.04529

>  <SCORE.INTRA.DIHEDRAL>
-2.58868

>  <SCORE.INTRA.DIHEDRAL.0>
4.28128

>  <SCORE.INTRA.POLAR>
0

>  <SCORE.INTRA.POLAR.0>
0

>  <SCORE.INTRA.REPUL>
0

>  <SCORE.INTRA.REPUL.0>
0

>  <SCORE.INTRA.SOLV>
-1.33163

>  <SCORE.INTRA.SOLV.lig_0>
-32.3374

>  <SCORE.INTRA.VDW>
-0.0851347

>  <SCORE.INTRA.VDW.0>
-0.659551

>  <SCORE.INTRA.norm>
-0.204529

>  <SCORE.RESTR>
0

>  <SCORE.RESTR.CAVITY>
0

>  <SCORE.RESTR.norm>
0

>  <SCORE.SYSTEM>
0

>  <SCORE.SYSTEM.CONST>
0

>  <SCORE.SYSTEM.DIHEDRAL>
0

>  <SCORE.SYSTEM.SOLV>
0

>  <SCORE.SYSTEM.norm>
0

>  <SCORE.heavy>
10

>  <SCORE.norm>
-0.943481

>  <RMSD>
5.664

$$$$
ligand
 OpenBabel11021811473D
libRbt.so/2013.1/901 2013/11/27
 10  9  0  0  0  0  0  0  0  0999 V2000
   25.8235   15.0721   20.5718 N   0  0  0  0  0  0  0  0  0  0  0  0
   27.0713   15.6588   20.0079 C   0  0  2  0  0  0  0  0  0  0  0  0
   27.5146   14.9497   18.7281 C   0  0  0  0  0  0  0  0  0  0  0  0
   27.2097   13.7762   18.4921 O   0  0  0  0  0  0  0  0  0  0  0  0
   28.1907   15.6637   21.0524 C   0  0  0  0  0  0  0  0  0  0  0  0
   29.4644   16.3658   20.6007 C   0  0  0  0  0  0  0  0  0  0  0  0
   30.5336   16.3225   21.6921 C   0  0  0  0  0  0  0  0  0  0  0  0
   31.8309   16.9840   21.2404 C   0  0  0  0  0  0  0  0  0  0  0  0
   32.8544   17.0475   22.3247 N   0  0  0  0  0  0  0  0  0  0  0  0
   28.1746   15.5468   17.8802 O   0  0  0  0  0  0  0  0  0  0  0  0
  2  1  1  1  0  0  0
  2  3  1  0  0  0  0
  2  5  1  0  0  0  0
  3  4  1  0  0  0  0
  3 10  1  0  0  0  0
  5  6  1  0  0  0  0
  6  7  1  0  0  0  0
  7  8  1  0  0  0  0
  8  9  1  0  0  0  0
M  END
>  <CHROM.1>
-25.72860511,-174.56350468,-179.71360128,178.25199868,175.57546429,28.86593531
15.72033726,20.22441877,2.58852448,-0.25962258,-1.82983161

>  <Name>
ligand

>  <RI>
0

>  <Rbt.Current_Directory>
/home/itssahil/PROJECTS/Mol_Feturizer/New_Systems/rnas/3DJ2

>  <Rbt.Executable>
rbdock ($Id: //depot/dev/client3/rdock/2013.1/src/exe/rbdock.cxx#4 $)

>  <Rbt.Library>
libRbt.so (2013.1, Build901 2013/11/27)

>  <Rbt.Parameter_File>
/export/apps/rDock/src/rDock_2013.1_src/data/scripts/dock_solv.prm

>  <Rbt.Receptor>
prm/pocket_docking_7.prm

>  <SCORE>
-9.48319

>  <SCORE.INTER>
-7.45982

>  <SCORE.INTER.CONST>
1

>  <SCORE.INTER.POLAR>
0

>  <SCORE.INTER.ROT>
5

>  <SCORE.INTER.SOLV>
18.6286

>  <SCORE.INTER.VDW>
-18.1161

>  <SCORE.INTER.norm>
-0.745982

>  <SCORE.INTRA>
-2.02337

>  <SCORE.INTRA.DIHEDRAL>
-2.52148

>  <SCORE.INTRA.DIHEDRAL.0>
4.28128

>  <SCORE.INTRA.POLAR>
0

>  <SCORE.INTRA.POLAR.0>
0

>  <SCORE.INTRA.REPUL>
0

>  <SCORE.INTRA.REPUL.0>
0

>  <SCORE.INTRA.SOLV>
-1.33064

>  <SCORE.INTRA.SOLV.lig_0>
-32.3374

>  <SCORE.INTRA.VDW>
-0.0973096

>  <SCORE.INTRA.VDW.0>
-0.659551

>  <SCORE.INTRA.norm>
-0.202337

>  <SCORE.RESTR>
0

>  <SCORE.RESTR.CAVITY>
0

>  <SCORE.RESTR.norm>
0

>  <SCORE.SYSTEM>
0

>  <SCORE.SYSTEM.CONST>
0

>  <SCORE.SYSTEM.DIHEDRAL>
0

>  <SCORE.SYSTEM.SOLV>
0

>  <SCORE.SYSTEM.norm>
0

>  <SCORE.heavy>
10

>  <SCORE.norm>
-0.948319

>  <RMSD>
5.667

$$$$
ligand
 OpenBabel11021811473D
libRbt.so/2013.1/901 2013/11/27
 10  9  0  0  0  0  0  0  0  0999 V2000
   28.5476   14.8444   19.0382 N   0  0  0  0  0  0  0  0  0  0  0  0
   28.1391   14.9003   20.4697 C   0  0  2  0  0  0  0  0  0  0  0  0
   26.6259   15.0457   20.6321 C   0  0  0  0  0  0  0  0  0  0  0  0
   25.9271   15.5989   19.7768 O   0  0  0  0  0  0  0  0  0  0  0  0
   28.8832   16.0182   21.2048 C   0  0  0  0  0  0  0  0  0  0  0  0
   30.3931   15.8293   21.2661 C   0  0  0  0  0  0  0  0  0  0  0  0
   31.0732   17.0362   21.9120 C   0  0  0  0  0  0  0  0  0  0  0  0
   32.5877   16.8703   21.9673 C   0  0  0  0  0  0  0  0  0  0  0  0
   33.2775   18.0575   22.5521 N   0  0  0  0  0  0  0  0  0  0  0  0
   26.0573   14.5879   21.6210 O   0  0  0  0  0  0  0  0  0  0  0  0
  2  1  1  6  0  0  0
  2  3  1  0  0  0  0
  2  5  1  0  0  0  0
  3  4  1  0  0  0  0
  3 10  1  0  0  0  0
  5  6  1  0  0  0  0
  6  7  1  0  0  0  0
  7  8  1  0  0  0  0
  8  9  1  0  0  0  0
M  END
>  <CHROM.1>
-28.16924616,-63.22886747,175.37036618,-179.36797630,178.04086350,29.10565393
15.87562487,21.04441550,-2.77242985,0.26812328,1.24360039

>  <Name>
ligand

>  <RI>
0

>  <Rbt.Current_Directory>
/home/itssahil/PROJECTS/Mol_Feturizer/New_Systems/rnas/3DJ2

>  <Rbt.Executable>
rbdock ($Id: //depot/dev/client3/rdock/2013.1/src/exe/rbdock.cxx#4 $)

>  <Rbt.Library>
libRbt.so (2013.1, Build901 2013/11/27)

>  <Rbt.Parameter_File>
/export/apps/rDock/src/rDock_2013.1_src/data/scripts/dock_solv.prm

>  <Rbt.Receptor>
prm/pocket_docking_6.prm

>  <SCORE>
-10.5807

>  <SCORE.INTER>
-8.87608

>  <SCORE.INTER.CONST>
1

>  <SCORE.INTER.POLAR>
0

>  <SCORE.INTER.ROT>
5

>  <SCORE.INTER.SOLV>
13.5388

>  <SCORE.INTER.VDW>
-17.3637

>  <SCORE.INTER.norm>
-0.887608

>  <SCORE.INTRA>
-1.70459

>  <SCORE.INTRA.DIHEDRAL>
-2.55377

>  <SCORE.INTRA.DIHEDRAL.0>
4.28128

>  <SCORE.INTRA.POLAR>
0

>  <SCORE.INTRA.POLAR.0>
0

>  <SCORE.INTRA.REPUL>
0

>  <SCORE.INTRA.REPUL.0>
0

>  <SCORE.INTRA.SOLV>
-0.459008

>  <SCORE.INTRA.SOLV.lig_0>
-32.3374

>  <SCORE.INTRA.VDW>
-0.198199

>  <SCORE.INTRA.VDW.0>
-0.659551

>  <SCORE.INTRA.norm>
-0.170459

>  <SCORE.RESTR>
0

>  <SCORE.RESTR.CAVITY>
0

>  <SCORE.RESTR.norm>
0

>  <SCORE.SYSTEM>
0

>  <SCORE.SYSTEM.CONST>
0

>  <SCORE.SYSTEM.DIHEDRAL>
0

>  <SCORE.SYSTEM.SOLV>
0

>  <SCORE.SYSTEM.norm>
0

>  <SCORE.heavy>
10

>  <SCORE.norm>
-1.05807

>  <RMSD>
5.668

$$$$
ligand
 OpenBabel11021811473D
libRbt.so/2013.1/901 2013/11/27
 10  9  0  0  0  0  0  0  0  0999 V2000
   26.8327   14.6007   20.7032 N   0  0  0  0  0  0  0  0  0  0  0  0
   27.1369   15.5343   19.5830 C   0  0  2  0  0  0  0  0  0  0  0  0
   27.5723   14.7944   18.3180 C   0  0  0  0  0  0  0  0  0  0  0  0
   28.1788   15.3631   17.4044 O   0  0  0  0  0  0  0  0  0  0  0  0
   28.1836   16.5686   20.0054 C   0  0  0  0  0  0  0  0  0  0  0  0
   29.5079   15.9689   20.4593 C   0  0  0  0  0  0  0  0  0  0  0  0
   30.4925   17.0608   20.8768 C   0  0  0  0  0  0  0  0  0  0  0  0
   31.8334   16.4787   21.3097 C   0  0  0  0  0  0  0  0  0  0  0  0
   32.8005   17.5249   21.7540 N   0  0  0  0  0  0  0  0  0  0  0  0
   27.3468   13.5930   18.1887 O   0  0  0  0  0  0  0  0  0  0  0  0
  2  1  1  1  0  0  0
  2  3  1  0  0  0  0
  2  5  1  0  0  0  0
  3  4  1  0  0  0  0
  3 10  1  0  0  0  0
  5  6  1  0  0  0  0
  6  7  1  0  0  0  0
  7  8  1  0  0  0  0
  8  9  1  0  0  0  0
M  END
>  <CHROM.1>
-161.53338210,58.96858513,-179.42977809,-178.93998259,-178.59175212,28.98750747
15.72828584,19.82617199,2.54232316,-0.36142624,-1.81746784

>  <Name>
ligand

>  <RI>
0

>  <Rbt.Current_Directory>
/home/itssahil/PROJECTS/Mol_Feturizer/New_Systems/rnas/3DJ2

>  <Rbt.Executable>
rbdock ($Id: //depot/dev/client3/rdock/2013.1/src/exe/rbdock.cxx#4 $)

>  <Rbt.Library>
libRbt.so (2013.1, Build901 2013/11/27)

>  <Rbt.Parameter_File>
/export/apps/rDock/src/rDock_2013.1_src/data/scripts/dock_solv.prm

>  <Rbt.Receptor>
prm/pocket_docking_6.prm

>  <SCORE>
-9.7104

>  <SCORE.INTER>
-8.41352

>  <SCORE.INTER.CONST>
1

>  <SCORE.INTER.POLAR>
0

>  <SCORE.INTER.ROT>
5

>  <SCORE.INTER.SOLV>
15.6943

>  <SCORE.INTER.VDW>
-17.7738

>  <SCORE.INTER.norm>
-0.841352

>  <SCORE.INTRA>
-1.29688

>  <SCORE.INTRA.DIHEDRAL>
-2.69896

>  <SCORE.INTRA.DIHEDRAL.0>
4.28128

>  <SCORE.INTRA.POLAR>
0

>  <SCORE.INTRA.POLAR.0>
0

>  <SCORE.INTRA.REPUL>
0

>  <SCORE.INTRA.REPUL.0>
0

>  <SCORE.INTRA.SOLV>
-0.424527

>  <SCORE.INTRA.SOLV.lig_0>
-32.3374

>  <SCORE.INTRA.VDW>
0.264866

>  <SCORE.INTRA.VDW.0>
-0.659551

>  <SCORE.INTRA.norm>
-0.129688

>  <SCORE.RESTR>
0

>  <SCORE.RESTR.CAVITY>
0

>  <SCORE.RESTR.norm>
0

>  <SCORE.SYSTEM>
0

>  <SCORE.SYSTEM.CONST>
0

>  <SCORE.SYSTEM.DIHEDRAL>
0

>  <SCORE.SYSTEM.SOLV>
0

>  <SCORE.SYSTEM.norm>
0

>  <SCORE.heavy>
10

>  <SCORE.norm>
-0.97104

>  <RMSD>
5.672

$$$$
ligand
 OpenBabel11021811473D
libRbt.so/2013.1/901 2013/11/27
 10  9  0  0  0  0  0  0  0  0999 V2000
   25.8341   15.0564   20.5677 N   0  0  0  0  0  0  0  0  0  0  0  0
   27.0892   15.6259   20.0024 C   0  0  2  0  0  0  0  0  0  0  0  0
   27.5060   14.9295   18.7068 C   0  0  0  0  0  0  0  0  0  0  0  0
   27.1822   13.7635   18.4584 O   0  0  0  0  0  0  0  0  0  0  0  0
   28.2176   15.5894   21.0364 C   0  0  0  0  0  0  0  0  0  0  0  0
   29.4874   16.3093   20.6022 C   0  0  0  0  0  0  0  0  0  0  0  0
   30.5606   16.2362   21.6881 C   0  0  0  0  0  0  0  0  0  0  0  0
   31.8444   16.9406   21.2638 C   0  0  0  0  0  0  0  0  0  0  0  0
   32.8926   16.9194   22.3259 N   0  0  0  0  0  0  0  0  0  0  0  0
   28.1626   15.5298   17.8586 O   0  0  0  0  0  0  0  0  0  0  0  0
  2  1  1  1  0  0  0
  2  3  1  0  0  0  0
  2  5  1  0  0  0  0
  3  4  1  0  0  0  0
  3 10  1  0  0  0  0
  5  6  1  0  0  0  0
  6  7  1  0  0  0  0
  7  8  1  0  0  0  0
  8  9  1  0  0  0  0
M  END
>  <CHROM.1>
-26.27186324,-172.76013396,179.64323681,179.43019473,178.18485041,28.87619795
15.67206436,20.21602503,2.59183588,-0.25468697,-1.81096918

>  <Name>
ligand

>  <RI>
0

>  <Rbt.Current_Directory>
/home/itssahil/PROJECTS/Mol_Feturizer/New_Systems/rnas/3DJ2

>  <Rbt.Executable>
rbdock ($Id: //depot/dev/client3/rdock/2013.1/src/exe/rbdock.cxx#4 $)

>  <Rbt.Library>
libRbt.so (2013.1, Build901 2013/11/27)

>  <Rbt.Parameter_File>
/export/apps/rDock/src/rDock_2013.1_src/data/scripts/dock_solv.prm

>  <Rbt.Receptor>
prm/pocket_docking_4.prm

>  <SCORE>
-9.43744

>  <SCORE.INTER>
-7.39377

>  <SCORE.INTER.CONST>
1

>  <SCORE.INTER.POLAR>
0

>  <SCORE.INTER.ROT>
5

>  <SCORE.INTER.SOLV>
18.8882

>  <SCORE.INTER.VDW>
-18.1586

>  <SCORE.INTER.norm>
-0.739377

>  <SCORE.INTRA>
-2.04367

>  <SCORE.INTRA.DIHEDRAL>
-2.5105

>  <SCORE.INTRA.DIHEDRAL.0>
4.28128

>  <SCORE.INTRA.POLAR>
0

>  <SCORE.INTRA.POLAR.0>
0

>  <SCORE.INTRA.REPUL>
0

>  <SCORE.INTRA.REPUL.0>
0

>  <SCORE.INTRA.SOLV>
-1.33027

>  <SCORE.INTRA.SOLV.lig_0>
-32.3374

>  <SCORE.INTRA.VDW>
-0.123285

>  <SCORE.INTRA.VDW.0>
-0.659551

>  <SCORE.INTRA.norm>
-0.204367

>  <SCORE.RESTR>
0

>  <SCORE.RESTR.CAVITY>
0

>  <SCORE.RESTR.norm>
0

>  <SCORE.SYSTEM>
0

>  <SCORE.SYSTEM.CONST>
0

>  <SCORE.SYSTEM.DIHEDRAL>
0

>  <SCORE.SYSTEM.SOLV>
0

>  <SCORE.SYSTEM.norm>
0

>  <SCORE.heavy>
10

>  <SCORE.norm>
-0.943744

>  <RMSD>
5.673

$$$$
ligand
 OpenBabel11021811473D
libRbt.so/2013.1/901 2013/11/27
 10  9  0  0  0  0  0  0  0  0999 V2000
   25.8483   15.0530   20.5734 N   0  0  0  0  0  0  0  0  0  0  0  0
   27.0996   15.6248   20.0019 C   0  0  2  0  0  0  0  0  0  0  0  0
   27.5118   14.9283   18.7049 C   0  0  0  0  0  0  0  0  0  0  0  0
   27.2012   13.7571   18.4649 O   0  0  0  0  0  0  0  0  0  0  0  0
   28.2328   15.5914   21.0307 C   0  0  0  0  0  0  0  0  0  0  0  0
   29.5060   16.2962   20.5818 C   0  0  0  0  0  0  0  0  0  0  0  0
   30.5794   16.2389   21.6684 C   0  0  0  0  0  0  0  0  0  0  0  0
   31.8647   16.9330   21.2318 C   0  0  0  0  0  0  0  0  0  0  0  0
   32.8830   17.0005   22.3208 N   0  0  0  0  0  0  0  0  0  0  0  0
   28.1511   15.5338   17.8471 O   0  0  0  0  0  0  0  0  0  0  0  0
  2  1  1  1  0  0  0
  2  3  1  0  0  0  0
  2  5  1  0  0  0  0
  3  4  1  0  0  0  0
  3 10  1  0  0  0  0
  5  6  1  0  0  0  0
  6  7  1  0  0  0  0
  7  8  1  0  0  0  0
  8  9  1  0  0  0  0
M  END
>  <CHROM.1>
-27.04120372,-173.60854526,179.10115785,179.64862416,174.69620493,28.88621719
15.67770639,20.20757678,2.59376995,-0.26260836,-1.80946739

>  <Name>
ligand

>  <RI>
0

>  <Rbt.Current_Directory>
/home/itssahil/PROJECTS/Mol_Feturizer/New_Systems/rnas/3DJ2

>  <Rbt.Executable>
rbdock ($Id: //depot/dev/client3/rdock/2013.1/src/exe/rbdock.cxx#4 $)

>  <Rbt.Library>
libRbt.so (2013.1, Build901 2013/11/27)

>  <Rbt.Parameter_File>
/export/apps/rDock/src/rDock_2013.1_src/data/scripts/dock_solv.prm

>  <Rbt.Receptor>
prm/pocket_docking_5.prm

>  <SCORE>
-9.43895

>  <SCORE.INTER>
-7.43207

>  <SCORE.INTER.CONST>
1

>  <SCORE.INTER.POLAR>
0

>  <SCORE.INTER.ROT>
5

>  <SCORE.INTER.SOLV>
18.7274

>  <SCORE.INTER.VDW>
-18.1305

>  <SCORE.INTER.norm>
-0.743207

>  <SCORE.INTRA>
-2.00688

>  <SCORE.INTRA.DIHEDRAL>
-2.45723

>  <SCORE.INTRA.DIHEDRAL.0>
4.28128

>  <SCORE.INTRA.POLAR>
0

>  <SCORE.INTRA.POLAR.0>
0

>  <SCORE.INTRA.REPUL>
0

>  <SCORE.INTRA.REPUL.0>
0

>  <SCORE.INTRA.SOLV>
-1.32967

>  <SCORE.INTRA.SOLV.lig_0>
-32.3374

>  <SCORE.INTRA.VDW>
-0.113435

>  <SCORE.INTRA.VDW.0>
-0.659551

>  <SCORE.INTRA.norm>
-0.200688

>  <SCORE.RESTR>
0

>  <SCORE.RESTR.CAVITY>
0

>  <SCORE.RESTR.norm>
0

>  <SCORE.SYSTEM>
0

>  <SCORE.SYSTEM.CONST>
0

>  <SCORE.SYSTEM.DIHEDRAL>
0

>  <SCORE.SYSTEM.SOLV>
0

>  <SCORE.SYSTEM.norm>
0

>  <SCORE.heavy>
10

>  <SCORE.norm>
-0.943895

>  <RMSD>
5.674

$$$$
ligand
 OpenBabel11021811473D
libRbt.so/2013.1/901 2013/11/27
 10  9  0  0  0  0  0  0  0  0999 V2000
   25.8451   15.0508   20.5864 N   0  0  0  0  0  0  0  0  0  0  0  0
   27.0939   15.6294   20.0162 C   0  0  2  0  0  0  0  0  0  0  0  0
   27.5019   14.9464   18.7108 C   0  0  0  0  0  0  0  0  0  0  0  0
   27.1914   13.7773   18.4602 O   0  0  0  0  0  0  0  0  0  0  0  0
   28.2308   15.5865   21.0406 C   0  0  0  0  0  0  0  0  0  0  0  0
   29.4987   16.3047   20.5981 C   0  0  0  0  0  0  0  0  0  0  0  0
   30.5729   16.2447   21.6837 C   0  0  0  0  0  0  0  0  0  0  0  0
   31.8451   16.9715   21.2623 C   0  0  0  0  0  0  0  0  0  0  0  0
   32.8734   17.0094   22.3433 N   0  0  0  0  0  0  0  0  0  0  0  0
   28.1376   15.5609   17.8569 O   0  0  0  0  0  0  0  0  0  0  0  0
  2  1  1  1  0  0  0
  2  3  1  0  0  0  0
  2  5  1  0  0  0  0
  3  4  1  0  0  0  0
  3 10  1  0  0  0  0
  5  6  1  0  0  0  0
  6  7  1  0  0  0  0
  7  8  1  0  0  0  0
  8  9  1  0  0  0  0
M  END
>  <CHROM.1>
-27.04453255,-173.22468709,178.72482863,-179.42927854,175.94108537,28.87741463
15.69046709,20.22065083,2.59321214,-0.26917867,-1.79878081

>  <Name>
ligand

>  <RI>
0

>  <Rbt.Current_Directory>
/home/itssahil/PROJECTS/Mol_Feturizer/New_Systems/rnas/3DJ2

>  <Rbt.Executable>
rbdock ($Id: //depot/dev/client3/rdock/2013.1/src/exe/rbdock.cxx#4 $)

>  <Rbt.Library>
libRbt.so (2013.1, Build901 2013/11/27)

>  <Rbt.Parameter_File>
/export/apps/rDock/src/rDock_2013.1_src/data/scripts/dock_solv.prm

>  <Rbt.Receptor>
prm/pocket_docking_7.prm

>  <SCORE>
-9.45086

>  <SCORE.INTER>
-7.42562

>  <SCORE.INTER.CONST>
1

>  <SCORE.INTER.POLAR>
0

>  <SCORE.INTER.ROT>
5

>  <SCORE.INTER.SOLV>
18.7463

>  <SCORE.INTER.VDW>
-18.1325

>  <SCORE.INTER.norm>
-0.742562

>  <SCORE.INTRA>
-2.02524

>  <SCORE.INTRA.DIHEDRAL>
-2.47815

>  <SCORE.INTRA.DIHEDRAL.0>
4.28128

>  <SCORE.INTRA.POLAR>
0

>  <SCORE.INTRA.POLAR.0>
0

>  <SCORE.INTRA.REPUL>
0

>  <SCORE.INTRA.REPUL.0>
0

>  <SCORE.INTRA.SOLV>
-1.33007

>  <SCORE.INTRA.SOLV.lig_0>
-32.3374

>  <SCORE.INTRA.VDW>
-0.121122

>  <SCORE.INTRA.VDW.0>
-0.659551

>  <SCORE.INTRA.norm>
-0.202524

>  <SCORE.RESTR>
0

>  <SCORE.RESTR.CAVITY>
0

>  <SCORE.RESTR.norm>
0

>  <SCORE.SYSTEM>
0

>  <SCORE.SYSTEM.CONST>
0

>  <SCORE.SYSTEM.DIHEDRAL>
0

>  <SCORE.SYSTEM.SOLV>
0

>  <SCORE.SYSTEM.norm>
0

>  <SCORE.heavy>
10

>  <SCORE.norm>
-0.945086

>  <RMSD>
5.675

$$$$
ligand
 OpenBabel11021811473D
libRbt.so/2013.1/901 2013/11/27
 10  9  0  0  0  0  0  0  0  0999 V2000
   28.5602   14.5162   19.1953 N   0  0  0  0  0  0  0  0  0  0  0  0
   28.0955   14.7782   20.5862 C   0  0  2  0  0  0  0  0  0  0  0  0
   26.5841   14.9969   20.6574 C   0  0  0  0  0  0  0  0  0  0  0  0
   25.9089   14.5889   21.6080 O   0  0  0  0  0  0  0  0  0  0  0  0
   28.8536   15.9581   21.2001 C   0  0  0  0  0  0  0  0  0  0  0  0
   30.3574   15.7450   21.3124 C   0  0  0  0  0  0  0  0  0  0  0  0
   31.0438   16.9707   21.9144 C   0  0  0  0  0  0  0  0  0  0  0  0
   32.5584   16.8040   21.9645 C   0  0  0  0  0  0  0  0  0  0  0  0
   33.2536   18.0057   22.5122 N   0  0  0  0  0  0  0  0  0  0  0  0
   26.0001   15.6138   19.7690 O   0  0  0  0  0  0  0  0  0  0  0  0
  2  1  1  6  0  0  0
  2  3  1  0  0  0  0
  2  5  1  0  0  0  0
  3  4  1  0  0  0  0
  3 10  1  0  0  0  0
  5  6  1  0  0  0  0
  6  7  1  0  0  0  0
  7  8  1  0  0  0  0
  8  9  1  0  0  0  0
M  END
>  <CHROM.1>
143.44736550,-61.25564368,179.19508367,-176.92410050,178.31480558,29.07607499
15.79688134,21.07068196,-2.74221221,0.20838749,1.08100034

>  <Name>
ligand

>  <RI>
0

>  <Rbt.Current_Directory>
/home/itssahil/PROJECTS/Mol_Feturizer/New_Systems/rnas/3DJ2

>  <Rbt.Executable>
rbdock ($Id: //depot/dev/client3/rdock/2013.1/src/exe/rbdock.cxx#4 $)

>  <Rbt.Library>
libRbt.so (2013.1, Build901 2013/11/27)

>  <Rbt.Parameter_File>
/export/apps/rDock/src/rDock_2013.1_src/data/scripts/dock_solv.prm

>  <Rbt.Receptor>
prm/pocket_docking_6.prm

>  <SCORE>
-10.6846

>  <SCORE.INTER>
-8.89741

>  <SCORE.INTER.CONST>
1

>  <SCORE.INTER.POLAR>
0

>  <SCORE.INTER.ROT>
5

>  <SCORE.INTER.SOLV>
13.9914

>  <SCORE.INTER.VDW>
-17.5288

>  <SCORE.INTER.norm>
-0.889741

>  <SCORE.INTRA>
-1.78721

>  <SCORE.INTRA.DIHEDRAL>
-2.73917

>  <SCORE.INTRA.DIHEDRAL.0>
4.28128

>  <SCORE.INTRA.POLAR>
0

>  <SCORE.INTRA.POLAR.0>
0

>  <SCORE.INTRA.REPUL>
0

>  <SCORE.INTRA.REPUL.0>
0

>  <SCORE.INTRA.SOLV>
-0.458632

>  <SCORE.INTRA.SOLV.lig_0>
-32.3374

>  <SCORE.INTRA.VDW>
-0.188306

>  <SCORE.INTRA.VDW.0>
-0.659551

>  <SCORE.INTRA.norm>
-0.178721

>  <SCORE.RESTR>
0

>  <SCORE.RESTR.CAVITY>
0

>  <SCORE.RESTR.norm>
0

>  <SCORE.SYSTEM>
0

>  <SCORE.SYSTEM.CONST>
0

>  <SCORE.SYSTEM.DIHEDRAL>
0

>  <SCORE.SYSTEM.SOLV>
0

>  <SCORE.SYSTEM.norm>
0

>  <SCORE.heavy>
10

>  <SCORE.norm>
-1.06846

>  <RMSD>
5.676

$$$$
ligand
 OpenBabel11021811473D
libRbt.so/2013.1/901 2013/11/27
 10  9  0  0  0  0  0  0  0  0999 V2000
   26.8188   14.5763   20.6622 N   0  0  0  0  0  0  0  0  0  0  0  0
   27.1462   15.5319   19.5672 C   0  0  2  0  0  0  0  0  0  0  0  0
   27.5718   14.8158   18.2853 C   0  0  0  0  0  0  0  0  0  0  0  0
   27.2723   13.6380   18.0645 O   0  0  0  0  0  0  0  0  0  0  0  0
   28.2116   16.5339   20.0196 C   0  0  0  0  0  0  0  0  0  0  0  0
   29.5286   15.8976   20.4437 C   0  0  0  0  0  0  0  0  0  0  0  0
   30.5597   16.9625   20.8166 C   0  0  0  0  0  0  0  0  0  0  0  0
   31.9119   16.3464   21.1580 C   0  0  0  0  0  0  0  0  0  0  0  0
   32.9401   17.3694   21.5094 N   0  0  0  0  0  0  0  0  0  0  0  0
   28.2113   15.4111   17.4206 O   0  0  0  0  0  0  0  0  0  0  0  0
  2  1  1  1  0  0  0
  2  3  1  0  0  0  0
  2  5  1  0  0  0  0
  3  4  1  0  0  0  0
  3 10  1  0  0  0  0
  5  6  1  0  0  0  0
  6  7  1  0  0  0  0
  7  8  1  0  0  0  0
  8  9  1  0  0  0  0
M  END
>  <CHROM.1>
21.15537875,59.80124002,177.29068955,-176.35064940,179.29695761,29.01532161
15.68912460,19.76013723,2.57748585,-0.33320376,-1.81440254

>  <Name>
ligand

>  <RI>
0

>  <Rbt.Current_Directory>
/home/itssahil/PROJECTS/Mol_Feturizer/New_Systems/rnas/3DJ2

>  <Rbt.Executable>
rbdock ($Id: //depot/dev/client3/rdock/2013.1/src/exe/rbdock.cxx#4 $)

>  <Rbt.Library>
libRbt.so (2013.1, Build901 2013/11/27)

>  <Rbt.Parameter_File>
/export/apps/rDock/src/rDock_2013.1_src/data/scripts/dock_solv.prm

>  <Rbt.Receptor>
prm/pocket_docking_6.prm

>  <SCORE>
-9.72056

>  <SCORE.INTER>
-8.4762

>  <SCORE.INTER.CONST>
1

>  <SCORE.INTER.POLAR>
0

>  <SCORE.INTER.ROT>
5

>  <SCORE.INTER.SOLV>
15.8936

>  <SCORE.INTER.VDW>
-17.882

>  <SCORE.INTER.norm>
-0.84762

>  <SCORE.INTRA>
-1.24436

>  <SCORE.INTRA.DIHEDRAL>
-2.71004

>  <SCORE.INTRA.DIHEDRAL.0>
4.28128

>  <SCORE.INTRA.POLAR>
0

>  <SCORE.INTRA.POLAR.0>
0

>  <SCORE.INTRA.REPUL>
0

>  <SCORE.INTRA.REPUL.0>
0

>  <SCORE.INTRA.SOLV>
-0.462457

>  <SCORE.INTRA.SOLV.lig_0>
-32.3374

>  <SCORE.INTRA.VDW>
0.341887

>  <SCORE.INTRA.VDW.0>
-0.659551

>  <SCORE.INTRA.norm>
-0.124436

>  <SCORE.RESTR>
0

>  <SCORE.RESTR.CAVITY>
0

>  <SCORE.RESTR.norm>
0

>  <SCORE.SYSTEM>
0

>  <SCORE.SYSTEM.CONST>
0

>  <SCORE.SYSTEM.DIHEDRAL>
0

>  <SCORE.SYSTEM.SOLV>
0

>  <SCORE.SYSTEM.norm>
0

>  <SCORE.heavy>
10

>  <SCORE.norm>
-0.972056

>  <RMSD>
5.676

$$$$
ligand
 OpenBabel11021811473D
libRbt.so/2013.1/901 2013/11/27
 10  9  0  0  0  0  0  0  0  0999 V2000
   28.5589   14.5698   19.2100 N   0  0  0  0  0  0  0  0  0  0  0  0
   28.0946   14.8090   20.6052 C   0  0  2  0  0  0  0  0  0  0  0  0
   26.5835   15.0281   20.6803 C   0  0  0  0  0  0  0  0  0  0  0  0
   25.9673   15.6390   19.8012 O   0  0  0  0  0  0  0  0  0  0  0  0
   28.8541   15.9775   21.2388 C   0  0  0  0  0  0  0  0  0  0  0  0
   30.3510   15.7417   21.3908 C   0  0  0  0  0  0  0  0  0  0  0  0
   31.0493   16.9800   21.9521 C   0  0  0  0  0  0  0  0  0  0  0  0
   32.5594   16.7887   22.0372 C   0  0  0  0  0  0  0  0  0  0  0  0
   33.2675   18.0020   22.5411 N   0  0  0  0  0  0  0  0  0  0  0  0
   25.9328   14.5743   21.6193 O   0  0  0  0  0  0  0  0  0  0  0  0
  2  1  1  6  0  0  0
  2  3  1  0  0  0  0
  2  5  1  0  0  0  0
  3  4  1  0  0  0  0
  3 10  1  0  0  0  0
  5  6  1  0  0  0  0
  6  7  1  0  0  0  0
  7  8  1  0  0  0  0
  8  9  1  0  0  0  0
M  END
>  <CHROM.1>
-36.57830547,-63.24239845,176.64492734,-176.79163453,178.12149622,29.07625201
15.80953739,21.10624460,-2.74526815,0.21185280,1.10546864

>  <Name>
ligand

>  <RI>
0

>  <Rbt.Current_Directory>
/home/itssahil/PROJECTS/Mol_Feturizer/New_Systems/rnas/3DJ2

>  <Rbt.Executable>
rbdock ($Id: //depot/dev/client3/rdock/2013.1/src/exe/rbdock.cxx#4 $)

>  <Rbt.Library>
libRbt.so (2013.1, Build901 2013/11/27)

>  <Rbt.Parameter_File>
/export/apps/rDock/src/rDock_2013.1_src/data/scripts/dock_solv.prm

>  <Rbt.Receptor>
prm/pocket_docking_5.prm

>  <SCORE>
-10.7544

>  <SCORE.INTER>
-9.0213

>  <SCORE.INTER.CONST>
1

>  <SCORE.INTER.POLAR>
0

>  <SCORE.INTER.ROT>
5

>  <SCORE.INTER.SOLV>
13.9219

>  <SCORE.INTER.VDW>
-17.5882

>  <SCORE.INTER.norm>
-0.90213

>  <SCORE.INTRA>
-1.737

>  <SCORE.INTRA.DIHEDRAL>
-2.55976

>  <SCORE.INTRA.DIHEDRAL.0>
4.28128

>  <SCORE.INTRA.POLAR>
0

>  <SCORE.INTRA.POLAR.0>
0

>  <SCORE.INTRA.REPUL>
0

>  <SCORE.INTRA.REPUL.0>
0

>  <SCORE.INTRA.SOLV>
-0.468997

>  <SCORE.INTRA.SOLV.lig_0>
-32.3374

>  <SCORE.INTRA.VDW>
-0.222622

>  <SCORE.INTRA.VDW.0>
-0.659551

>  <SCORE.INTRA.norm>
-0.1737

>  <SCORE.RESTR>
0.00393478

>  <SCORE.RESTR.CAVITY>
0.00393478

>  <SCORE.RESTR.norm>
0.000393478

>  <SCORE.SYSTEM>
0

>  <SCORE.SYSTEM.CONST>
0

>  <SCORE.SYSTEM.DIHEDRAL>
0

>  <SCORE.SYSTEM.SOLV>
0

>  <SCORE.SYSTEM.norm>
0

>  <SCORE.heavy>
10

>  <SCORE.norm>
-1.07544

>  <RMSD>
5.679

$$$$
ligand
 OpenBabel11021811473D
libRbt.so/2013.1/901 2013/11/27
 10  9  0  0  0  0  0  0  0  0999 V2000
   28.5746   14.5416   19.2417 N   0  0  0  0  0  0  0  0  0  0  0  0
   28.1010   14.8094   20.6286 C   0  0  2  0  0  0  0  0  0  0  0  0
   26.5889   15.0263   20.6896 C   0  0  0  0  0  0  0  0  0  0  0  0
   25.9821   15.6490   19.8121 O   0  0  0  0  0  0  0  0  0  0  0  0
   28.8536   15.9932   21.2417 C   0  0  0  0  0  0  0  0  0  0  0  0
   30.3554   15.7781   21.3751 C   0  0  0  0  0  0  0  0  0  0  0  0
   31.0468   17.0346   21.9036 C   0  0  0  0  0  0  0  0  0  0  0  0
   32.5563   16.8486   22.0088 C   0  0  0  0  0  0  0  0  0  0  0  0
   33.2567   18.0743   22.4928 N   0  0  0  0  0  0  0  0  0  0  0  0
   25.9280   14.5587   21.6146 O   0  0  0  0  0  0  0  0  0  0  0  0
  2  1  1  6  0  0  0
  2  3  1  0  0  0  0
  2  5  1  0  0  0  0
  3  4  1  0  0  0  0
  3 10  1  0  0  0  0
  5  6  1  0  0  0  0
  6  7  1  0  0  0  0
  7  8  1  0  0  0  0
  8  9  1  0  0  0  0
M  END
>  <CHROM.1>
-38.63670704,-61.75561032,176.10035027,-178.50936580,178.65506451,29.07874309
15.82971425,21.09933278,-2.74023096,0.21119896,1.06788103

>  <Name>
ligand

>  <RI>
0

>  <Rbt.Current_Directory>
/home/itssahil/PROJECTS/Mol_Feturizer/New_Systems/rnas/3DJ2

>  <Rbt.Executable>
rbdock ($Id: //depot/dev/client3/rdock/2013.1/src/exe/rbdock.cxx#4 $)

>  <Rbt.Library>
libRbt.so (2013.1, Build901 2013/11/27)

>  <Rbt.Parameter_File>
/export/apps/rDock/src/rDock_2013.1_src/data/scripts/dock_solv.prm

>  <Rbt.Receptor>
prm/pocket_docking_8.prm

>  <SCORE>
-10.7464

>  <SCORE.INTER>
-9.00327

>  <SCORE.INTER.CONST>
1

>  <SCORE.INTER.POLAR>
0

>  <SCORE.INTER.ROT>
5

>  <SCORE.INTER.SOLV>
13.9279

>  <SCORE.INTER.VDW>
-17.5781

>  <SCORE.INTER.norm>
-0.900327

>  <SCORE.INTRA>
-1.74617

>  <SCORE.INTRA.DIHEDRAL>
-2.61883

>  <SCORE.INTRA.DIHEDRAL.0>
4.28128

>  <SCORE.INTRA.POLAR>
0

>  <SCORE.INTRA.POLAR.0>
0

>  <SCORE.INTRA.REPUL>
0

>  <SCORE.INTRA.REPUL.0>
0

>  <SCORE.INTRA.SOLV>
-0.448149

>  <SCORE.INTRA.SOLV.lig_0>
-32.3374

>  <SCORE.INTRA.VDW>
-0.212684

>  <SCORE.INTRA.VDW.0>
-0.659551

>  <SCORE.INTRA.norm>
-0.174617

>  <SCORE.RESTR>
0.00305043

>  <SCORE.RESTR.CAVITY>
0.00305043

>  <SCORE.RESTR.norm>
0.000305043

>  <SCORE.SYSTEM>
0

>  <SCORE.SYSTEM.CONST>
0

>  <SCORE.SYSTEM.DIHEDRAL>
0

>  <SCORE.SYSTEM.SOLV>
0

>  <SCORE.SYSTEM.norm>
0

>  <SCORE.heavy>
10

>  <SCORE.norm>
-1.07464

>  <RMSD>
5.679

$$$$
ligand
 OpenBabel11021811473D
libRbt.so/2013.1/901 2013/11/27
 10  9  0  0  0  0  0  0  0  0999 V2000
   28.5674   14.5410   19.2160 N   0  0  0  0  0  0  0  0  0  0  0  0
   28.1039   14.8097   20.6060 C   0  0  2  0  0  0  0  0  0  0  0  0
   26.5914   15.0202   20.6788 C   0  0  0  0  0  0  0  0  0  0  0  0
   25.9751   15.6395   19.8056 O   0  0  0  0  0  0  0  0  0  0  0  0
   28.8564   15.9980   21.2106 C   0  0  0  0  0  0  0  0  0  0  0  0
   30.3569   15.7807   21.3538 C   0  0  0  0  0  0  0  0  0  0  0  0
   31.0423   17.0257   21.9163 C   0  0  0  0  0  0  0  0  0  0  0  0
   32.5485   16.8310   22.0505 C   0  0  0  0  0  0  0  0  0  0  0  0
   33.2438   18.0462   22.5673 N   0  0  0  0  0  0  0  0  0  0  0  0
   25.9399   14.5508   21.6094 O   0  0  0  0  0  0  0  0  0  0  0  0
  2  1  1  6  0  0  0
  2  3  1  0  0  0  0
  2  5  1  0  0  0  0
  3  4  1  0  0  0  0
  3 10  1  0  0  0  0
  5  6  1  0  0  0  0
  6  7  1  0  0  0  0
  7  8  1  0  0  0  0
  8  9  1  0  0  0  0
M  END
>  <CHROM.1>
-38.69885753,-62.72137943,177.97798142,-179.31681480,178.61352783,29.07699224
15.82248823,21.10005954,-2.73432933,0.20946727,1.07847861

>  <Name>
ligand

>  <RI>
0

>  <Rbt.Current_Directory>
/home/itssahil/PROJECTS/Mol_Feturizer/New_Systems/rnas/3DJ2

>  <Rbt.Executable>
rbdock ($Id: //depot/dev/client3/rdock/2013.1/src/exe/rbdock.cxx#4 $)

>  <Rbt.Library>
libRbt.so (2013.1, Build901 2013/11/27)

>  <Rbt.Parameter_File>
/export/apps/rDock/src/rDock_2013.1_src/data/scripts/dock_solv.prm

>  <Rbt.Receptor>
prm/pocket_docking_4.prm

>  <SCORE>
-10.727

>  <SCORE.INTER>
-8.94457

>  <SCORE.INTER.CONST>
1

>  <SCORE.INTER.POLAR>
0

>  <SCORE.INTER.ROT>
5

>  <SCORE.INTER.SOLV>
13.9664

>  <SCORE.INTER.VDW>
-17.5519

>  <SCORE.INTER.norm>
-0.894457

>  <SCORE.INTRA>
-1.78242

>  <SCORE.INTRA.DIHEDRAL>
-2.65285

>  <SCORE.INTRA.DIHEDRAL.0>
4.28128

>  <SCORE.INTRA.POLAR>
0

>  <SCORE.INTRA.POLAR.0>
0

>  <SCORE.INTRA.REPUL>
0

>  <SCORE.INTRA.REPUL.0>
0

>  <SCORE.INTRA.SOLV>
-0.470483

>  <SCORE.INTRA.SOLV.lig_0>
-32.3374

>  <SCORE.INTRA.VDW>
-0.22075

>  <SCORE.INTRA.VDW.0>
-0.659551

>  <SCORE.INTRA.norm>
-0.178242

>  <SCORE.RESTR>
0

>  <SCORE.RESTR.CAVITY>
0

>  <SCORE.RESTR.norm>
0

>  <SCORE.SYSTEM>
0

>  <SCORE.SYSTEM.CONST>
0

>  <SCORE.SYSTEM.DIHEDRAL>
0

>  <SCORE.SYSTEM.SOLV>
0

>  <SCORE.SYSTEM.norm>
0

>  <SCORE.heavy>
10

>  <SCORE.norm>
-1.0727

>  <RMSD>
5.680

$$$$
ligand
 OpenBabel11021811473D
libRbt.so/2013.1/901 2013/11/27
 10  9  0  0  0  0  0  0  0  0999 V2000
   26.6955   14.4837   20.6146 N   0  0  0  0  0  0  0  0  0  0  0  0
   27.1226   15.2171   19.3903 C   0  0  2  0  0  0  0  0  0  0  0  0
   27.6833   14.2782   18.3220 C   0  0  0  0  0  0  0  0  0  0  0  0
   28.8898   14.2317   18.0610 O   0  0  0  0  0  0  0  0  0  0  0  0
   28.1265   16.3193   19.7385 C   0  0  0  0  0  0  0  0  0  0  0  0
   29.3277   15.8399   20.5426 C   0  0  0  0  0  0  0  0  0  0  0  0
   30.2521   17.0039   20.8985 C   0  0  0  0  0  0  0  0  0  0  0  0
   31.4372   16.5482   21.7425 C   0  0  0  0  0  0  0  0  0  0  0  0
   32.3390   17.6736   22.1267 N   0  0  0  0  0  0  0  0  0  0  0  0
   26.9389   13.5192   17.7051 O   0  0  0  0  0  0  0  0  0  0  0  0
  2  1  1  1  0  0  0
  2  3  1  0  0  0  0
  2  5  1  0  0  0  0
  3  4  1  0  0  0  0
  3 10  1  0  0  0  0
  5  6  1  0  0  0  0
  6  7  1  0  0  0  0
  7  8  1  0  0  0  0
  8  9  1  0  0  0  0
M  END
>  <CHROM.1>
-107.44931784,53.34657396,-177.70012738,178.15696138,-178.79044621,28.88373731
15.48529487,19.88349999,2.35402045,-0.20736345,-2.11953245

>  <Name>
ligand

>  <RI>
0

>  <Rbt.Current_Directory>
/home/itssahil/PROJECTS/Mol_Feturizer/New_Systems/rnas/3DJ2

>  <Rbt.Executable>
rbdock ($Id: //depot/dev/client3/rdock/2013.1/src/exe/rbdock.cxx#4 $)

>  <Rbt.Library>
libRbt.so (2013.1, Build901 2013/11/27)

>  <Rbt.Parameter_File>
/export/apps/rDock/src/rDock_2013.1_src/data/scripts/dock_solv.prm

>  <Rbt.Receptor>
prm/blind_docking_100.prm

>  <SCORE>
-9.72518

>  <SCORE.INTER>
-8.85579

>  <SCORE.INTER.CONST>
1

>  <SCORE.INTER.POLAR>
0

>  <SCORE.INTER.ROT>
5

>  <SCORE.INTER.SOLV>
15.1397

>  <SCORE.INTER.VDW>
-17.8838

>  <SCORE.INTER.norm>
-0.885579

>  <SCORE.INTRA>
-0.869391

>  <SCORE.INTRA.DIHEDRAL>
-2.55328

>  <SCORE.INTRA.DIHEDRAL.0>
4.28128

>  <SCORE.INTRA.POLAR>
0

>  <SCORE.INTRA.POLAR.0>
0

>  <SCORE.INTRA.REPUL>
0

>  <SCORE.INTRA.REPUL.0>
0

>  <SCORE.INTRA.SOLV>
-0.369591

>  <SCORE.INTRA.SOLV.lig_0>
-32.3374

>  <SCORE.INTRA.VDW>
0.592045

>  <SCORE.INTRA.VDW.0>
-0.659551

>  <SCORE.INTRA.norm>
-0.0869391

>  <SCORE.RESTR>
0

>  <SCORE.RESTR.CAVITY>
0

>  <SCORE.RESTR.norm>
0

>  <SCORE.SYSTEM>
0

>  <SCORE.SYSTEM.CONST>
0

>  <SCORE.SYSTEM.DIHEDRAL>
0

>  <SCORE.SYSTEM.SOLV>
0

>  <SCORE.SYSTEM.norm>
0

>  <SCORE.heavy>
10

>  <SCORE.norm>
-0.972518

>  <RMSD>
5.684

$$$$
ligand
 OpenBabel11021811473D
libRbt.so/2013.1/901 2013/11/27
 10  9  0  0  0  0  0  0  0  0999 V2000
   28.7728   16.1345   19.1635 N   0  0  0  0  0  0  0  0  0  0  0  0
   27.6340   15.1901   18.9888 C   0  0  2  0  0  0  0  0  0  0  0  0
   26.9918   14.8084   20.3226 C   0  0  0  0  0  0  0  0  0  0  0  0
   25.7920   14.9968   20.5478 O   0  0  0  0  0  0  0  0  0  0  0  0
   28.0726   13.9464   18.2112 C   0  0  0  0  0  0  0  0  0  0  0  0
   26.9296   13.0215   17.8144 C   0  0  0  0  0  0  0  0  0  0  0  0
   27.4578   11.6818   17.3023 C   0  0  0  0  0  0  0  0  0  0  0  0
   26.3889   10.5958   17.3507 C   0  0  0  0  0  0  0  0  0  0  0  0
   26.9112    9.2538   16.9590 N   0  0  0  0  0  0  0  0  0  0  0  0
   27.6590   14.2754   21.2067 O   0  0  0  0  0  0  0  0  0  0  0  0
  2  1  1  1  0  0  0
  2  3  1  0  0  0  0
  2  5  1  0  0  0  0
  3  4  1  0  0  0  0
  3 10  1  0  0  0  0
  5  6  1  0  0  0  0
  6  7  1  0  0  0  0
  7  8  1  0  0  0  0
  8  9  1  0  0  0  0
M  END
>  <CHROM.1>
122.73549018,-171.69807120,-168.44617809,160.55771363,-175.39474319,27.24702457
13.39238322,18.82197882,-1.41966877,-0.83754157,-2.48211742

>  <Name>
ligand

>  <RI>
0

>  <Rbt.Current_Directory>
/home/itssahil/PROJECTS/Mol_Feturizer/New_Systems/rnas/3DJ2

>  <Rbt.Executable>
rbdock ($Id: //depot/dev/client3/rdock/2013.1/src/exe/rbdock.cxx#4 $)

>  <Rbt.Library>
libRbt.so (2013.1, Build901 2013/11/27)

>  <Rbt.Parameter_File>
/export/apps/rDock/src/rDock_2013.1_src/data/scripts/dock_solv.prm

>  <Rbt.Receptor>
prm/blind_docking_60.prm

>  <SCORE>
-11.4344

>  <SCORE.INTER>
-10.3013

>  <SCORE.INTER.CONST>
1

>  <SCORE.INTER.POLAR>
0

>  <SCORE.INTER.ROT>
5

>  <SCORE.INTER.SOLV>
15.1532

>  <SCORE.INTER.VDW>
-18.852

>  <SCORE.INTER.norm>
-1.03013

>  <SCORE.INTRA>
-1.13376

>  <SCORE.INTRA.DIHEDRAL>
-0.43997

>  <SCORE.INTRA.DIHEDRAL.0>
4.28128

>  <SCORE.INTRA.POLAR>
0

>  <SCORE.INTRA.POLAR.0>
0

>  <SCORE.INTRA.REPUL>
0

>  <SCORE.INTRA.REPUL.0>
0

>  <SCORE.INTRA.SOLV>
-1.34492

>  <SCORE.INTRA.SOLV.lig_0>
-32.3374

>  <SCORE.INTRA.VDW>
-0.241313

>  <SCORE.INTRA.VDW.0>
-0.659551

>  <SCORE.INTRA.norm>
-0.113376

>  <SCORE.RESTR>
0.00065669

>  <SCORE.RESTR.CAVITY>
0.00065669

>  <SCORE.RESTR.norm>
6.5669e-05

>  <SCORE.SYSTEM>
0

>  <SCORE.SYSTEM.CONST>
0

>  <SCORE.SYSTEM.DIHEDRAL>
0

>  <SCORE.SYSTEM.SOLV>
0

>  <SCORE.SYSTEM.norm>
0

>  <SCORE.heavy>
10

>  <SCORE.norm>
-1.14344

>  <RMSD>
5.684

$$$$
ligand
 OpenBabel11021811473D
libRbt.so/2013.1/901 2013/11/27
 10  9  0  0  0  0  0  0  0  0999 V2000
   27.0381   15.5175   20.8616 N   0  0  0  0  0  0  0  0  0  0  0  0
   27.9530   15.8916   19.7470 C   0  0  2  0  0  0  0  0  0  0  0  0
   27.7486   15.0118   18.5135 C   0  0  0  0  0  0  0  0  0  0  0  0
   28.1693   15.3404   17.3995 O   0  0  0  0  0  0  0  0  0  0  0  0
   29.4124   15.8649   20.2085 C   0  0  0  0  0  0  0  0  0  0  0  0
   29.8071   17.0328   21.1027 C   0  0  0  0  0  0  0  0  0  0  0  0
   31.2880   16.9652   21.4750 C   0  0  0  0  0  0  0  0  0  0  0  0
   31.7166   18.1652   22.3122 C   0  0  0  0  0  0  0  0  0  0  0  0
   33.1583   18.1165   22.6950 N   0  0  0  0  0  0  0  0  0  0  0  0
   27.1732   13.9296   18.6070 O   0  0  0  0  0  0  0  0  0  0  0  0
  2  1  1  1  0  0  0
  2  3  1  0  0  0  0
  2  5  1  0  0  0  0
  3  4  1  0  0  0  0
  3 10  1  0  0  0  0
  5  6  1  0  0  0  0
  6  7  1  0  0  0  0
  7  8  1  0  0  0  0
  8  9  1  0  0  0  0
M  END
>  <CHROM.1>
162.88845659,-74.09285143,-177.74724489,177.11598976,179.64743412,29.33217770
16.15890517,20.25709140,2.42343186,-0.38573102,-1.85597782

>  <Name>
ligand

>  <RI>
0

>  <Rbt.Current_Directory>
/home/itssahil/PROJECTS/Mol_Feturizer/New_Systems/rnas/3DJ2

>  <Rbt.Executable>
rbdock ($Id: //depot/dev/client3/rdock/2013.1/src/exe/rbdock.cxx#4 $)

>  <Rbt.Library>
libRbt.so (2013.1, Build901 2013/11/27)

>  <Rbt.Parameter_File>
/export/apps/rDock/src/rDock_2013.1_src/data/scripts/dock_solv.prm

>  <Rbt.Receptor>
prm/pocket_docking_7.prm

>  <SCORE>
-8.67076

>  <SCORE.INTER>
-7.17736

>  <SCORE.INTER.CONST>
1

>  <SCORE.INTER.POLAR>
0

>  <SCORE.INTER.ROT>
5

>  <SCORE.INTER.SOLV>
15.8637

>  <SCORE.INTER.VDW>
-17.0061

>  <SCORE.INTER.norm>
-0.717736

>  <SCORE.INTRA>
-1.49386

>  <SCORE.INTRA.DIHEDRAL>
-1.96409

>  <SCORE.INTRA.DIHEDRAL.0>
4.28128

>  <SCORE.INTRA.POLAR>
0

>  <SCORE.INTRA.POLAR.0>
0

>  <SCORE.INTRA.REPUL>
0

>  <SCORE.INTRA.REPUL.0>
0

>  <SCORE.INTRA.SOLV>
-0.631298

>  <SCORE.INTRA.SOLV.lig_0>
-32.3374

>  <SCORE.INTRA.VDW>
-0.196168

>  <SCORE.INTRA.VDW.0>
-0.659551

>  <SCORE.INTRA.norm>
-0.149386

>  <SCORE.RESTR>
0.000455457

>  <SCORE.RESTR.CAVITY>
0.000455457

>  <SCORE.RESTR.norm>
4.55457e-05

>  <SCORE.SYSTEM>
0

>  <SCORE.SYSTEM.CONST>
0

>  <SCORE.SYSTEM.DIHEDRAL>
0

>  <SCORE.SYSTEM.SOLV>
0

>  <SCORE.SYSTEM.norm>
0

>  <SCORE.heavy>
10

>  <SCORE.norm>
-0.867076

>  <RMSD>
5.685

$$$$
ligand
 OpenBabel11021811473D
libRbt.so/2013.1/901 2013/11/27
 10  9  0  0  0  0  0  0  0  0999 V2000
   25.9385   14.7093   20.6787 N   0  0  0  0  0  0  0  0  0  0  0  0
   26.8946   15.4657   19.8224 C   0  0  2  0  0  0  0  0  0  0  0  0
   27.2844   14.6864   18.5663 C   0  0  0  0  0  0  0  0  0  0  0  0
   27.9103   15.2112   17.6397 O   0  0  0  0  0  0  0  0  0  0  0  0
   28.1328   15.8783   20.6226 C   0  0  0  0  0  0  0  0  0  0  0  0
   29.0311   16.8818   19.9116 C   0  0  0  0  0  0  0  0  0  0  0  0
   30.2765   17.1909   20.7420 C   0  0  0  0  0  0  0  0  0  0  0  0
   31.2753   16.0393   20.7149 C   0  0  0  0  0  0  0  0  0  0  0  0
   32.5191   16.3357   21.4845 N   0  0  0  0  0  0  0  0  0  0  0  0
   27.0006   13.4954   18.4574 O   0  0  0  0  0  0  0  0  0  0  0  0
  2  1  1  1  0  0  0
  2  3  1  0  0  0  0
  2  5  1  0  0  0  0
  3  4  1  0  0  0  0
  3 10  1  0  0  0  0
  5  6  1  0  0  0  0
  6  7  1  0  0  0  0
  7  8  1  0  0  0  0
  8  9  1  0  0  0  0
M  END
>  <CHROM.1>
169.41465127,-168.60181469,-177.22095237,74.13617742,178.20252831,28.62497094
15.56865741,19.83173355,2.62253869,-0.22251223,-1.99101088

>  <Name>
ligand

>  <RI>
0

>  <Rbt.Current_Directory>
/home/itssahil/PROJECTS/Mol_Feturizer/New_Systems/rnas/3DJ2

>  <Rbt.Executable>
rbdock ($Id: //depot/dev/client3/rdock/2013.1/src/exe/rbdock.cxx#4 $)

>  <Rbt.Library>
libRbt.so (2013.1, Build901 2013/11/27)

>  <Rbt.Parameter_File>
/export/apps/rDock/src/rDock_2013.1_src/data/scripts/dock_solv.prm

>  <Rbt.Receptor>
prm/pocket_docking_6.prm

>  <SCORE>
-8.77567

>  <SCORE.INTER>
-7.82354

>  <SCORE.INTER.CONST>
1

>  <SCORE.INTER.POLAR>
0

>  <SCORE.INTER.ROT>
5

>  <SCORE.INTER.SOLV>
18.062

>  <SCORE.INTER.VDW>
-18.1697

>  <SCORE.INTER.norm>
-0.782354

>  <SCORE.INTRA>
-0.952129

>  <SCORE.INTRA.DIHEDRAL>
-1.47537

>  <SCORE.INTRA.DIHEDRAL.0>
4.28128

>  <SCORE.INTRA.POLAR>
0

>  <SCORE.INTRA.POLAR.0>
0

>  <SCORE.INTRA.REPUL>
0

>  <SCORE.INTRA.REPUL.0>
0

>  <SCORE.INTRA.SOLV>
-1.136

>  <SCORE.INTRA.SOLV.lig_0>
-32.3374

>  <SCORE.INTRA.VDW>
0.353551

>  <SCORE.INTRA.VDW.0>
-0.659551

>  <SCORE.INTRA.norm>
-0.0952129

>  <SCORE.RESTR>
0

>  <SCORE.RESTR.CAVITY>
0

>  <SCORE.RESTR.norm>
0

>  <SCORE.SYSTEM>
0

>  <SCORE.SYSTEM.CONST>
0

>  <SCORE.SYSTEM.DIHEDRAL>
0

>  <SCORE.SYSTEM.SOLV>
0

>  <SCORE.SYSTEM.norm>
0

>  <SCORE.heavy>
10

>  <SCORE.norm>
-0.877567

>  <RMSD>
5.689

$$$$
ligand
 OpenBabel11021811473D
libRbt.so/2013.1/901 2013/11/27
 10  9  0  0  0  0  0  0  0  0999 V2000
   28.6159   13.9401   21.5296 N   0  0  0  0  0  0  0  0  0  0  0  0
   28.0324   15.3090   21.6004 C   0  0  2  0  0  0  0  0  0  0  0  0
   26.7645   15.4395   20.7563 C   0  0  0  0  0  0  0  0  0  0  0  0
   25.7371   14.8055   21.0179 O   0  0  0  0  0  0  0  0  0  0  0  0
   29.0694   16.3637   21.2058 C   0  0  0  0  0  0  0  0  0  0  0  0
   30.3428   16.3319   22.0405 C   0  0  0  0  0  0  0  0  0  0  0  0
   31.3407   17.3865   21.5628 C   0  0  0  0  0  0  0  0  0  0  0  0
   32.6540   17.3136   22.3338 C   0  0  0  0  0  0  0  0  0  0  0  0
   33.5986   18.4103   21.9701 N   0  0  0  0  0  0  0  0  0  0  0  0
   26.7293   16.2076   19.7973 O   0  0  0  0  0  0  0  0  0  0  0  0
  2  1  1  6  0  0  0
  2  3  1  0  0  0  0
  2  5  1  0  0  0  0
  3  4  1  0  0  0  0
  3 10  1  0  0  0  0
  5  6  1  0  0  0  0
  6  7  1  0  0  0  0
  7  8  1  0  0  0  0
  8  9  1  0  0  0  0
M  END
>  <CHROM.1>
64.75134147,-56.79638054,178.47879279,-176.61941673,-174.86910247,29.24756513
16.14891899,21.36149527,-2.88352183,-0.36102607,-0.47069000

>  <Name>
ligand

>  <RI>
0

>  <Rbt.Current_Directory>
/home/itssahil/PROJECTS/Mol_Feturizer/New_Systems/rnas/3DJ2

>  <Rbt.Executable>
rbdock ($Id: //depot/dev/client3/rdock/2013.1/src/exe/rbdock.cxx#4 $)

>  <Rbt.Library>
libRbt.so (2013.1, Build901 2013/11/27)

>  <Rbt.Parameter_File>
/export/apps/rDock/src/rDock_2013.1_src/data/scripts/dock_solv.prm

>  <Rbt.Receptor>
prm/pocket_docking_8.prm

>  <SCORE>
-7.93988

>  <SCORE.INTER>
-7.09711

>  <SCORE.INTER.CONST>
1

>  <SCORE.INTER.POLAR>
0

>  <SCORE.INTER.ROT>
5

>  <SCORE.INTER.SOLV>
18.048

>  <SCORE.INTER.VDW>
-17.6808

>  <SCORE.INTER.norm>
-0.709711

>  <SCORE.INTRA>
-0.842772

>  <SCORE.INTRA.DIHEDRAL>
-2.5607

>  <SCORE.INTRA.DIHEDRAL.0>
4.28128

>  <SCORE.INTRA.POLAR>
0

>  <SCORE.INTRA.POLAR.0>
0

>  <SCORE.INTRA.REPUL>
0

>  <SCORE.INTRA.REPUL.0>
0

>  <SCORE.INTRA.SOLV>
-0.41754

>  <SCORE.INTRA.SOLV.lig_0>
-32.3374

>  <SCORE.INTRA.VDW>
0.646348

>  <SCORE.INTRA.VDW.0>
-0.659551

>  <SCORE.INTRA.norm>
-0.0842772

>  <SCORE.RESTR>
0

>  <SCORE.RESTR.CAVITY>
0

>  <SCORE.RESTR.norm>
0

>  <SCORE.SYSTEM>
0

>  <SCORE.SYSTEM.CONST>
0

>  <SCORE.SYSTEM.DIHEDRAL>
0

>  <SCORE.SYSTEM.SOLV>
0

>  <SCORE.SYSTEM.norm>
0

>  <SCORE.heavy>
10

>  <SCORE.norm>
-0.793988

>  <RMSD>
5.703

$$$$
ligand
 OpenBabel11021811473D
libRbt.so/2013.1/901 2013/11/27
 10  9  0  0  0  0  0  0  0  0999 V2000
   26.7385   14.4775   20.6338 N   0  0  0  0  0  0  0  0  0  0  0  0
   27.0279   15.4089   19.5078 C   0  0  2  0  0  0  0  0  0  0  0  0
   27.5080   14.6708   18.2580 C   0  0  0  0  0  0  0  0  0  0  0  0
   28.2337   15.2122   17.4177 O   0  0  0  0  0  0  0  0  0  0  0  0
   28.0319   16.4831   19.9343 C   0  0  0  0  0  0  0  0  0  0  0  0
   29.3599   15.9334   20.4377 C   0  0  0  0  0  0  0  0  0  0  0  0
   30.2868   17.0614   20.8901 C   0  0  0  0  0  0  0  0  0  0  0  0
   31.6028   16.5256   21.4427 C   0  0  0  0  0  0  0  0  0  0  0  0
   32.4695   17.5990   22.0121 N   0  0  0  0  0  0  0  0  0  0  0  0
   27.1981   13.4964   18.0689 O   0  0  0  0  0  0  0  0  0  0  0  0
  2  1  1  1  0  0  0
  2  3  1  0  0  0  0
  2  5  1  0  0  0  0
  3  4  1  0  0  0  0
  3 10  1  0  0  0  0
  5  6  1  0  0  0  0
  6  7  1  0  0  0  0
  7  8  1  0  0  0  0
  8  9  1  0  0  0  0
M  END
>  <CHROM.1>
-153.41985160,57.96022459,-177.96545131,178.00941625,-174.44134370,28.84600294
15.66597340,19.82613851,2.48418845,-0.38840048,-1.83450097

>  <Name>
ligand

>  <RI>
0

>  <Rbt.Current_Directory>
/home/itssahil/PROJECTS/Mol_Feturizer/New_Systems/rnas/3DJ2

>  <Rbt.Executable>
rbdock ($Id: //depot/dev/client3/rdock/2013.1/src/exe/rbdock.cxx#4 $)

>  <Rbt.Library>
libRbt.so (2013.1, Build901 2013/11/27)

>  <Rbt.Parameter_File>
/export/apps/rDock/src/rDock_2013.1_src/data/scripts/dock_solv.prm

>  <Rbt.Receptor>
prm/pocket_docking_8.prm

>  <SCORE>
-9.74965

>  <SCORE.INTER>
-8.6461

>  <SCORE.INTER.CONST>
1

>  <SCORE.INTER.POLAR>
0

>  <SCORE.INTER.ROT>
5

>  <SCORE.INTER.SOLV>
15.3773

>  <SCORE.INTER.VDW>
-17.8232

>  <SCORE.INTER.norm>
-0.86461

>  <SCORE.INTRA>
-1.10355

>  <SCORE.INTRA.DIHEDRAL>
-2.5385

>  <SCORE.INTRA.DIHEDRAL.0>
4.28128

>  <SCORE.INTRA.POLAR>
0

>  <SCORE.INTRA.POLAR.0>
0

>  <SCORE.INTRA.REPUL>
0

>  <SCORE.INTRA.REPUL.0>
0

>  <SCORE.INTRA.SOLV>
-0.40498

>  <SCORE.INTRA.SOLV.lig_0>
-32.3374

>  <SCORE.INTRA.VDW>
0.368192

>  <SCORE.INTRA.VDW.0>
-0.659551

>  <SCORE.INTRA.norm>
-0.110355

>  <SCORE.RESTR>
0

>  <SCORE.RESTR.CAVITY>
0

>  <SCORE.RESTR.norm>
0

>  <SCORE.SYSTEM>
0

>  <SCORE.SYSTEM.CONST>
0

>  <SCORE.SYSTEM.DIHEDRAL>
0

>  <SCORE.SYSTEM.SOLV>
0

>  <SCORE.SYSTEM.norm>
0

>  <SCORE.heavy>
10

>  <SCORE.norm>
-0.974965

>  <RMSD>
5.709

$$$$
ligand
 OpenBabel11021811473D
libRbt.so/2013.1/901 2013/11/27
 10  9  0  0  0  0  0  0  0  0999 V2000
   26.3485   14.7318   20.7947 N   0  0  0  0  0  0  0  0  0  0  0  0
   26.9313   15.2901   19.5425 C   0  0  2  0  0  0  0  0  0  0  0  0
   27.5165   14.2008   18.6435 C   0  0  0  0  0  0  0  0  0  0  0  0
   28.6517   13.7472   18.8208 O   0  0  0  0  0  0  0  0  0  0  0  0
   27.9753   16.3640   19.8597 C   0  0  0  0  0  0  0  0  0  0  0  0
   29.0811   15.9029   20.8000 C   0  0  0  0  0  0  0  0  0  0  0  0
   30.1175   17.0058   21.0136 C   0  0  0  0  0  0  0  0  0  0  0  0
   31.2401   16.5556   21.9418 C   0  0  0  0  0  0  0  0  0  0  0  0
   32.2653   17.6170   22.1649 N   0  0  0  0  0  0  0  0  0  0  0  0
   26.8525   13.7269   17.7240 O   0  0  0  0  0  0  0  0  0  0  0  0
  2  1  1  1  0  0  0
  2  3  1  0  0  0  0
  2  5  1  0  0  0  0
  3  4  1  0  0  0  0
  3 10  1  0  0  0  0
  5  6  1  0  0  0  0
  6  7  1  0  0  0  0
  7  8  1  0  0  0  0
  8  9  1  0  0  0  0
M  END
>  <CHROM.1>
-82.82375568,54.54628399,177.24351035,-179.41198058,179.97380712,28.70085738
15.48469876,20.10366529,2.35833541,-0.05453549,-2.27991005

>  <Name>
ligand

>  <RI>
0

>  <Rbt.Current_Directory>
/home/itssahil/PROJECTS/Mol_Feturizer/New_Systems/rnas/3DJ2

>  <Rbt.Executable>
rbdock ($Id: //depot/dev/client3/rdock/2013.1/src/exe/rbdock.cxx#4 $)

>  <Rbt.Library>
libRbt.so (2013.1, Build901 2013/11/27)

>  <Rbt.Parameter_File>
/export/apps/rDock/src/rDock_2013.1_src/data/scripts/dock_solv.prm

>  <Rbt.Receptor>
prm/blind_docking_100.prm

>  <SCORE>
-9.57038

>  <SCORE.INTER>
-8.33083

>  <SCORE.INTER.CONST>
1

>  <SCORE.INTER.POLAR>
0

>  <SCORE.INTER.ROT>
5

>  <SCORE.INTER.SOLV>
16.1993

>  <SCORE.INTER.VDW>
-17.887

>  <SCORE.INTER.norm>
-0.833083

>  <SCORE.INTRA>
-1.23954

>  <SCORE.INTRA.DIHEDRAL>
-2.64062

>  <SCORE.INTRA.DIHEDRAL.0>
4.28128

>  <SCORE.INTRA.POLAR>
0

>  <SCORE.INTRA.POLAR.0>
0

>  <SCORE.INTRA.REPUL>
0

>  <SCORE.INTRA.REPUL.0>
0

>  <SCORE.INTRA.SOLV>
-0.410626

>  <SCORE.INTRA.SOLV.lig_0>
-32.3374

>  <SCORE.INTRA.VDW>
0.28608

>  <SCORE.INTRA.VDW.0>
-0.659551

>  <SCORE.INTRA.norm>
-0.123954

>  <SCORE.RESTR>
0

>  <SCORE.RESTR.CAVITY>
0

>  <SCORE.RESTR.norm>
0

>  <SCORE.SYSTEM>
0

>  <SCORE.SYSTEM.CONST>
0

>  <SCORE.SYSTEM.DIHEDRAL>
0

>  <SCORE.SYSTEM.SOLV>
0

>  <SCORE.SYSTEM.norm>
0

>  <SCORE.heavy>
10

>  <SCORE.norm>
-0.957038

>  <RMSD>
5.713

$$$$
ligand
 OpenBabel11021811473D
libRbt.so/2013.1/901 2013/11/27
 10  9  0  0  0  0  0  0  0  0999 V2000
   28.0435   14.4249   22.0227 N   0  0  0  0  0  0  0  0  0  0  0  0
   27.8681   15.5542   21.0671 C   0  0  2  0  0  0  0  0  0  0  0  0
   26.9041   15.2054   19.9330 C   0  0  0  0  0  0  0  0  0  0  0  0
   25.7490   15.6418   19.8998 O   0  0  0  0  0  0  0  0  0  0  0  0
   29.2202   16.0185   20.5192 C   0  0  0  0  0  0  0  0  0  0  0  0
   30.2097   16.4616   21.5888 C   0  0  0  0  0  0  0  0  0  0  0  0
   31.5560   16.8383   20.9711 C   0  0  0  0  0  0  0  0  0  0  0  0
   32.5695   17.2529   22.0320 C   0  0  0  0  0  0  0  0  0  0  0  0
   33.8791   17.6674   21.4485 N   0  0  0  0  0  0  0  0  0  0  0  0
   27.2686   14.4910   19.0015 O   0  0  0  0  0  0  0  0  0  0  0  0
  2  1  1  1  0  0  0
  2  3  1  0  0  0  0
  2  5  1  0  0  0  0
  3  4  1  0  0  0  0
  3 10  1  0  0  0  0
  5  6  1  0  0  0  0
  6  7  1  0  0  0  0
  7  8  1  0  0  0  0
  8  9  1  0  0  0  0
M  END
>  <CHROM.1>
104.41739529,-57.93702361,176.97145410,-178.64328497,-178.15665376,29.29254377
15.94429485,20.82056058,2.98552425,-0.39548058,-1.34441485

>  <Name>
ligand

>  <RI>
0

>  <Rbt.Current_Directory>
/home/itssahil/PROJECTS/Mol_Feturizer/New_Systems/rnas/3DJ2

>  <Rbt.Executable>
rbdock ($Id: //depot/dev/client3/rdock/2013.1/src/exe/rbdock.cxx#4 $)

>  <Rbt.Library>
libRbt.so (2013.1, Build901 2013/11/27)

>  <Rbt.Parameter_File>
/export/apps/rDock/src/rDock_2013.1_src/data/scripts/dock_solv.prm

>  <Rbt.Receptor>
prm/pocket_docking_3.prm

>  <SCORE>
-7.60186

>  <SCORE.INTER>
-6.12681

>  <SCORE.INTER.CONST>
1

>  <SCORE.INTER.POLAR>
0

>  <SCORE.INTER.ROT>
5

>  <SCORE.INTER.SOLV>
17.9321

>  <SCORE.INTER.VDW>
-16.9952

>  <SCORE.INTER.norm>
-0.612681

>  <SCORE.INTRA>
-1.47506

>  <SCORE.INTRA.DIHEDRAL>
-2.64924

>  <SCORE.INTRA.DIHEDRAL.0>
4.28128

>  <SCORE.INTRA.POLAR>
0

>  <SCORE.INTRA.POLAR.0>
0

>  <SCORE.INTRA.REPUL>
0

>  <SCORE.INTRA.REPUL.0>
0

>  <SCORE.INTRA.SOLV>
-0.426429

>  <SCORE.INTRA.SOLV.lig_0>
-32.3374

>  <SCORE.INTRA.VDW>
0.0627736

>  <SCORE.INTRA.VDW.0>
-0.659551

>  <SCORE.INTRA.norm>
-0.147506

>  <SCORE.RESTR>
0

>  <SCORE.RESTR.CAVITY>
0

>  <SCORE.RESTR.norm>
0

>  <SCORE.SYSTEM>
0

>  <SCORE.SYSTEM.CONST>
0

>  <SCORE.SYSTEM.DIHEDRAL>
0

>  <SCORE.SYSTEM.SOLV>
0

>  <SCORE.SYSTEM.norm>
0

>  <SCORE.heavy>
10

>  <SCORE.norm>
-0.760186

>  <RMSD>
5.713

$$$$
ligand
 OpenBabel11021811473D
libRbt.so/2013.1/901 2013/11/27
 10  9  0  0  0  0  0  0  0  0999 V2000
   26.3836   14.7112   20.8129 N   0  0  0  0  0  0  0  0  0  0  0  0
   26.9374   15.2848   19.5545 C   0  0  2  0  0  0  0  0  0  0  0  0
   27.5076   14.2074   18.6319 C   0  0  0  0  0  0  0  0  0  0  0  0
   26.8691   13.7645   17.6716 O   0  0  0  0  0  0  0  0  0  0  0  0
   27.9836   16.3597   19.8606 C   0  0  0  0  0  0  0  0  0  0  0  0
   29.0953   15.9022   20.7955 C   0  0  0  0  0  0  0  0  0  0  0  0
   30.1252   17.0110   21.0104 C   0  0  0  0  0  0  0  0  0  0  0  0
   31.2526   16.5652   21.9349 C   0  0  0  0  0  0  0  0  0  0  0  0
   32.2745   17.6305   22.1543 N   0  0  0  0  0  0  0  0  0  0  0  0
   28.6409   13.7669   18.8123 O   0  0  0  0  0  0  0  0  0  0  0  0
  2  1  1  1  0  0  0
  2  3  1  0  0  0  0
  2  5  1  0  0  0  0
  3  4  1  0  0  0  0
  3 10  1  0  0  0  0
  5  6  1  0  0  0  0
  6  7  1  0  0  0  0
  7  8  1  0  0  0  0
  8  9  1  0  0  0  0
M  END
>  <CHROM.1>
99.29636355,53.33701829,177.87679528,-179.49677520,179.72483924,28.70994063
15.49155940,20.09624511,2.35832402,-0.07547357,-2.25601219

>  <Name>
ligand

>  <RI>
0

>  <Rbt.Current_Directory>
/home/itssahil/PROJECTS/Mol_Feturizer/New_Systems/rnas/3DJ2

>  <Rbt.Executable>
rbdock ($Id: //depot/dev/client3/rdock/2013.1/src/exe/rbdock.cxx#4 $)

>  <Rbt.Library>
libRbt.so (2013.1, Build901 2013/11/27)

>  <Rbt.Parameter_File>
/export/apps/rDock/src/rDock_2013.1_src/data/scripts/dock_solv.prm

>  <Rbt.Receptor>
prm/pocket_docking_4.prm

>  <SCORE>
-9.47042

>  <SCORE.INTER>
-8.37479

>  <SCORE.INTER.CONST>
1

>  <SCORE.INTER.POLAR>
0

>  <SCORE.INTER.ROT>
5

>  <SCORE.INTER.SOLV>
16.1713

>  <SCORE.INTER.VDW>
-17.907

>  <SCORE.INTER.norm>
-0.837479

>  <SCORE.INTRA>
-1.09564

>  <SCORE.INTRA.DIHEDRAL>
-2.50314

>  <SCORE.INTRA.DIHEDRAL.0>
4.28128

>  <SCORE.INTRA.POLAR>
0

>  <SCORE.INTRA.POLAR.0>
0

>  <SCORE.INTRA.REPUL>
0

>  <SCORE.INTRA.REPUL.0>
0

>  <SCORE.INTRA.SOLV>
-0.404103

>  <SCORE.INTRA.SOLV.lig_0>
-32.3374

>  <SCORE.INTRA.VDW>
0.357987

>  <SCORE.INTRA.VDW.0>
-0.659551

>  <SCORE.INTRA.norm>
-0.109564

>  <SCORE.RESTR>
0

>  <SCORE.RESTR.CAVITY>
0

>  <SCORE.RESTR.norm>
0

>  <SCORE.SYSTEM>
0

>  <SCORE.SYSTEM.CONST>
0

>  <SCORE.SYSTEM.DIHEDRAL>
0

>  <SCORE.SYSTEM.SOLV>
0

>  <SCORE.SYSTEM.norm>
0

>  <SCORE.heavy>
10

>  <SCORE.norm>
-0.947042

>  <RMSD>
5.713

$$$$
ligand
 OpenBabel11021811473D
libRbt.so/2013.1/901 2013/11/27
 10  9  0  0  0  0  0  0  0  0999 V2000
   26.7299   14.4896   20.6352 N   0  0  0  0  0  0  0  0  0  0  0  0
   27.0315   15.4063   19.5003 C   0  0  2  0  0  0  0  0  0  0  0  0
   27.5148   14.6511   18.2621 C   0  0  0  0  0  0  0  0  0  0  0  0
   27.2360   13.4629   18.0712 O   0  0  0  0  0  0  0  0  0  0  0  0
   28.0391   16.4796   19.9205 C   0  0  0  0  0  0  0  0  0  0  0  0
   29.3635   15.9282   20.4317 C   0  0  0  0  0  0  0  0  0  0  0  0
   30.2805   17.0535   20.9102 C   0  0  0  0  0  0  0  0  0  0  0  0
   31.5933   16.5155   21.4683 C   0  0  0  0  0  0  0  0  0  0  0  0
   32.4812   17.5930   21.9955 N   0  0  0  0  0  0  0  0  0  0  0  0
   28.1821   15.2232   17.4028 O   0  0  0  0  0  0  0  0  0  0  0  0
  2  1  1  1  0  0  0
  2  3  1  0  0  0  0
  2  5  1  0  0  0  0
  3  4  1  0  0  0  0
  3 10  1  0  0  0  0
  5  6  1  0  0  0  0
  6  7  1  0  0  0  0
  7  8  1  0  0  0  0
  8  9  1  0  0  0  0
M  END
>  <CHROM.1>
23.77245344,58.25281009,-176.52458685,178.11296523,-177.55150722,28.84519178
15.65944808,19.82540769,2.48179590,-0.38804989,-1.83435826

>  <Name>
ligand

>  <RI>
0

>  <Rbt.Current_Directory>
/home/itssahil/PROJECTS/Mol_Feturizer/New_Systems/rnas/3DJ2

>  <Rbt.Executable>
rbdock ($Id: //depot/dev/client3/rdock/2013.1/src/exe/rbdock.cxx#4 $)

>  <Rbt.Library>
libRbt.so (2013.1, Build901 2013/11/27)

>  <Rbt.Parameter_File>
/export/apps/rDock/src/rDock_2013.1_src/data/scripts/dock_solv.prm

>  <Rbt.Receptor>
prm/pocket_docking_7.prm

>  <SCORE>
-9.8427

>  <SCORE.INTER>
-8.6713

>  <SCORE.INTER.CONST>
1

>  <SCORE.INTER.POLAR>
0

>  <SCORE.INTER.ROT>
5

>  <SCORE.INTER.SOLV>
15.4188

>  <SCORE.INTER.VDW>
-17.8538

>  <SCORE.INTER.norm>
-0.86713

>  <SCORE.INTRA>
-1.1714

>  <SCORE.INTRA.DIHEDRAL>
-2.69739

>  <SCORE.INTRA.DIHEDRAL.0>
4.28128

>  <SCORE.INTRA.POLAR>
0

>  <SCORE.INTRA.POLAR.0>
0

>  <SCORE.INTRA.REPUL>
0

>  <SCORE.INTRA.REPUL.0>
0

>  <SCORE.INTRA.SOLV>
-0.413691

>  <SCORE.INTRA.SOLV.lig_0>
-32.3374

>  <SCORE.INTRA.VDW>
0.384136

>  <SCORE.INTRA.VDW.0>
-0.659551

>  <SCORE.INTRA.norm>
-0.11714

>  <SCORE.RESTR>
0

>  <SCORE.RESTR.CAVITY>
0

>  <SCORE.RESTR.norm>
0

>  <SCORE.SYSTEM>
0

>  <SCORE.SYSTEM.CONST>
0

>  <SCORE.SYSTEM.DIHEDRAL>
0

>  <SCORE.SYSTEM.SOLV>
0

>  <SCORE.SYSTEM.norm>
0

>  <SCORE.heavy>
10

>  <SCORE.norm>
-0.98427

>  <RMSD>
5.713

$$$$
ligand
 OpenBabel11021811473D
libRbt.so/2013.1/901 2013/11/27
 10  9  0  0  0  0  0  0  0  0999 V2000
   28.7198   16.1555   19.1341 N   0  0  0  0  0  0  0  0  0  0  0  0
   27.5942   15.1948   18.9630 C   0  0  2  0  0  0  0  0  0  0  0  0
   26.9486   14.8197   20.2971 C   0  0  0  0  0  0  0  0  0  0  0  0
   25.7506   15.0195   20.5224 O   0  0  0  0  0  0  0  0  0  0  0  0
   28.0535   13.9482   18.2022 C   0  0  0  0  0  0  0  0  0  0  0  0
   26.9261   12.9992   17.8181 C   0  0  0  0  0  0  0  0  0  0  0  0
   27.4767   11.6648   17.3156 C   0  0  0  0  0  0  0  0  0  0  0  0
   26.4097   10.5759   17.3157 C   0  0  0  0  0  0  0  0  0  0  0  0
   26.9537    9.2345   16.9521 N   0  0  0  0  0  0  0  0  0  0  0  0
   27.6108   14.2808   21.1814 O   0  0  0  0  0  0  0  0  0  0  0  0
  2  1  1  1  0  0  0
  2  3  1  0  0  0  0
  2  5  1  0  0  0  0
  3  4  1  0  0  0  0
  3 10  1  0  0  0  0
  5  6  1  0  0  0  0
  6  7  1  0  0  0  0
  7  8  1  0  0  0  0
  8  9  1  0  0  0  0
M  END
>  <CHROM.1>
121.27533160,-172.14042238,-168.79806598,163.25748844,-174.58607190,27.23017305
13.39140197,18.80538688,-1.44215719,-0.83545473,-2.50477239

>  <Name>
ligand

>  <RI>
0

>  <Rbt.Current_Directory>
/home/itssahil/PROJECTS/Mol_Feturizer/New_Systems/rnas/3DJ2

>  <Rbt.Executable>
rbdock ($Id: //depot/dev/client3/rdock/2013.1/src/exe/rbdock.cxx#4 $)

>  <Rbt.Library>
libRbt.so (2013.1, Build901 2013/11/27)

>  <Rbt.Parameter_File>
/export/apps/rDock/src/rDock_2013.1_src/data/scripts/dock_solv.prm

>  <Rbt.Receptor>
prm/blind_docking_60.prm

>  <SCORE>
-11.4759

>  <SCORE.INTER>
-10.1709

>  <SCORE.INTER.CONST>
1

>  <SCORE.INTER.POLAR>
0

>  <SCORE.INTER.ROT>
5

>  <SCORE.INTER.SOLV>
15.3992

>  <SCORE.INTER.VDW>
-18.847

>  <SCORE.INTER.norm>
-1.01709

>  <SCORE.INTRA>
-1.30504

>  <SCORE.INTRA.DIHEDRAL>
-0.814566

>  <SCORE.INTRA.DIHEDRAL.0>
4.28128

>  <SCORE.INTRA.POLAR>
0

>  <SCORE.INTRA.POLAR.0>
0

>  <SCORE.INTRA.REPUL>
0

>  <SCORE.INTRA.REPUL.0>
0

>  <SCORE.INTRA.SOLV>
-1.34577

>  <SCORE.INTRA.SOLV.lig_0>
-32.3374

>  <SCORE.INTRA.VDW>
-0.224874

>  <SCORE.INTRA.VDW.0>
-0.659551

>  <SCORE.INTRA.norm>
-0.130504

>  <SCORE.RESTR>
0

>  <SCORE.RESTR.CAVITY>
0

>  <SCORE.RESTR.norm>
0

>  <SCORE.SYSTEM>
0

>  <SCORE.SYSTEM.CONST>
0

>  <SCORE.SYSTEM.DIHEDRAL>
0

>  <SCORE.SYSTEM.SOLV>
0

>  <SCORE.SYSTEM.norm>
0

>  <SCORE.heavy>
10

>  <SCORE.norm>
-1.14759

>  <RMSD>
5.714

$$$$
ligand
 OpenBabel11021811473D
libRbt.so/2013.1/901 2013/11/27
 10  9  0  0  0  0  0  0  0  0999 V2000
   26.7643   14.4347   20.6135 N   0  0  0  0  0  0  0  0  0  0  0  0
   27.0296   15.3817   19.4945 C   0  0  2  0  0  0  0  0  0  0  0  0
   27.5028   14.6628   18.2309 C   0  0  0  0  0  0  0  0  0  0  0  0
   28.2427   15.2092   17.4065 O   0  0  0  0  0  0  0  0  0  0  0  0
   28.0266   16.4624   19.9208 C   0  0  0  0  0  0  0  0  0  0  0  0
   29.3807   15.9244   20.3641 C   0  0  0  0  0  0  0  0  0  0  0  0
   30.2772   17.0488   20.8818 C   0  0  0  0  0  0  0  0  0  0  0  0
   31.6379   16.5272   21.3300 C   0  0  0  0  0  0  0  0  0  0  0  0
   32.5075   17.5980   21.8997 N   0  0  0  0  0  0  0  0  0  0  0  0
   27.1724   13.4988   18.0142 O   0  0  0  0  0  0  0  0  0  0  0  0
  2  1  1  1  0  0  0
  2  3  1  0  0  0  0
  2  5  1  0  0  0  0
  3  4  1  0  0  0  0
  3 10  1  0  0  0  0
  5  6  1  0  0  0  0
  6  7  1  0  0  0  0
  7  8  1  0  0  0  0
  8  9  1  0  0  0  0
M  END
>  <CHROM.1>
-151.35185231,59.63560160,-175.30508239,-179.99583751,-177.29096688,28.85422824
15.65433967,19.78126541,2.49622773,-0.38971548,-1.83746850

>  <Name>
ligand

>  <RI>
0

>  <Rbt.Current_Directory>
/home/itssahil/PROJECTS/Mol_Feturizer/New_Systems/rnas/3DJ2

>  <Rbt.Executable>
rbdock ($Id: //depot/dev/client3/rdock/2013.1/src/exe/rbdock.cxx#4 $)

>  <Rbt.Library>
libRbt.so (2013.1, Build901 2013/11/27)

>  <Rbt.Parameter_File>
/export/apps/rDock/src/rDock_2013.1_src/data/scripts/dock_solv.prm

>  <Rbt.Receptor>
prm/pocket_docking_5.prm

>  <SCORE>
-9.74136

>  <SCORE.INTER>
-8.64561

>  <SCORE.INTER.CONST>
1

>  <SCORE.INTER.POLAR>
0

>  <SCORE.INTER.ROT>
5

>  <SCORE.INTER.SOLV>
15.3853

>  <SCORE.INTER.VDW>
-17.8255

>  <SCORE.INTER.norm>
-0.864561

>  <SCORE.INTRA>
-1.09575

>  <SCORE.INTRA.DIHEDRAL>
-2.58794

>  <SCORE.INTRA.DIHEDRAL.0>
4.28128

>  <SCORE.INTRA.POLAR>
0

>  <SCORE.INTRA.POLAR.0>
0

>  <SCORE.INTRA.REPUL>
0

>  <SCORE.INTRA.REPUL.0>
0

>  <SCORE.INTRA.SOLV>
-0.41353

>  <SCORE.INTRA.SOLV.lig_0>
-32.3374

>  <SCORE.INTRA.VDW>
0.40498

>  <SCORE.INTRA.VDW.0>
-0.659551

>  <SCORE.INTRA.norm>
-0.109575

>  <SCORE.RESTR>
0

>  <SCORE.RESTR.CAVITY>
0

>  <SCORE.RESTR.norm>
0

>  <SCORE.SYSTEM>
0

>  <SCORE.SYSTEM.CONST>
0

>  <SCORE.SYSTEM.DIHEDRAL>
0

>  <SCORE.SYSTEM.SOLV>
0

>  <SCORE.SYSTEM.norm>
0

>  <SCORE.heavy>
10

>  <SCORE.norm>
-0.974136

>  <RMSD>
5.716

$$$$
ligand
 OpenBabel11021811473D
libRbt.so/2013.1/901 2013/11/27
 10  9  0  0  0  0  0  0  0  0999 V2000
   26.7798   14.4378   20.6185 N   0  0  0  0  0  0  0  0  0  0  0  0
   27.0306   15.3810   19.4930 C   0  0  2  0  0  0  0  0  0  0  0  0
   27.4881   14.6580   18.2260 C   0  0  0  0  0  0  0  0  0  0  0  0
   28.2330   15.1952   17.4000 O   0  0  0  0  0  0  0  0  0  0  0  0
   28.0323   16.4636   19.9031 C   0  0  0  0  0  0  0  0  0  0  0  0
   29.3810   15.9260   20.3629 C   0  0  0  0  0  0  0  0  0  0  0  0
   30.2845   17.0554   20.8570 C   0  0  0  0  0  0  0  0  0  0  0  0
   31.6253   16.5300   21.3577 C   0  0  0  0  0  0  0  0  0  0  0  0
   32.4548   17.5884   22.0050 N   0  0  0  0  0  0  0  0  0  0  0  0
   27.1396   13.4996   18.0079 O   0  0  0  0  0  0  0  0  0  0  0  0
  2  1  1  1  0  0  0
  2  3  1  0  0  0  0
  2  5  1  0  0  0  0
  3  4  1  0  0  0  0
  3 10  1  0  0  0  0
  5  6  1  0  0  0  0
  6  7  1  0  0  0  0
  7  8  1  0  0  0  0
  8  9  1  0  0  0  0
M  END
>  <CHROM.1>
-150.28622574,58.24368008,-175.56928746,178.40856497,-172.65435701,28.84463689
15.65292632,19.78862133,2.49050672,-0.39851749,-1.82265695

>  <Name>
ligand

>  <RI>
0

>  <Rbt.Current_Directory>
/home/itssahil/PROJECTS/Mol_Feturizer/New_Systems/rnas/3DJ2

>  <Rbt.Executable>
rbdock ($Id: //depot/dev/client3/rdock/2013.1/src/exe/rbdock.cxx#4 $)

>  <Rbt.Library>
libRbt.so (2013.1, Build901 2013/11/27)

>  <Rbt.Parameter_File>
/export/apps/rDock/src/rDock_2013.1_src/data/scripts/dock_solv.prm

>  <Rbt.Receptor>
prm/pocket_docking_4.prm

>  <SCORE>
-9.75349

>  <SCORE.INTER>
-8.76903

>  <SCORE.INTER.CONST>
1

>  <SCORE.INTER.POLAR>
0

>  <SCORE.INTER.ROT>
5

>  <SCORE.INTER.SOLV>
15.2176

>  <SCORE.INTER.VDW>
-17.8519

>  <SCORE.INTER.norm>
-0.876903

>  <SCORE.INTRA>
-0.984462

>  <SCORE.INTRA.DIHEDRAL>
-2.39788

>  <SCORE.INTRA.DIHEDRAL.0>
4.28128

>  <SCORE.INTRA.POLAR>
0

>  <SCORE.INTRA.POLAR.0>
0

>  <SCORE.INTRA.REPUL>
0

>  <SCORE.INTRA.REPUL.0>
0

>  <SCORE.INTRA.SOLV>
-0.395289

>  <SCORE.INTRA.SOLV.lig_0>
-32.3374

>  <SCORE.INTRA.VDW>
0.412123

>  <SCORE.INTRA.VDW.0>
-0.659551

>  <SCORE.INTRA.norm>
-0.0984462

>  <SCORE.RESTR>
3.71521e-06

>  <SCORE.RESTR.CAVITY>
3.71521e-06

>  <SCORE.RESTR.norm>
3.71521e-07

>  <SCORE.SYSTEM>
0

>  <SCORE.SYSTEM.CONST>
0

>  <SCORE.SYSTEM.DIHEDRAL>
0

>  <SCORE.SYSTEM.SOLV>
0

>  <SCORE.SYSTEM.norm>
0

>  <SCORE.heavy>
10

>  <SCORE.norm>
-0.975349

>  <RMSD>
5.722

$$$$
ligand
 OpenBabel11021811473D
libRbt.so/2013.1/901 2013/11/27
 10  9  0  0  0  0  0  0  0  0999 V2000
   26.7346   14.4824   20.6340 N   0  0  0  0  0  0  0  0  0  0  0  0
   27.0275   15.3951   19.4936 C   0  0  2  0  0  0  0  0  0  0  0  0
   27.4884   14.6345   18.2501 C   0  0  0  0  0  0  0  0  0  0  0  0
   28.2521   15.1395   17.4209 O   0  0  0  0  0  0  0  0  0  0  0  0
   28.0486   16.4615   19.8984 C   0  0  0  0  0  0  0  0  0  0  0  0
   29.3930   15.9026   20.3452 C   0  0  0  0  0  0  0  0  0  0  0  0
   30.3282   17.0202   20.8062 C   0  0  0  0  0  0  0  0  0  0  0  0
   31.6805   16.4778   21.2549 C   0  0  0  0  0  0  0  0  0  0  0  0
   32.5912   17.5457   21.7624 N   0  0  0  0  0  0  0  0  0  0  0  0
   27.1234   13.4770   18.0554 O   0  0  0  0  0  0  0  0  0  0  0  0
  2  1  1  1  0  0  0
  2  3  1  0  0  0  0
  2  5  1  0  0  0  0
  3  4  1  0  0  0  0
  3 10  1  0  0  0  0
  5  6  1  0  0  0  0
  6  7  1  0  0  0  0
  7  8  1  0  0  0  0
  8  9  1  0  0  0  0
M  END
>  <CHROM.1>
-150.85379029,60.33259702,-176.81549635,-179.89916773,-177.64202352,28.86638238
15.63231750,19.75844532,2.51191710,-0.36235865,-1.87035186

>  <Name>
ligand

>  <RI>
0

>  <Rbt.Current_Directory>
/home/itssahil/PROJECTS/Mol_Feturizer/New_Systems/rnas/3DJ2

>  <Rbt.Executable>
rbdock ($Id: //depot/dev/client3/rdock/2013.1/src/exe/rbdock.cxx#4 $)

>  <Rbt.Library>
libRbt.so (2013.1, Build901 2013/11/27)

>  <Rbt.Parameter_File>
/export/apps/rDock/src/rDock_2013.1_src/data/scripts/dock_solv.prm

>  <Rbt.Receptor>
prm/pocket_docking_6.prm

>  <SCORE>
-9.75207

>  <SCORE.INTER>
-8.6296

>  <SCORE.INTER.CONST>
1

>  <SCORE.INTER.POLAR>
0

>  <SCORE.INTER.ROT>
5

>  <SCORE.INTER.SOLV>
15.6267

>  <SCORE.INTER.VDW>
-17.8953

>  <SCORE.INTER.norm>
-0.86296

>  <SCORE.INTRA>
-1.12247

>  <SCORE.INTRA.DIHEDRAL>
-2.64592

>  <SCORE.INTRA.DIHEDRAL.0>
4.28128

>  <SCORE.INTRA.POLAR>
0

>  <SCORE.INTRA.POLAR.0>
0

>  <SCORE.INTRA.REPUL>
0

>  <SCORE.INTRA.REPUL.0>
0

>  <SCORE.INTRA.SOLV>
-0.43076

>  <SCORE.INTRA.SOLV.lig_0>
-32.3374

>  <SCORE.INTRA.VDW>
0.41587

>  <SCORE.INTRA.VDW.0>
-0.659551

>  <SCORE.INTRA.norm>
-0.112247

>  <SCORE.RESTR>
0

>  <SCORE.RESTR.CAVITY>
0

>  <SCORE.RESTR.norm>
0

>  <SCORE.SYSTEM>
0

>  <SCORE.SYSTEM.CONST>
0

>  <SCORE.SYSTEM.DIHEDRAL>
0

>  <SCORE.SYSTEM.SOLV>
0

>  <SCORE.SYSTEM.norm>
0

>  <SCORE.heavy>
10

>  <SCORE.norm>
-0.975207

>  <RMSD>
5.724

$$$$
ligand
 OpenBabel11021811473D
libRbt.so/2013.1/901 2013/11/27
 10  9  0  0  0  0  0  0  0  0999 V2000
   26.3369   14.6471   20.7049 N   0  0  0  0  0  0  0  0  0  0  0  0
   26.9096   15.2369   19.4625 C   0  0  2  0  0  0  0  0  0  0  0  0
   27.4937   14.1714   18.5347 C   0  0  0  0  0  0  0  0  0  0  0  0
   26.8379   13.6783   17.6114 O   0  0  0  0  0  0  0  0  0  0  0  0
   27.9511   16.3076   19.7982 C   0  0  0  0  0  0  0  0  0  0  0  0
   29.0474   15.8385   20.7455 C   0  0  0  0  0  0  0  0  0  0  0  0
   30.0706   16.9462   20.9950 C   0  0  0  0  0  0  0  0  0  0  0  0
   31.1835   16.4886   21.9311 C   0  0  0  0  0  0  0  0  0  0  0  0
   32.2236   17.5368   22.1471 N   0  0  0  0  0  0  0  0  0  0  0  0
   28.6546   13.7918   18.6729 O   0  0  0  0  0  0  0  0  0  0  0  0
  2  1  1  1  0  0  0
  2  3  1  0  0  0  0
  2  5  1  0  0  0  0
  3  4  1  0  0  0  0
  3 10  1  0  0  0  0
  5  6  1  0  0  0  0
  6  7  1  0  0  0  0
  7  8  1  0  0  0  0
  8  9  1  0  0  0  0
M  END
>  <CHROM.1>
94.51178393,53.24419133,178.13078652,-179.43149706,177.75045022,28.67425047
15.43589182,20.03237773,2.34986244,-0.07293980,-2.24075991

>  <Name>
ligand

>  <RI>
0

>  <Rbt.Current_Directory>
/home/itssahil/PROJECTS/Mol_Feturizer/New_Systems/rnas/3DJ2

>  <Rbt.Executable>
rbdock ($Id: //depot/dev/client3/rdock/2013.1/src/exe/rbdock.cxx#4 $)

>  <Rbt.Library>
libRbt.so (2013.1, Build901 2013/11/27)

>  <Rbt.Parameter_File>
/export/apps/rDock/src/rDock_2013.1_src/data/scripts/dock_solv.prm

>  <Rbt.Receptor>
prm/pocket_docking_4.prm

>  <SCORE>
-9.52952

>  <SCORE.INTER>
-8.53821

>  <SCORE.INTER.CONST>
1

>  <SCORE.INTER.POLAR>
0

>  <SCORE.INTER.ROT>
5

>  <SCORE.INTER.SOLV>
15.9743

>  <SCORE.INTER.VDW>
-17.9502

>  <SCORE.INTER.norm>
-0.853821

>  <SCORE.INTRA>
-0.991308

>  <SCORE.INTRA.DIHEDRAL>
-2.47983

>  <SCORE.INTRA.DIHEDRAL.0>
4.28128

>  <SCORE.INTRA.POLAR>
0

>  <SCORE.INTRA.POLAR.0>
0

>  <SCORE.INTRA.REPUL>
0

>  <SCORE.INTRA.REPUL.0>
0

>  <SCORE.INTRA.SOLV>
-0.402604

>  <SCORE.INTRA.SOLV.lig_0>
-32.3374

>  <SCORE.INTRA.VDW>
0.449907

>  <SCORE.INTRA.VDW.0>
-0.659551

>  <SCORE.INTRA.norm>
-0.0991308

>  <SCORE.RESTR>
0

>  <SCORE.RESTR.CAVITY>
0

>  <SCORE.RESTR.norm>
0

>  <SCORE.SYSTEM>
0

>  <SCORE.SYSTEM.CONST>
0

>  <SCORE.SYSTEM.DIHEDRAL>
0

>  <SCORE.SYSTEM.SOLV>
0

>  <SCORE.SYSTEM.norm>
0

>  <SCORE.heavy>
10

>  <SCORE.norm>
-0.952952

>  <RMSD>
5.733

$$$$
ligand
 OpenBabel11021811473D
libRbt.so/2013.1/901 2013/11/27
 10  9  0  0  0  0  0  0  0  0999 V2000
   26.7131   14.5947   20.7168 N   0  0  0  0  0  0  0  0  0  0  0  0
   27.0387   15.4704   19.5565 C   0  0  2  0  0  0  0  0  0  0  0  0
   27.4343   14.6644   18.3191 C   0  0  0  0  0  0  0  0  0  0  0  0
   27.1190   13.4778   18.1839 O   0  0  0  0  0  0  0  0  0  0  0  0
   28.1257   16.4828   19.9267 C   0  0  0  0  0  0  0  0  0  0  0  0
   29.4328   15.8548   20.3921 C   0  0  0  0  0  0  0  0  0  0  0  0
   30.4668   16.9266   20.7361 C   0  0  0  0  0  0  0  0  0  0  0  0
   31.7961   16.3145   21.1636 C   0  0  0  0  0  0  0  0  0  0  0  0
   32.8045   17.3417   21.5577 N   0  0  0  0  0  0  0  0  0  0  0  0
   28.0644   15.1926   17.4053 O   0  0  0  0  0  0  0  0  0  0  0  0
  2  1  1  1  0  0  0
  2  3  1  0  0  0  0
  2  5  1  0  0  0  0
  3  4  1  0  0  0  0
  3 10  1  0  0  0  0
  5  6  1  0  0  0  0
  6  7  1  0  0  0  0
  7  8  1  0  0  0  0
  8  9  1  0  0  0  0
M  END
>  <CHROM.1>
20.81144442,59.00718135,179.73404834,-178.26969490,-177.67432686,28.89695410
15.61066265,19.76225998,2.56689806,-0.32673302,-1.85549694

>  <Name>
ligand

>  <RI>
0

>  <Rbt.Current_Directory>
/home/itssahil/PROJECTS/Mol_Feturizer/New_Systems/rnas/3DJ2

>  <Rbt.Executable>
rbdock ($Id: //depot/dev/client3/rdock/2013.1/src/exe/rbdock.cxx#4 $)

>  <Rbt.Library>
libRbt.so (2013.1, Build901 2013/11/27)

>  <Rbt.Parameter_File>
/export/apps/rDock/src/rDock_2013.1_src/data/scripts/dock_solv.prm

>  <Rbt.Receptor>
prm/pocket_docking_5.prm

>  <SCORE>
-9.86259

>  <SCORE.INTER>
-8.59862

>  <SCORE.INTER.CONST>
1

>  <SCORE.INTER.POLAR>
0

>  <SCORE.INTER.ROT>
5

>  <SCORE.INTER.SOLV>
16.0039

>  <SCORE.INTER.VDW>
-18.0004

>  <SCORE.INTER.norm>
-0.859862

>  <SCORE.INTRA>
-1.26397

>  <SCORE.INTRA.DIHEDRAL>
-2.7588

>  <SCORE.INTRA.DIHEDRAL.0>
4.28128

>  <SCORE.INTRA.POLAR>
0

>  <SCORE.INTRA.POLAR.0>
0

>  <SCORE.INTRA.REPUL>
0

>  <SCORE.INTRA.REPUL.0>
0

>  <SCORE.INTRA.SOLV>
-0.440809

>  <SCORE.INTRA.SOLV.lig_0>
-32.3374

>  <SCORE.INTRA.VDW>
0.335831

>  <SCORE.INTRA.VDW.0>
-0.659551

>  <SCORE.INTRA.norm>
-0.126397

>  <SCORE.RESTR>
0

>  <SCORE.RESTR.CAVITY>
0

>  <SCORE.RESTR.norm>
0

>  <SCORE.SYSTEM>
0

>  <SCORE.SYSTEM.CONST>
0

>  <SCORE.SYSTEM.DIHEDRAL>
0

>  <SCORE.SYSTEM.SOLV>
0

>  <SCORE.SYSTEM.norm>
0

>  <SCORE.heavy>
10

>  <SCORE.norm>
-0.986259

>  <RMSD>
5.734

$$$$
ligand
 OpenBabel11021811473D
libRbt.so/2013.1/901 2013/11/27
 10  9  0  0  0  0  0  0  0  0999 V2000
   26.7494   14.4423   20.6240 N   0  0  0  0  0  0  0  0  0  0  0  0
   27.0040   15.4115   19.5217 C   0  0  2  0  0  0  0  0  0  0  0  0
   27.4191   14.7147   18.2258 C   0  0  0  0  0  0  0  0  0  0  0  0
   28.1819   15.2470   17.4130 O   0  0  0  0  0  0  0  0  0  0  0  0
   28.0412   16.4555   19.9438 C   0  0  0  0  0  0  0  0  0  0  0  0
   29.3923   15.8721   20.3357 C   0  0  0  0  0  0  0  0  0  0  0  0
   30.3519   16.9680   20.7986 C   0  0  0  0  0  0  0  0  0  0  0  0
   31.7102   16.4006   21.1955 C   0  0  0  0  0  0  0  0  0  0  0  0
   32.6388   17.4425   21.7241 N   0  0  0  0  0  0  0  0  0  0  0  0
   27.0164   13.5820   17.9695 O   0  0  0  0  0  0  0  0  0  0  0  0
  2  1  1  1  0  0  0
  2  3  1  0  0  0  0
  2  5  1  0  0  0  0
  3  4  1  0  0  0  0
  3 10  1  0  0  0  0
  5  6  1  0  0  0  0
  6  7  1  0  0  0  0
  7  8  1  0  0  0  0
  8  9  1  0  0  0  0
M  END
>  <CHROM.1>
-148.94124084,59.38322945,-177.64029421,179.97780296,-176.75801446,28.84891747
15.63403075,19.74045795,2.54464334,-0.36912693,-1.80760512

>  <Name>
ligand

>  <RI>
0

>  <Rbt.Current_Directory>
/home/itssahil/PROJECTS/Mol_Feturizer/New_Systems/rnas/3DJ2

>  <Rbt.Executable>
rbdock ($Id: //depot/dev/client3/rdock/2013.1/src/exe/rbdock.cxx#4 $)

>  <Rbt.Library>
libRbt.so (2013.1, Build901 2013/11/27)

>  <Rbt.Parameter_File>
/export/apps/rDock/src/rDock_2013.1_src/data/scripts/dock_solv.prm

>  <Rbt.Receptor>
prm/pocket_docking_6.prm

>  <SCORE>
-9.73837

>  <SCORE.INTER>
-8.64087

>  <SCORE.INTER.CONST>
1

>  <SCORE.INTER.POLAR>
0

>  <SCORE.INTER.ROT>
5

>  <SCORE.INTER.SOLV>
15.6988

>  <SCORE.INTER.VDW>
-17.9268

>  <SCORE.INTER.norm>
-0.864087

>  <SCORE.INTRA>
-1.0975

>  <SCORE.INTRA.DIHEDRAL>
-2.6425

>  <SCORE.INTRA.DIHEDRAL.0>
4.28128

>  <SCORE.INTRA.POLAR>
0

>  <SCORE.INTRA.POLAR.0>
0

>  <SCORE.INTRA.REPUL>
0

>  <SCORE.INTRA.REPUL.0>
0

>  <SCORE.INTRA.SOLV>
-0.423697

>  <SCORE.INTRA.SOLV.lig_0>
-32.3374

>  <SCORE.INTRA.VDW>
0.435599

>  <SCORE.INTRA.VDW.0>
-0.659551

>  <SCORE.INTRA.norm>
-0.10975

>  <SCORE.RESTR>
0

>  <SCORE.RESTR.CAVITY>
0

>  <SCORE.RESTR.norm>
0

>  <SCORE.SYSTEM>
0

>  <SCORE.SYSTEM.CONST>
0

>  <SCORE.SYSTEM.DIHEDRAL>
0

>  <SCORE.SYSTEM.SOLV>
0

>  <SCORE.SYSTEM.norm>
0

>  <SCORE.heavy>
10

>  <SCORE.norm>
-0.973837

>  <RMSD>
5.738

$$$$
ligand
 OpenBabel11021811473D
libRbt.so/2013.1/901 2013/11/27
 10  9  0  0  0  0  0  0  0  0999 V2000
   26.6861   14.5117   20.7795 N   0  0  0  0  0  0  0  0  0  0  0  0
   26.9742   15.3745   19.5997 C   0  0  2  0  0  0  0  0  0  0  0  0
   27.3400   14.5551   18.3620 C   0  0  0  0  0  0  0  0  0  0  0  0
   28.0008   15.0327   17.4340 O   0  0  0  0  0  0  0  0  0  0  0  0
   28.0652   16.3974   19.9269 C   0  0  0  0  0  0  0  0  0  0  0  0
   29.4111   15.7826   20.2873 C   0  0  0  0  0  0  0  0  0  0  0  0
   30.4282   16.8620   20.6570 C   0  0  0  0  0  0  0  0  0  0  0  0
   31.8084   16.2719   20.9238 C   0  0  0  0  0  0  0  0  0  0  0  0
   32.7910   17.2916   21.3950 N   0  0  0  0  0  0  0  0  0  0  0  0
   27.0005   13.3773   18.2703 O   0  0  0  0  0  0  0  0  0  0  0  0
  2  1  1  1  0  0  0
  2  3  1  0  0  0  0
  2  5  1  0  0  0  0
  3  4  1  0  0  0  0
  3 10  1  0  0  0  0
  5  6  1  0  0  0  0
  6  7  1  0  0  0  0
  7  8  1  0  0  0  0
  8  9  1  0  0  0  0
M  END
>  <CHROM.1>
-156.87544806,62.28325687,-177.60712950,-175.91568633,-175.30251409,28.84754547
15.52346100,19.73093574,2.59798720,-0.32747813,-1.88861070

>  <Name>
ligand

>  <RI>
0

>  <Rbt.Current_Directory>
/home/itssahil/PROJECTS/Mol_Feturizer/New_Systems/rnas/3DJ2

>  <Rbt.Executable>
rbdock ($Id: //depot/dev/client3/rdock/2013.1/src/exe/rbdock.cxx#4 $)

>  <Rbt.Library>
libRbt.so (2013.1, Build901 2013/11/27)

>  <Rbt.Parameter_File>
/export/apps/rDock/src/rDock_2013.1_src/data/scripts/dock_solv.prm

>  <Rbt.Receptor>
prm/pocket_docking_3.prm

>  <SCORE>
-9.63554

>  <SCORE.INTER>
-8.49129

>  <SCORE.INTER.CONST>
1

>  <SCORE.INTER.POLAR>
0

>  <SCORE.INTER.ROT>
5

>  <SCORE.INTER.SOLV>
16.3074

>  <SCORE.INTER.VDW>
-18.03

>  <SCORE.INTER.norm>
-0.849129

>  <SCORE.INTRA>
-1.14425

>  <SCORE.INTRA.DIHEDRAL>
-2.52203

>  <SCORE.INTRA.DIHEDRAL.0>
4.28128

>  <SCORE.INTRA.POLAR>
0

>  <SCORE.INTRA.POLAR.0>
0

>  <SCORE.INTRA.REPUL>
0

>  <SCORE.INTRA.REPUL.0>
0

>  <SCORE.INTRA.SOLV>
-0.456577

>  <SCORE.INTRA.SOLV.lig_0>
-32.3374

>  <SCORE.INTRA.VDW>
0.345053

>  <SCORE.INTRA.VDW.0>
-0.659551

>  <SCORE.INTRA.norm>
-0.114425

>  <SCORE.RESTR>
0

>  <SCORE.RESTR.CAVITY>
0

>  <SCORE.RESTR.norm>
0

>  <SCORE.SYSTEM>
0

>  <SCORE.SYSTEM.CONST>
0

>  <SCORE.SYSTEM.DIHEDRAL>
0

>  <SCORE.SYSTEM.SOLV>
0

>  <SCORE.SYSTEM.norm>
0

>  <SCORE.heavy>
10

>  <SCORE.norm>
-0.963554

>  <RMSD>
5.767

$$$$
ligand
 OpenBabel11021811473D
libRbt.so/2013.1/901 2013/11/27
 10  9  0  0  0  0  0  0  0  0999 V2000
   25.1249    9.5735   17.5773 N   0  0  0  0  0  0  0  0  0  0  0  0
   26.4497    9.3698   16.9273 C   0  0  2  0  0  0  0  0  0  0  0  0
   27.0102    7.9714   17.1868 C   0  0  0  0  0  0  0  0  0  0  0  0
   27.3793    7.6133   18.3099 O   0  0  0  0  0  0  0  0  0  0  0  0
   27.4417   10.4516   17.3627 C   0  0  0  0  0  0  0  0  0  0  0  0
   26.8902   11.8696   17.2951 C   0  0  0  0  0  0  0  0  0  0  0  0
   27.8974   12.8789   17.8454 C   0  0  0  0  0  0  0  0  0  0  0  0
   27.2553   14.2379   18.1008 C   0  0  0  0  0  0  0  0  0  0  0  0
   28.1986   15.2150   18.7196 N   0  0  0  0  0  0  0  0  0  0  0  0
   27.0858    7.1501   16.2753 O   0  0  0  0  0  0  0  0  0  0  0  0
  2  1  1  1  0  0  0
  2  3  1  0  0  0  0
  2  5  1  0  0  0  0
  3  4  1  0  0  0  0
  3 10  1  0  0  0  0
  5  6  1  0  0  0  0
  6  7  1  0  0  0  0
  7  8  1  0  0  0  0
  8  9  1  0  0  0  0
M  END
>  <CHROM.1>
-68.28302215,-47.47599663,175.60990409,-166.22817058,176.35310094,27.08323825
10.58876454,17.56221562,1.70925833,0.26651625,-3.01270839

>  <Name>
ligand

>  <RI>
0

>  <Rbt.Current_Directory>
/home/itssahil/PROJECTS/Mol_Feturizer/New_Systems/rnas/3DJ2

>  <Rbt.Executable>
rbdock ($Id: //depot/dev/client3/rdock/2013.1/src/exe/rbdock.cxx#4 $)

>  <Rbt.Library>
libRbt.so (2013.1, Build901 2013/11/27)

>  <Rbt.Parameter_File>
/export/apps/rDock/src/rDock_2013.1_src/data/scripts/dock_solv.prm

>  <Rbt.Receptor>
prm/blind_docking_40.prm

>  <SCORE>
-5.56467

>  <SCORE.INTER>
-4.80899

>  <SCORE.INTER.CONST>
1

>  <SCORE.INTER.POLAR>
0

>  <SCORE.INTER.ROT>
5

>  <SCORE.INTER.SOLV>
13.69

>  <SCORE.INTER.VDW>
-14.7027

>  <SCORE.INTER.norm>
-0.480899

>  <SCORE.INTRA>
-0.755681

>  <SCORE.INTRA.DIHEDRAL>
-1.32703

>  <SCORE.INTRA.DIHEDRAL.0>
4.28128

>  <SCORE.INTRA.POLAR>
0

>  <SCORE.INTRA.POLAR.0>
0

>  <SCORE.INTRA.REPUL>
0

>  <SCORE.INTRA.REPUL.0>
0

>  <SCORE.INTRA.SOLV>
-0.287705

>  <SCORE.INTRA.SOLV.lig_0>
-32.3374

>  <SCORE.INTRA.VDW>
0.0516862

>  <SCORE.INTRA.VDW.0>
-0.659551

>  <SCORE.INTRA.norm>
-0.0755681

>  <SCORE.RESTR>
0

>  <SCORE.RESTR.CAVITY>
0

>  <SCORE.RESTR.norm>
0

>  <SCORE.SYSTEM>
0

>  <SCORE.SYSTEM.CONST>
0

>  <SCORE.SYSTEM.DIHEDRAL>
0

>  <SCORE.SYSTEM.SOLV>
0

>  <SCORE.SYSTEM.norm>
0

>  <SCORE.heavy>
10

>  <SCORE.norm>
-0.556467

>  <RMSD>
8.837

$$$$
ligand
 OpenBabel11021811473D
libRbt.so/2013.1/901 2013/11/27
 10  9  0  0  0  0  0  0  0  0999 V2000
   28.1832    8.4903   28.7044 N   0  0  0  0  0  0  0  0  0  0  0  0
   29.0531    9.3416   27.8454 C   0  0  2  0  0  0  0  0  0  0  0  0
   28.6283   10.8100   27.8708 C   0  0  0  0  0  0  0  0  0  0  0  0
   29.4243   11.7246   27.6347 O   0  0  0  0  0  0  0  0  0  0  0  0
   29.0962    8.8041   26.4126 C   0  0  0  0  0  0  0  0  0  0  0  0
   27.7304    8.6771   25.7508 C   0  0  0  0  0  0  0  0  0  0  0  0
   27.8630    8.2259   24.2965 C   0  0  0  0  0  0  0  0  0  0  0  0
   26.5253    7.7776   23.7186 C   0  0  0  0  0  0  0  0  0  0  0  0
   25.9199    6.6435   24.4766 N   0  0  0  0  0  0  0  0  0  0  0  0
   27.4621   11.1185   28.1069 O   0  0  0  0  0  0  0  0  0  0  0  0
  2  1  1  1  0  0  0
  2  3  1  0  0  0  0
  2  5  1  0  0  0  0
  3  4  1  0  0  0  0
  3 10  1  0  0  0  0
  5  6  1  0  0  0  0
  6  7  1  0  0  0  0
  7  8  1  0  0  0  0
  8  9  1  0  0  0  0
M  END
>  <CHROM.1>
154.61536631,56.79234338,176.16611823,166.52836770,-59.24895741,27.98482070
9.20010210,26.49095984,0.43000507,1.15034089,1.96009413

>  <Name>
ligand

>  <RI>
0

>  <Rbt.Current_Directory>
/home/itssahil/PROJECTS/Mol_Feturizer/New_Systems/rnas/3DJ2

>  <Rbt.Executable>
rbdock ($Id: //depot/dev/client3/rdock/2013.1/src/exe/rbdock.cxx#4 $)

>  <Rbt.Library>
libRbt.so (2013.1, Build901 2013/11/27)

>  <Rbt.Parameter_File>
/export/apps/rDock/src/rDock_2013.1_src/data/scripts/dock_solv.prm

>  <Rbt.Receptor>
prm/blind_docking_60.prm

>  <SCORE>
-6.22165

>  <SCORE.INTER>
-5.53064

>  <SCORE.INTER.CONST>
1

>  <SCORE.INTER.POLAR>
0

>  <SCORE.INTER.ROT>
5

>  <SCORE.INTER.SOLV>
6.03788

>  <SCORE.INTER.VDW>
-12.6331

>  <SCORE.INTER.norm>
-0.553064

>  <SCORE.INTRA>
-0.692274

>  <SCORE.INTRA.DIHEDRAL>
-1.96284

>  <SCORE.INTRA.DIHEDRAL.0>
4.28128

>  <SCORE.INTRA.POLAR>
0

>  <SCORE.INTRA.POLAR.0>
0

>  <SCORE.INTRA.REPUL>
0

>  <SCORE.INTRA.REPUL.0>
0

>  <SCORE.INTRA.SOLV>
0.61444

>  <SCORE.INTRA.SOLV.lig_0>
-32.3374

>  <SCORE.INTRA.VDW>
-0.0180723

>  <SCORE.INTRA.VDW.0>
-0.659551

>  <SCORE.INTRA.norm>
-0.0692274

>  <SCORE.RESTR>
0.00126864

>  <SCORE.RESTR.CAVITY>
0.00126864

>  <SCORE.RESTR.norm>
0.000126864

>  <SCORE.SYSTEM>
0

>  <SCORE.SYSTEM.CONST>
0

>  <SCORE.SYSTEM.DIHEDRAL>
0

>  <SCORE.SYSTEM.SOLV>
0

>  <SCORE.SYSTEM.norm>
0

>  <SCORE.heavy>
10

>  <SCORE.norm>
-0.622165

>  <RMSD>
9.581

$$$$
ligand
 OpenBabel11021811473D
libRbt.so/2013.1/901 2013/11/27
 10  9  0  0  0  0  0  0  0  0999 V2000
   28.2907    8.4832   28.7067 N   0  0  0  0  0  0  0  0  0  0  0  0
   29.0878    9.3780   27.8216 C   0  0  2  0  0  0  0  0  0  0  0  0
   28.5909   10.8231   27.8650 C   0  0  0  0  0  0  0  0  0  0  0  0
   27.4352   11.1071   28.1959 O   0  0  0  0  0  0  0  0  0  0  0  0
   29.1103    8.8448   26.3867 C   0  0  0  0  0  0  0  0  0  0  0  0
   27.7312    8.6408   25.7736 C   0  0  0  0  0  0  0  0  0  0  0  0
   27.8371    8.2124   24.3103 C   0  0  0  0  0  0  0  0  0  0  0  0
   26.4922    7.7575   23.7547 C   0  0  0  0  0  0  0  0  0  0  0  0
   25.9499    6.5609   24.4628 N   0  0  0  0  0  0  0  0  0  0  0  0
   29.3478   11.7520   27.5904 O   0  0  0  0  0  0  0  0  0  0  0  0
  2  1  1  1  0  0  0
  2  3  1  0  0  0  0
  2  5  1  0  0  0  0
  3  4  1  0  0  0  0
  3 10  1  0  0  0  0
  5  6  1  0  0  0  0
  6  7  1  0  0  0  0
  7  8  1  0  0  0  0
  8  9  1  0  0  0  0
M  END
>  <CHROM.1>
-23.44514627,56.39052489,175.59562804,169.52320097,-62.27172437,27.98237668
9.19460621,26.49683724,0.28893588,1.17993770,2.10551002

>  <Name>
ligand

>  <RI>
0

>  <Rbt.Current_Directory>
/home/itssahil/PROJECTS/Mol_Feturizer/New_Systems/rnas/3DJ2

>  <Rbt.Executable>
rbdock ($Id: //depot/dev/client3/rdock/2013.1/src/exe/rbdock.cxx#4 $)

>  <Rbt.Library>
libRbt.so (2013.1, Build901 2013/11/27)

>  <Rbt.Parameter_File>
/export/apps/rDock/src/rDock_2013.1_src/data/scripts/dock_solv.prm

>  <Rbt.Receptor>
prm/blind_docking_60.prm

>  <SCORE>
-6.31918

>  <SCORE.INTER>
-5.49527

>  <SCORE.INTER.CONST>
1

>  <SCORE.INTER.POLAR>
0

>  <SCORE.INTER.ROT>
5

>  <SCORE.INTER.SOLV>
6.32291

>  <SCORE.INTER.VDW>
-12.7045

>  <SCORE.INTER.norm>
-0.549527

>  <SCORE.INTRA>
-0.823912

>  <SCORE.INTRA.DIHEDRAL>
-2.10052

>  <SCORE.INTRA.DIHEDRAL.0>
4.28128

>  <SCORE.INTRA.POLAR>
0

>  <SCORE.INTRA.POLAR.0>
0

>  <SCORE.INTRA.REPUL>
0

>  <SCORE.INTRA.REPUL.0>
0

>  <SCORE.INTRA.SOLV>
0.555012

>  <SCORE.INTRA.SOLV.lig_0>
-32.3374

>  <SCORE.INTRA.VDW>
-0.0511555

>  <SCORE.INTRA.VDW.0>
-0.659551

>  <SCORE.INTRA.norm>
-0.0823912

>  <SCORE.RESTR>
0

>  <SCORE.RESTR.CAVITY>
0

>  <SCORE.RESTR.norm>
0

>  <SCORE.SYSTEM>
0

>  <SCORE.SYSTEM.CONST>
0

>  <SCORE.SYSTEM.DIHEDRAL>
0

>  <SCORE.SYSTEM.SOLV>
0

>  <SCORE.SYSTEM.norm>
0

>  <SCORE.heavy>
10

>  <SCORE.norm>
-0.631918

>  <RMSD>
9.588

$$$$
ligand
 OpenBabel11021811473D
libRbt.so/2013.1/901 2013/11/27
 10  9  0  0  0  0  0  0  0  0999 V2000
   25.4117   25.2548   19.2485 N   0  0  0  0  0  0  0  0  0  0  0  0
   25.2255   23.9128   18.6290 C   0  0  2  0  0  0  0  0  0  0  0  0
   24.8564   22.8475   19.6614 C   0  0  0  0  0  0  0  0  0  0  0  0
   24.2176   21.8352   19.3561 O   0  0  0  0  0  0  0  0  0  0  0  0
   26.4677   23.5036   17.8333 C   0  0  0  0  0  0  0  0  0  0  0  0
   26.2531   22.3139   16.9069 C   0  0  0  0  0  0  0  0  0  0  0  0
   25.3744   22.6951   15.7158 C   0  0  0  0  0  0  0  0  0  0  0  0
   26.0995   23.6290   14.7532 C   0  0  0  0  0  0  0  0  0  0  0  0
   25.2883   23.9542   13.5434 N   0  0  0  0  0  0  0  0  0  0  0  0
   25.2122   22.9631   20.8323 O   0  0  0  0  0  0  0  0  0  0  0  0
  2  1  1  1  0  0  0
  2  3  1  0  0  0  0
  2  5  1  0  0  0  0
  3  4  1  0  0  0  0
  3 10  1  0  0  0  0
  5  6  1  0  0  0  0
  6  7  1  0  0  0  0
  7  8  1  0  0  0  0
  8  9  1  0  0  0  0
M  END
>  <CHROM.1>
153.95031622,-166.36783610,71.06420578,70.06882985,176.79432424,25.43025532
23.26749924,17.68097833,-2.06816907,-1.30204295,-1.98217136

>  <Name>
ligand

>  <RI>
0

>  <Rbt.Current_Directory>
/home/itssahil/PROJECTS/Mol_Feturizer/New_Systems/rnas/3DJ2

>  <Rbt.Executable>
rbdock ($Id: //depot/dev/client3/rdock/2013.1/src/exe/rbdock.cxx#4 $)

>  <Rbt.Library>
libRbt.so (2013.1, Build901 2013/11/27)

>  <Rbt.Parameter_File>
/export/apps/rDock/src/rDock_2013.1_src/data/scripts/dock_solv.prm

>  <Rbt.Receptor>
prm/blind_docking_80.prm

>  <SCORE>
-2.62494

>  <SCORE.INTER>
-1.99233

>  <SCORE.INTER.CONST>
1

>  <SCORE.INTER.POLAR>
0

>  <SCORE.INTER.ROT>
5

>  <SCORE.INTER.SOLV>
8.87772

>  <SCORE.INTER.VDW>
-11.2208

>  <SCORE.INTER.norm>
-0.199233

>  <SCORE.INTRA>
-0.632607

>  <SCORE.INTRA.DIHEDRAL>
-1.18777

>  <SCORE.INTRA.DIHEDRAL.0>
4.28128

>  <SCORE.INTRA.POLAR>
0

>  <SCORE.INTRA.POLAR.0>
0

>  <SCORE.INTRA.REPUL>
0

>  <SCORE.INTRA.REPUL.0>
0

>  <SCORE.INTRA.SOLV>
-0.833658

>  <SCORE.INTRA.SOLV.lig_0>
-32.3374

>  <SCORE.INTRA.VDW>
0.378105

>  <SCORE.INTRA.VDW.0>
-0.659551

>  <SCORE.INTRA.norm>
-0.0632607

>  <SCORE.RESTR>
0

>  <SCORE.RESTR.CAVITY>
0

>  <SCORE.RESTR.norm>
0

>  <SCORE.SYSTEM>
0

>  <SCORE.SYSTEM.CONST>
0

>  <SCORE.SYSTEM.DIHEDRAL>
0

>  <SCORE.SYSTEM.SOLV>
0

>  <SCORE.SYSTEM.norm>
0

>  <SCORE.heavy>
10

>  <SCORE.norm>
-0.262494

>  <RMSD>
10.217

$$$$
ligand
 OpenBabel11021811473D
libRbt.so/2013.1/901 2013/11/27
 10  9  0  0  0  0  0  0  0  0999 V2000
   24.5750   24.5690   18.9120 N   0  0  0  0  0  0  0  0  0  0  0  0
   24.7053   23.0949   18.7408 C   0  0  2  0  0  0  0  0  0  0  0  0
   25.2065   22.4090   20.0118 C   0  0  0  0  0  0  0  0  0  0  0  0
   24.6748   21.3860   20.4554 O   0  0  0  0  0  0  0  0  0  0  0  0
   25.6011   22.7629   17.5445 C   0  0  0  0  0  0  0  0  0  0  0  0
   25.1048   23.3216   16.2175 C   0  0  0  0  0  0  0  0  0  0  0  0
   26.1246   23.0841   15.1041 C   0  0  0  0  0  0  0  0  0  0  0  0
   25.6847   23.7170   13.7887 C   0  0  0  0  0  0  0  0  0  0  0  0
   26.7127   23.5894   12.7144 N   0  0  0  0  0  0  0  0  0  0  0  0
   26.1795   22.8522   20.6182 O   0  0  0  0  0  0  0  0  0  0  0  0
  2  1  1  1  0  0  0
  2  3  1  0  0  0  0
  2  5  1  0  0  0  0
  3  4  1  0  0  0  0
  3 10  1  0  0  0  0
  5  6  1  0  0  0  0
  6  7  1  0  0  0  0
  7  8  1  0  0  0  0
  8  9  1  0  0  0  0
M  END
>  <CHROM.1>
133.50454525,-59.12303110,173.67956620,-176.27526125,175.55815914,25.46495823
23.06094696,17.45192112,1.93369828,-1.14631980,2.06028931

>  <Name>
ligand

>  <RI>
0

>  <Rbt.Current_Directory>
/home/itssahil/PROJECTS/Mol_Feturizer/New_Systems/rnas/3DJ2

>  <Rbt.Executable>
rbdock ($Id: //depot/dev/client3/rdock/2013.1/src/exe/rbdock.cxx#4 $)

>  <Rbt.Library>
libRbt.so (2013.1, Build901 2013/11/27)

>  <Rbt.Parameter_File>
/export/apps/rDock/src/rDock_2013.1_src/data/scripts/dock_solv.prm

>  <Rbt.Receptor>
prm/blind_docking_80.prm

>  <SCORE>
-5.85406

>  <SCORE.INTER>
-4.23771

>  <SCORE.INTER.CONST>
1

>  <SCORE.INTER.POLAR>
0

>  <SCORE.INTER.ROT>
5

>  <SCORE.INTER.SOLV>
9.04005

>  <SCORE.INTER.VDW>
-12.7718

>  <SCORE.INTER.norm>
-0.423771

>  <SCORE.INTRA>
-1.61635

>  <SCORE.INTRA.DIHEDRAL>
-2.48692

>  <SCORE.INTRA.DIHEDRAL.0>
4.28128

>  <SCORE.INTRA.POLAR>
0

>  <SCORE.INTRA.POLAR.0>
0

>  <SCORE.INTRA.REPUL>
0

>  <SCORE.INTRA.REPUL.0>
0

>  <SCORE.INTRA.SOLV>
-0.407114

>  <SCORE.INTRA.SOLV.lig_0>
-32.3374

>  <SCORE.INTRA.VDW>
-0.169335

>  <SCORE.INTRA.VDW.0>
-0.659551

>  <SCORE.INTRA.norm>
-0.161635

>  <SCORE.RESTR>
0

>  <SCORE.RESTR.CAVITY>
0

>  <SCORE.RESTR.norm>
0

>  <SCORE.SYSTEM>
0

>  <SCORE.SYSTEM.CONST>
0

>  <SCORE.SYSTEM.DIHEDRAL>
0

>  <SCORE.SYSTEM.SOLV>
0

>  <SCORE.SYSTEM.norm>
0

>  <SCORE.heavy>
10

>  <SCORE.norm>
-0.585406

>  <RMSD>
10.237

$$$$
ligand
 OpenBabel11021811473D
libRbt.so/2013.1/901 2013/11/27
 10  9  0  0  0  0  0  0  0  0999 V2000
   24.6555   24.5522   18.9282 N   0  0  0  0  0  0  0  0  0  0  0  0
   24.7177   23.0781   18.7227 C   0  0  2  0  0  0  0  0  0  0  0  0
   25.2124   22.3428   19.9685 C   0  0  0  0  0  0  0  0  0  0  0  0
   24.7184   21.2713   20.3342 O   0  0  0  0  0  0  0  0  0  0  0  0
   25.5751   22.7344   17.5019 C   0  0  0  0  0  0  0  0  0  0  0  0
   25.0634   23.3211   16.1930 C   0  0  0  0  0  0  0  0  0  0  0  0
   26.0769   23.1212   15.0665 C   0  0  0  0  0  0  0  0  0  0  0  0
   25.6163   23.7740   13.7680 C   0  0  0  0  0  0  0  0  0  0  0  0
   26.6794   23.7891   12.7207 N   0  0  0  0  0  0  0  0  0  0  0  0
   26.1430   22.7952   20.6320 O   0  0  0  0  0  0  0  0  0  0  0  0
  2  1  1  1  0  0  0
  2  3  1  0  0  0  0
  2  5  1  0  0  0  0
  3  4  1  0  0  0  0
  3 10  1  0  0  0  0
  5  6  1  0  0  0  0
  6  7  1  0  0  0  0
  7  8  1  0  0  0  0
  8  9  1  0  0  0  0
M  END
>  <CHROM.1>
139.91641658,-60.26156985,171.19194980,-176.68018829,170.54851529,25.45384654
23.05891894,17.42418301,2.02595294,-1.25829233,2.19023895

>  <Name>
ligand

>  <RI>
0

>  <Rbt.Current_Directory>
/home/itssahil/PROJECTS/Mol_Feturizer/New_Systems/rnas/3DJ2

>  <Rbt.Executable>
rbdock ($Id: //depot/dev/client3/rdock/2013.1/src/exe/rbdock.cxx#4 $)

>  <Rbt.Library>
libRbt.so (2013.1, Build901 2013/11/27)

>  <Rbt.Parameter_File>
/export/apps/rDock/src/rDock_2013.1_src/data/scripts/dock_solv.prm

>  <Rbt.Receptor>
prm/blind_docking_80.prm

>  <SCORE>
-5.78908

>  <SCORE.INTER>
-4.35392

>  <SCORE.INTER.CONST>
1

>  <SCORE.INTER.POLAR>
0

>  <SCORE.INTER.ROT>
5

>  <SCORE.INTER.SOLV>
8.37894

>  <SCORE.INTER.VDW>
-12.6289

>  <SCORE.INTER.norm>
-0.435392

>  <SCORE.INTRA>
-1.43515

>  <SCORE.INTRA.DIHEDRAL>
-2.09942

>  <SCORE.INTRA.DIHEDRAL.0>
4.28128

>  <SCORE.INTRA.POLAR>
0

>  <SCORE.INTRA.POLAR.0>
0

>  <SCORE.INTRA.REPUL>
0

>  <SCORE.INTRA.REPUL.0>
0

>  <SCORE.INTRA.SOLV>
-0.397462

>  <SCORE.INTRA.SOLV.lig_0>
-32.3374

>  <SCORE.INTRA.VDW>
-0.186713

>  <SCORE.INTRA.VDW.0>
-0.659551

>  <SCORE.INTRA.norm>
-0.143515

>  <SCORE.RESTR>
0

>  <SCORE.RESTR.CAVITY>
0

>  <SCORE.RESTR.norm>
0

>  <SCORE.SYSTEM>
0

>  <SCORE.SYSTEM.CONST>
0

>  <SCORE.SYSTEM.DIHEDRAL>
0

>  <SCORE.SYSTEM.SOLV>
0

>  <SCORE.SYSTEM.norm>
0

>  <SCORE.heavy>
10

>  <SCORE.norm>
-0.578908

>  <RMSD>
10.255

$$$$
ligand
 OpenBabel11021811473D
libRbt.so/2013.1/901 2013/11/27
 10  9  0  0  0  0  0  0  0  0999 V2000
   26.3084   26.7934   19.5544 N   0  0  0  0  0  0  0  0  0  0  0  0
   25.8955   26.1164   20.8155 C   0  0  2  0  0  0  0  0  0  0  0  0
   26.8903   26.3568   21.9513 C   0  0  0  0  0  0  0  0  0  0  0  0
   28.1088   26.4018   21.7540 O   0  0  0  0  0  0  0  0  0  0  0  0
   25.6747   24.6195   20.5826 C   0  0  0  0  0  0  0  0  0  0  0  0
   24.6104   24.2988   19.5416 C   0  0  0  0  0  0  0  0  0  0  0  0
   24.5046   22.7919   19.3084 C   0  0  0  0  0  0  0  0  0  0  0  0
   25.7638   22.2299   18.6581 C   0  0  0  0  0  0  0  0  0  0  0  0
   26.0405   22.8314   17.3206 N   0  0  0  0  0  0  0  0  0  0  0  0
   26.4937   26.5372   23.1007 O   0  0  0  0  0  0  0  0  0  0  0  0
  2  1  1  6  0  0  0
  2  3  1  0  0  0  0
  2  5  1  0  0  0  0
  3  4  1  0  0  0  0
  3 10  1  0  0  0  0
  5  6  1  0  0  0  0
  6  7  1  0  0  0  0
  7  8  1  0  0  0  0
  8  9  1  0  0  0  0
M  END
>  <CHROM.1>
-37.36849405,-59.28791905,176.77096203,-66.75869112,-60.84265302,26.05326319
24.91212752,20.29170724,-1.14340398,-0.76427496,-2.07014912

>  <Name>
ligand

>  <RI>
0

>  <Rbt.Current_Directory>
/home/itssahil/PROJECTS/Mol_Feturizer/New_Systems/rnas/3DJ2

>  <Rbt.Executable>
rbdock ($Id: //depot/dev/client3/rdock/2013.1/src/exe/rbdock.cxx#4 $)

>  <Rbt.Library>
libRbt.so (2013.1, Build901 2013/11/27)

>  <Rbt.Parameter_File>
/export/apps/rDock/src/rDock_2013.1_src/data/scripts/dock_solv.prm

>  <Rbt.Receptor>
prm/blind_docking_80.prm

>  <SCORE>
-5.29586

>  <SCORE.INTER>
-5.06832

>  <SCORE.INTER.CONST>
1

>  <SCORE.INTER.POLAR>
0

>  <SCORE.INTER.ROT>
5

>  <SCORE.INTER.SOLV>
8.53182

>  <SCORE.INTER.VDW>
-13.1562

>  <SCORE.INTER.norm>
-0.506832

>  <SCORE.INTRA>
-0.22754

>  <SCORE.INTRA.DIHEDRAL>
-2.47766

>  <SCORE.INTRA.DIHEDRAL.0>
4.28128

>  <SCORE.INTRA.POLAR>
0

>  <SCORE.INTRA.POLAR.0>
0

>  <SCORE.INTRA.REPUL>
0

>  <SCORE.INTRA.REPUL.0>
0

>  <SCORE.INTRA.SOLV>
1.07056

>  <SCORE.INTRA.SOLV.lig_0>
-32.3374

>  <SCORE.INTRA.VDW>
0.47601

>  <SCORE.INTRA.VDW.0>
-0.659551

>  <SCORE.INTRA.norm>
-0.022754

>  <SCORE.RESTR>
0

>  <SCORE.RESTR.CAVITY>
0

>  <SCORE.RESTR.norm>
0

>  <SCORE.SYSTEM>
0

>  <SCORE.SYSTEM.CONST>
0

>  <SCORE.SYSTEM.DIHEDRAL>
0

>  <SCORE.SYSTEM.SOLV>
0

>  <SCORE.SYSTEM.norm>
0

>  <SCORE.heavy>
10

>  <SCORE.norm>
-0.529586

>  <RMSD>
10.276

$$$$
ligand
 OpenBabel11021811473D
libRbt.so/2013.1/901 2013/11/27
 10  9  0  0  0  0  0  0  0  0999 V2000
   26.0520   23.6367   18.0913 N   0  0  0  0  0  0  0  0  0  0  0  0
   25.7103   23.3775   19.5179 C   0  0  2  0  0  0  0  0  0  0  0  0
   25.3070   21.9227   19.7590 C   0  0  0  0  0  0  0  0  0  0  0  0
   25.4654   21.0497   18.8996 O   0  0  0  0  0  0  0  0  0  0  0  0
   24.6214   24.3395   20.0002 C   0  0  0  0  0  0  0  0  0  0  0  0
   25.0482   25.8010   20.0342 C   0  0  0  0  0  0  0  0  0  0  0  0
   26.1285   26.0347   21.0899 C   0  0  0  0  0  0  0  0  0  0  0  0
   26.5624   27.4953   21.1422 C   0  0  0  0  0  0  0  0  0  0  0  0
   27.5502   27.7655   22.2279 N   0  0  0  0  0  0  0  0  0  0  0  0
   24.8303   21.5777   20.8382 O   0  0  0  0  0  0  0  0  0  0  0  0
  2  1  1  6  0  0  0
  2  3  1  0  0  0  0
  2  5  1  0  0  0  0
  3  4  1  0  0  0  0
  3 10  1  0  0  0  0
  5  6  1  0  0  0  0
  6  7  1  0  0  0  0
  7  8  1  0  0  0  0
  8  9  1  0  0  0  0
M  END
>  <CHROM.1>
10.74267206,-65.31666282,-66.65966060,-179.70702920,176.14179641,25.71717930
24.25668647,20.16221256,-2.78608365,1.31577355,1.55099832

>  <Name>
ligand

>  <RI>
0

>  <Rbt.Current_Directory>
/home/itssahil/PROJECTS/Mol_Feturizer/New_Systems/rnas/3DJ2

>  <Rbt.Executable>
rbdock ($Id: //depot/dev/client3/rdock/2013.1/src/exe/rbdock.cxx#4 $)

>  <Rbt.Library>
libRbt.so (2013.1, Build901 2013/11/27)

>  <Rbt.Parameter_File>
/export/apps/rDock/src/rDock_2013.1_src/data/scripts/dock_solv.prm

>  <Rbt.Receptor>
prm/blind_docking_80.prm

>  <SCORE>
-5.77102

>  <SCORE.INTER>
-4.86218

>  <SCORE.INTER.CONST>
1

>  <SCORE.INTER.POLAR>
0

>  <SCORE.INTER.ROT>
5

>  <SCORE.INTER.SOLV>
7.86298

>  <SCORE.INTER.VDW>
-12.7958

>  <SCORE.INTER.norm>
-0.486218

>  <SCORE.INTRA>
-0.908837

>  <SCORE.INTRA.DIHEDRAL>
-2.41557

>  <SCORE.INTRA.DIHEDRAL.0>
4.28128

>  <SCORE.INTRA.POLAR>
0

>  <SCORE.INTRA.POLAR.0>
0

>  <SCORE.INTRA.REPUL>
0

>  <SCORE.INTRA.REPUL.0>
0

>  <SCORE.INTRA.SOLV>
-0.025809

>  <SCORE.INTRA.SOLV.lig_0>
-32.3374

>  <SCORE.INTRA.VDW>
0.311854

>  <SCORE.INTRA.VDW.0>
-0.659551

>  <SCORE.INTRA.norm>
-0.0908837

>  <SCORE.RESTR>
0

>  <SCORE.RESTR.CAVITY>
0

>  <SCORE.RESTR.norm>
0

>  <SCORE.SYSTEM>
0

>  <SCORE.SYSTEM.CONST>
0

>  <SCORE.SYSTEM.DIHEDRAL>
0

>  <SCORE.SYSTEM.SOLV>
0

>  <SCORE.SYSTEM.norm>
0

>  <SCORE.heavy>
10

>  <SCORE.norm>
-0.577102

>  <RMSD>
10.734

$$$$
ligand
 OpenBabel11021811473D
libRbt.so/2013.1/901 2013/11/27
 10  9  0  0  0  0  0  0  0  0999 V2000
   24.6810   21.3061   19.7953 N   0  0  0  0  0  0  0  0  0  0  0  0
   24.8333   22.6945   19.2771 C   0  0  2  0  0  0  0  0  0  0  0  0
   25.6746   22.7447   18.0016 C   0  0  0  0  0  0  0  0  0  0  0  0
   25.2734   23.3038   16.9758 O   0  0  0  0  0  0  0  0  0  0  0  0
   25.4085   23.6176   20.3545 C   0  0  0  0  0  0  0  0  0  0  0  0
   25.4946   25.0814   19.9432 C   0  0  0  0  0  0  0  0  0  0  0  0
   26.1581   25.9217   21.0339 C   0  0  0  0  0  0  0  0  0  0  0  0
   26.2586   27.3898   20.6351 C   0  0  0  0  0  0  0  0  0  0  0  0
   26.9705   28.2171   21.6530 N   0  0  0  0  0  0  0  0  0  0  0  0
   26.7965   22.2431   17.9737 O   0  0  0  0  0  0  0  0  0  0  0  0
  2  1  1  1  0  0  0
  2  3  1  0  0  0  0
  2  5  1  0  0  0  0
  3  4  1  0  0  0  0
  3 10  1  0  0  0  0
  5  6  1  0  0  0  0
  6  7  1  0  0  0  0
  7  8  1  0  0  0  0
  8  9  1  0  0  0  0
M  END
>  <CHROM.1>
127.45845849,-175.42998060,-176.40645099,179.72129744,-176.85599359,25.77043857
24.24316180,19.52994978,2.03121078,-1.16860095,-2.20766403

>  <Name>
ligand

>  <RI>
0

>  <Rbt.Current_Directory>
/home/itssahil/PROJECTS/Mol_Feturizer/New_Systems/rnas/3DJ2

>  <Rbt.Executable>
rbdock ($Id: //depot/dev/client3/rdock/2013.1/src/exe/rbdock.cxx#4 $)

>  <Rbt.Library>
libRbt.so (2013.1, Build901 2013/11/27)

>  <Rbt.Parameter_File>
/export/apps/rDock/src/rDock_2013.1_src/data/scripts/dock_solv.prm

>  <Rbt.Receptor>
prm/blind_docking_80.prm

>  <SCORE>
-3.2047

>  <SCORE.INTER>
-1.0392

>  <SCORE.INTER.CONST>
1

>  <SCORE.INTER.POLAR>
0

>  <SCORE.INTER.ROT>
5

>  <SCORE.INTER.SOLV>
14.006

>  <SCORE.INTER.VDW>
-12.2948

>  <SCORE.INTER.norm>
-0.10392

>  <SCORE.INTRA>
-2.1655

>  <SCORE.INTRA.DIHEDRAL>
-2.61125

>  <SCORE.INTRA.DIHEDRAL.0>
4.28128

>  <SCORE.INTRA.POLAR>
0

>  <SCORE.INTRA.POLAR.0>
0

>  <SCORE.INTRA.REPUL>
0

>  <SCORE.INTRA.REPUL.0>
0

>  <SCORE.INTRA.SOLV>
-1.34653

>  <SCORE.INTRA.SOLV.lig_0>
-32.3374

>  <SCORE.INTRA.VDW>
-0.186609

>  <SCORE.INTRA.VDW.0>
-0.659551

>  <SCORE.INTRA.norm>
-0.21655

>  <SCORE.RESTR>
0

>  <SCORE.RESTR.CAVITY>
0

>  <SCORE.RESTR.norm>
0

>  <SCORE.SYSTEM>
0

>  <SCORE.SYSTEM.CONST>
0

>  <SCORE.SYSTEM.DIHEDRAL>
0

>  <SCORE.SYSTEM.SOLV>
0

>  <SCORE.SYSTEM.norm>
0

>  <SCORE.heavy>
10

>  <SCORE.norm>
-0.32047

>  <RMSD>
10.752

$$$$
ligand
 OpenBabel11021811473D
libRbt.so/2013.1/901 2013/11/27
 10  9  0  0  0  0  0  0  0  0999 V2000
   24.8893   21.7170   20.4628 N   0  0  0  0  0  0  0  0  0  0  0  0
   24.4056   22.5987   19.3637 C   0  0  2  0  0  0  0  0  0  0  0  0
   25.1970   22.3961   18.0715 C   0  0  0  0  0  0  0  0  0  0  0  0
   24.7655   22.7686   16.9756 O   0  0  0  0  0  0  0  0  0  0  0  0
   24.4220   24.0670   19.7966 C   0  0  0  0  0  0  0  0  0  0  0  0
   25.7860   24.5702   20.2502 C   0  0  0  0  0  0  0  0  0  0  0  0
   25.7271   26.0477   20.6370 C   0  0  0  0  0  0  0  0  0  0  0  0
   27.0825   26.5646   21.1061 C   0  0  0  0  0  0  0  0  0  0  0  0
   27.0612   28.0188   21.4412 N   0  0  0  0  0  0  0  0  0  0  0  0
   26.3083   21.8713   18.0959 O   0  0  0  0  0  0  0  0  0  0  0  0
  2  1  1  1  0  0  0
  2  3  1  0  0  0  0
  2  5  1  0  0  0  0
  3  4  1  0  0  0  0
  3 10  1  0  0  0  0
  5  6  1  0  0  0  0
  6  7  1  0  0  0  0
  7  8  1  0  0  0  0
  8  9  1  0  0  0  0
M  END
>  <CHROM.1>
161.86944021,57.25074516,178.79904333,179.47537299,177.86707583,25.57707640
24.04732888,19.58534234,2.21538205,-1.09890960,-2.01747210

>  <Name>
ligand

>  <RI>
0

>  <Rbt.Current_Directory>
/home/itssahil/PROJECTS/Mol_Feturizer/New_Systems/rnas/3DJ2

>  <Rbt.Executable>
rbdock ($Id: //depot/dev/client3/rdock/2013.1/src/exe/rbdock.cxx#4 $)

>  <Rbt.Library>
libRbt.so (2013.1, Build901 2013/11/27)

>  <Rbt.Parameter_File>
/export/apps/rDock/src/rDock_2013.1_src/data/scripts/dock_solv.prm

>  <Rbt.Receptor>
prm/blind_docking_80.prm

>  <SCORE>
-5.05629

>  <SCORE.INTER>
-3.38369

>  <SCORE.INTER.CONST>
1

>  <SCORE.INTER.POLAR>
0

>  <SCORE.INTER.ROT>
5

>  <SCORE.INTER.SOLV>
13.5764

>  <SCORE.INTER.VDW>
-13.7146

>  <SCORE.INTER.norm>
-0.338369

>  <SCORE.INTRA>
-1.6726

>  <SCORE.INTRA.DIHEDRAL>
-2.73768

>  <SCORE.INTRA.DIHEDRAL.0>
4.28128

>  <SCORE.INTRA.POLAR>
0

>  <SCORE.INTRA.POLAR.0>
0

>  <SCORE.INTRA.REPUL>
0

>  <SCORE.INTRA.REPUL.0>
0

>  <SCORE.INTRA.SOLV>
-0.415511

>  <SCORE.INTRA.SOLV.lig_0>
-32.3374

>  <SCORE.INTRA.VDW>
-0.0960056

>  <SCORE.INTRA.VDW.0>
-0.659551

>  <SCORE.INTRA.norm>
-0.16726

>  <SCORE.RESTR>
0

>  <SCORE.RESTR.CAVITY>
0

>  <SCORE.RESTR.norm>
0

>  <SCORE.SYSTEM>
0

>  <SCORE.SYSTEM.CONST>
0

>  <SCORE.SYSTEM.DIHEDRAL>
0

>  <SCORE.SYSTEM.SOLV>
0

>  <SCORE.SYSTEM.norm>
0

>  <SCORE.heavy>
10

>  <SCORE.norm>
-0.505629

>  <RMSD>
10.761

$$$$
ligand
 OpenBabel11021811473D
libRbt.so/2013.1/901 2013/11/27
 10  9  0  0  0  0  0  0  0  0999 V2000
   26.2822   22.9583   17.5153 N   0  0  0  0  0  0  0  0  0  0  0  0
   26.0844   23.2343   18.9658 C   0  0  2  0  0  0  0  0  0  0  0  0
   24.8580   22.5148   19.5276 C   0  0  0  0  0  0  0  0  0  0  0  0
   24.8886   21.9184   20.6089 O   0  0  0  0  0  0  0  0  0  0  0  0
   26.0088   24.7407   19.2279 C   0  0  0  0  0  0  0  0  0  0  0  0
   26.0156   25.1201   20.7028 C   0  0  0  0  0  0  0  0  0  0  0  0
   26.2064   26.6258   20.8831 C   0  0  0  0  0  0  0  0  0  0  0  0
   26.4387   26.9962   22.3437 C   0  0  0  0  0  0  0  0  0  0  0  0
   26.6960   28.4537   22.5357 N   0  0  0  0  0  0  0  0  0  0  0  0
   23.7903   22.5331   18.9189 O   0  0  0  0  0  0  0  0  0  0  0  0
  2  1  1  6  0  0  0
  2  3  1  0  0  0  0
  2  5  1  0  0  0  0
  3  4  1  0  0  0  0
  3 10  1  0  0  0  0
  5  6  1  0  0  0  0
  6  7  1  0  0  0  0
  7  8  1  0  0  0  0
  8  9  1  0  0  0  0
M  END
>  <CHROM.1>
135.44906678,-171.35401711,169.18979116,-170.88587004,177.11140154,25.69774634
24.48295602,20.12972142,-2.01377646,0.96215858,0.92042163

>  <Name>
ligand

>  <RI>
0

>  <Rbt.Current_Directory>
/home/itssahil/PROJECTS/Mol_Feturizer/New_Systems/rnas/3DJ2

>  <Rbt.Executable>
rbdock ($Id: //depot/dev/client3/rdock/2013.1/src/exe/rbdock.cxx#4 $)

>  <Rbt.Library>
libRbt.so (2013.1, Build901 2013/11/27)

>  <Rbt.Parameter_File>
/export/apps/rDock/src/rDock_2013.1_src/data/scripts/dock_solv.prm

>  <Rbt.Receptor>
prm/blind_docking_60.prm

>  <SCORE>
-5.12537

>  <SCORE.INTER>
-3.40213

>  <SCORE.INTER.CONST>
1

>  <SCORE.INTER.POLAR>
0

>  <SCORE.INTER.ROT>
5

>  <SCORE.INTER.SOLV>
7.72301

>  <SCORE.INTER.VDW>
-11.7758

>  <SCORE.INTER.norm>
-0.340213

>  <SCORE.INTRA>
-1.72325

>  <SCORE.INTRA.DIHEDRAL>
-1.67357

>  <SCORE.INTRA.DIHEDRAL.0>
4.28128

>  <SCORE.INTRA.POLAR>
0

>  <SCORE.INTRA.POLAR.0>
0

>  <SCORE.INTRA.REPUL>
0

>  <SCORE.INTRA.REPUL.0>
0

>  <SCORE.INTRA.SOLV>
-1.33769

>  <SCORE.INTRA.SOLV.lig_0>
-32.3374

>  <SCORE.INTRA.VDW>
-0.217615

>  <SCORE.INTRA.VDW.0>
-0.659551

>  <SCORE.INTRA.norm>
-0.172325

>  <SCORE.RESTR>
0

>  <SCORE.RESTR.CAVITY>
0

>  <SCORE.RESTR.norm>
0

>  <SCORE.SYSTEM>
0

>  <SCORE.SYSTEM.CONST>
0

>  <SCORE.SYSTEM.DIHEDRAL>
0

>  <SCORE.SYSTEM.SOLV>
0

>  <SCORE.SYSTEM.norm>
0

>  <SCORE.heavy>
10

>  <SCORE.norm>
-0.512537

>  <RMSD>
10.937

$$$$
ligand
 OpenBabel11021811473D
libRbt.so/2013.1/901 2013/11/27
 10  9  0  0  0  0  0  0  0  0999 V2000
   28.6150   15.2476    9.2868 N   0  0  0  0  0  0  0  0  0  0  0  0
   27.5361   15.0516   10.2952 C   0  0  2  0  0  0  0  0  0  0  0  0
   28.0693   14.4688   11.6041 C   0  0  0  0  0  0  0  0  0  0  0  0
   29.2391   14.0902   11.7221 O   0  0  0  0  0  0  0  0  0  0  0  0
   26.4085   14.1874    9.7249 C   0  0  0  0  0  0  0  0  0  0  0  0
   25.2035   14.0443   10.6452 C   0  0  0  0  0  0  0  0  0  0  0  0
   24.1890   13.0539   10.0741 C   0  0  0  0  0  0  0  0  0  0  0  0
   23.0703   12.7543   11.0656 C   0  0  0  0  0  0  0  0  0  0  0  0
   22.2588   13.9608   11.4021 N   0  0  0  0  0  0  0  0  0  0  0  0
   27.3422   14.3839   12.5916 O   0  0  0  0  0  0  0  0  0  0  0  0
  2  1  1  6  0  0  0
  2  3  1  0  0  0  0
  2  5  1  0  0  0  0
  3  4  1  0  0  0  0
  3 10  1  0  0  0  0
  5  6  1  0  0  0  0
  6  7  1  0  0  0  0
  7  8  1  0  0  0  0
  8  9  1  0  0  0  0
M  END
>  <CHROM.1>
-6.85992847,-174.58747095,-174.01418410,172.25816146,62.84509330,26.21565112
14.11574522,10.87108757,0.02965984,-0.22842221,-1.39820115

>  <Name>
ligand

>  <RI>
0

>  <Rbt.Current_Directory>
/home/itssahil/PROJECTS/Mol_Feturizer/New_Systems/rnas/3DJ2

>  <Rbt.Executable>
rbdock ($Id: //depot/dev/client3/rdock/2013.1/src/exe/rbdock.cxx#4 $)

>  <Rbt.Library>
libRbt.so (2013.1, Build901 2013/11/27)

>  <Rbt.Parameter_File>
/export/apps/rDock/src/rDock_2013.1_src/data/scripts/dock_solv.prm

>  <Rbt.Receptor>
prm/blind_docking_40.prm

>  <SCORE>
-6.28121

>  <SCORE.INTER>
-5.26552

>  <SCORE.INTER.CONST>
1

>  <SCORE.INTER.POLAR>
0

>  <SCORE.INTER.ROT>
5

>  <SCORE.INTER.SOLV>
10.6539

>  <SCORE.INTER.VDW>
-13.995

>  <SCORE.INTER.norm>
-0.526552

>  <SCORE.INTRA>
-1.01569

>  <SCORE.INTRA.DIHEDRAL>
-2.20931

>  <SCORE.INTRA.DIHEDRAL.0>
4.28128

>  <SCORE.INTRA.POLAR>
0

>  <SCORE.INTRA.POLAR.0>
0

>  <SCORE.INTRA.REPUL>
0

>  <SCORE.INTRA.REPUL.0>
0

>  <SCORE.INTRA.SOLV>
-0.457223

>  <SCORE.INTRA.SOLV.lig_0>
-32.3374

>  <SCORE.INTRA.VDW>
0.317579

>  <SCORE.INTRA.VDW.0>
-0.659551

>  <SCORE.INTRA.norm>
-0.101569

>  <SCORE.RESTR>
0

>  <SCORE.RESTR.CAVITY>
0

>  <SCORE.RESTR.norm>
0

>  <SCORE.SYSTEM>
0

>  <SCORE.SYSTEM.CONST>
0

>  <SCORE.SYSTEM.DIHEDRAL>
0

>  <SCORE.SYSTEM.SOLV>
0

>  <SCORE.SYSTEM.norm>
0

>  <SCORE.heavy>
10

>  <SCORE.norm>
-0.628121

>  <RMSD>
11.331

$$$$
ligand
 OpenBabel11021811473D
libRbt.so/2013.1/901 2013/11/27
 10  9  0  0  0  0  0  0  0  0999 V2000
   25.6304   24.4673   18.2296 N   0  0  0  0  0  0  0  0  0  0  0  0
   25.7597   23.8155   19.5630 C   0  0  2  0  0  0  0  0  0  0  0  0
   24.8191   22.6198   19.7137 C   0  0  0  0  0  0  0  0  0  0  0  0
   23.8838   22.4214   18.9315 O   0  0  0  0  0  0  0  0  0  0  0  0
   25.5461   24.8312   20.6883 C   0  0  0  0  0  0  0  0  0  0  0  0
   26.5761   25.9525   20.7225 C   0  0  0  0  0  0  0  0  0  0  0  0
   26.4103   26.8144   21.9738 C   0  0  0  0  0  0  0  0  0  0  0  0
   27.4651   27.9127   22.0488 C   0  0  0  0  0  0  0  0  0  0  0  0
   27.3386   28.7519   23.2764 N   0  0  0  0  0  0  0  0  0  0  0  0
   24.9881   21.8024   20.6161 O   0  0  0  0  0  0  0  0  0  0  0  0
  2  1  1  6  0  0  0
  2  3  1  0  0  0  0
  2  5  1  0  0  0  0
  3  4  1  0  0  0  0
  3 10  1  0  0  0  0
  5  6  1  0  0  0  0
  6  7  1  0  0  0  0
  7  8  1  0  0  0  0
  8  9  1  0  0  0  0
M  END
>  <CHROM.1>
-14.29708715,-62.81439683,-172.41861830,177.99017567,-178.92567061,25.81745958
24.90054173,20.57344896,-2.80827918,1.16654015,1.72319790

>  <Name>
ligand

>  <RI>
0

>  <Rbt.Current_Directory>
/home/itssahil/PROJECTS/Mol_Feturizer/New_Systems/rnas/3DJ2

>  <Rbt.Executable>
rbdock ($Id: //depot/dev/client3/rdock/2013.1/src/exe/rbdock.cxx#4 $)

>  <Rbt.Library>
libRbt.so (2013.1, Build901 2013/11/27)

>  <Rbt.Parameter_File>
/export/apps/rDock/src/rDock_2013.1_src/data/scripts/dock_solv.prm

>  <Rbt.Receptor>
prm/blind_docking_80.prm

>  <SCORE>
-5.66078

>  <SCORE.INTER>
-4.0811

>  <SCORE.INTER.CONST>
1

>  <SCORE.INTER.POLAR>
0

>  <SCORE.INTER.ROT>
5

>  <SCORE.INTER.SOLV>
6.79073

>  <SCORE.INTER.VDW>
-11.9176

>  <SCORE.INTER.norm>
-0.40811

>  <SCORE.INTRA>
-1.57968

>  <SCORE.INTRA.DIHEDRAL>
-2.42395

>  <SCORE.INTRA.DIHEDRAL.0>
4.28128

>  <SCORE.INTRA.POLAR>
0

>  <SCORE.INTRA.POLAR.0>
0

>  <SCORE.INTRA.REPUL>
0

>  <SCORE.INTRA.REPUL.0>
0

>  <SCORE.INTRA.SOLV>
-0.508922

>  <SCORE.INTRA.SOLV.lig_0>
-32.3374

>  <SCORE.INTRA.VDW>
-0.113247

>  <SCORE.INTRA.VDW.0>
-0.659551

>  <SCORE.INTRA.norm>
-0.157968

>  <SCORE.RESTR>
0

>  <SCORE.RESTR.CAVITY>
0

>  <SCORE.RESTR.norm>
0

>  <SCORE.SYSTEM>
0

>  <SCORE.SYSTEM.CONST>
0

>  <SCORE.SYSTEM.DIHEDRAL>
0

>  <SCORE.SYSTEM.SOLV>
0

>  <SCORE.SYSTEM.norm>
0

>  <SCORE.heavy>
10

>  <SCORE.norm>
-0.566078

>  <RMSD>
11.336

$$$$
ligand
 OpenBabel11021811473D
libRbt.so/2013.1/901 2013/11/27
 10  9  0  0  0  0  0  0  0  0999 V2000
   28.3720   16.1108    9.7544 N   0  0  0  0  0  0  0  0  0  0  0  0
   27.3958   15.1789   10.3852 C   0  0  2  0  0  0  0  0  0  0  0  0
   27.9846   14.4640   11.6015 C   0  0  0  0  0  0  0  0  0  0  0  0
   29.1593   14.0830   11.6303 O   0  0  0  0  0  0  0  0  0  0  0  0
   26.8608   14.1753    9.3604 C   0  0  0  0  0  0  0  0  0  0  0  0
   25.8017   13.2274    9.9072 C   0  0  0  0  0  0  0  0  0  0  0  0
   24.5403   13.9878   10.3157 C   0  0  0  0  0  0  0  0  0  0  0  0
   23.4494   13.0475   10.8160 C   0  0  0  0  0  0  0  0  0  0  0  0
   22.2371   13.7735   11.2961 N   0  0  0  0  0  0  0  0  0  0  0  0
   27.2996   14.2695   12.6035 O   0  0  0  0  0  0  0  0  0  0  0  0
  2  1  1  6  0  0  0
  2  3  1  0  0  0  0
  2  5  1  0  0  0  0
  3  4  1  0  0  0  0
  3 10  1  0  0  0  0
  5  6  1  0  0  0  0
  6  7  1  0  0  0  0
  7  8  1  0  0  0  0
  8  9  1  0  0  0  0
M  END
>  <CHROM.1>
-37.93754943,-177.08317341,64.61737284,177.82578795,176.62303530,26.33234170
14.21994779,10.79565583,0.04172780,-0.24964202,-1.26538515

>  <Name>
ligand

>  <RI>
0

>  <Rbt.Current_Directory>
/home/itssahil/PROJECTS/Mol_Feturizer/New_Systems/rnas/3DJ2

>  <Rbt.Executable>
rbdock ($Id: //depot/dev/client3/rdock/2013.1/src/exe/rbdock.cxx#4 $)

>  <Rbt.Library>
libRbt.so (2013.1, Build901 2013/11/27)

>  <Rbt.Parameter_File>
/export/apps/rDock/src/rDock_2013.1_src/data/scripts/dock_solv.prm

>  <Rbt.Receptor>
prm/blind_docking_40.prm

>  <SCORE>
-6.49466

>  <SCORE.INTER>
-4.6686

>  <SCORE.INTER.CONST>
1

>  <SCORE.INTER.POLAR>
0

>  <SCORE.INTER.ROT>
5

>  <SCORE.INTER.SOLV>
12.7283

>  <SCORE.INTER.VDW>
-14.2885

>  <SCORE.INTER.norm>
-0.46686

>  <SCORE.INTRA>
-1.82607

>  <SCORE.INTRA.DIHEDRAL>
-2.53696

>  <SCORE.INTRA.DIHEDRAL.0>
4.28128

>  <SCORE.INTRA.POLAR>
0

>  <SCORE.INTRA.POLAR.0>
0

>  <SCORE.INTRA.REPUL>
0

>  <SCORE.INTRA.REPUL.0>
0

>  <SCORE.INTRA.SOLV>
-1.09346

>  <SCORE.INTRA.SOLV.lig_0>
-32.3374

>  <SCORE.INTRA.VDW>
-0.0108578

>  <SCORE.INTRA.VDW.0>
-0.659551

>  <SCORE.INTRA.norm>
-0.182607

>  <SCORE.RESTR>
0

>  <SCORE.RESTR.CAVITY>
0

>  <SCORE.RESTR.norm>
0

>  <SCORE.SYSTEM>
0

>  <SCORE.SYSTEM.CONST>
0

>  <SCORE.SYSTEM.DIHEDRAL>
0

>  <SCORE.SYSTEM.SOLV>
0

>  <SCORE.SYSTEM.norm>
0

>  <SCORE.heavy>
10

>  <SCORE.norm>
-0.649466

>  <RMSD>
11.355

$$$$
ligand
 OpenBabel11021811473D
libRbt.so/2013.1/901 2013/11/27
 10  9  0  0  0  0  0  0  0  0999 V2000
   27.4222   14.3755    8.8732 N   0  0  0  0  0  0  0  0  0  0  0  0
   26.7259   14.5499   10.1786 C   0  0  2  0  0  0  0  0  0  0  0  0
   27.6063   14.1434   11.3604 C   0  0  0  0  0  0  0  0  0  0  0  0
   27.2504   14.3169   12.5305 O   0  0  0  0  0  0  0  0  0  0  0  0
   25.3973   13.7894   10.1927 C   0  0  0  0  0  0  0  0  0  0  0  0
   24.5035   14.1140   11.3823 C   0  0  0  0  0  0  0  0  0  0  0  0
   23.1982   13.3209   11.3228 C   0  0  0  0  0  0  0  0  0  0  0  0
   22.2910   13.6340   12.5075 C   0  0  0  0  0  0  0  0  0  0  0  0
   21.0139   12.8623   12.4763 N   0  0  0  0  0  0  0  0  0  0  0  0
   28.6950   13.6048   11.1716 O   0  0  0  0  0  0  0  0  0  0  0  0
  2  1  1  6  0  0  0
  2  3  1  0  0  0  0
  2  5  1  0  0  0  0
  3  4  1  0  0  0  0
  3 10  1  0  0  0  0
  5  6  1  0  0  0  0
  6  7  1  0  0  0  0
  7  8  1  0  0  0  0
  8  9  1  0  0  0  0
M  END
>  <CHROM.1>
173.99554724,-169.42027070,179.82013294,179.99273004,-179.54292520,25.44157639
13.86494685,11.22294992,0.25988671,-0.12178911,-1.48257062

>  <Name>
ligand

>  <RI>
0

>  <Rbt.Current_Directory>
/home/itssahil/PROJECTS/Mol_Feturizer/New_Systems/rnas/3DJ2

>  <Rbt.Executable>
rbdock ($Id: //depot/dev/client3/rdock/2013.1/src/exe/rbdock.cxx#4 $)

>  <Rbt.Library>
libRbt.so (2013.1, Build901 2013/11/27)

>  <Rbt.Parameter_File>
/export/apps/rDock/src/rDock_2013.1_src/data/scripts/dock_solv.prm

>  <Rbt.Receptor>
prm/blind_docking_40.prm

>  <SCORE>
-6.31912

>  <SCORE.INTER>
-4.55776

>  <SCORE.INTER.CONST>
1

>  <SCORE.INTER.POLAR>
0

>  <SCORE.INTER.ROT>
5

>  <SCORE.INTER.SOLV>
6.75802

>  <SCORE.INTER.VDW>
-12.2245

>  <SCORE.INTER.norm>
-0.455776

>  <SCORE.INTRA>
-1.76136

>  <SCORE.INTRA.DIHEDRAL>
-2.37425

>  <SCORE.INTRA.DIHEDRAL.0>
4.28128

>  <SCORE.INTRA.POLAR>
0

>  <SCORE.INTRA.POLAR.0>
0

>  <SCORE.INTRA.REPUL>
0

>  <SCORE.INTRA.REPUL.0>
0

>  <SCORE.INTRA.SOLV>
-1.31692

>  <SCORE.INTRA.SOLV.lig_0>
-32.3374

>  <SCORE.INTRA.VDW>
0.0842244

>  <SCORE.INTRA.VDW.0>
-0.659551

>  <SCORE.INTRA.norm>
-0.176136

>  <SCORE.RESTR>
0

>  <SCORE.RESTR.CAVITY>
0

>  <SCORE.RESTR.norm>
0

>  <SCORE.SYSTEM>
0

>  <SCORE.SYSTEM.CONST>
0

>  <SCORE.SYSTEM.DIHEDRAL>
0

>  <SCORE.SYSTEM.SOLV>
0

>  <SCORE.SYSTEM.norm>
0

>  <SCORE.heavy>
10

>  <SCORE.norm>
-0.631912

>  <RMSD>
11.424

$$$$
ligand
 OpenBabel11021811473D
libRbt.so/2013.1/901 2013/11/27
 10  9  0  0  0  0  0  0  0  0999 V2000
   27.4820   14.3405    8.8723 N   0  0  0  0  0  0  0  0  0  0  0  0
   26.7667   14.5307   10.1652 C   0  0  2  0  0  0  0  0  0  0  0  0
   27.6298   14.1387   11.3646 C   0  0  0  0  0  0  0  0  0  0  0  0
   27.2674   14.3483   12.5268 O   0  0  0  0  0  0  0  0  0  0  0  0
   25.4380   13.7702   10.1691 C   0  0  0  0  0  0  0  0  0  0  0  0
   24.5244   14.1134   11.3383 C   0  0  0  0  0  0  0  0  0  0  0  0
   23.2183   13.3227   11.2670 C   0  0  0  0  0  0  0  0  0  0  0  0
   22.2815   13.6718   12.4180 C   0  0  0  0  0  0  0  0  0  0  0  0
   21.0027   12.9036   12.3749 N   0  0  0  0  0  0  0  0  0  0  0  0
   28.7100   13.5759   11.1991 O   0  0  0  0  0  0  0  0  0  0  0  0
  2  1  1  6  0  0  0
  2  3  1  0  0  0  0
  2  5  1  0  0  0  0
  3  4  1  0  0  0  0
  3 10  1  0  0  0  0
  5  6  1  0  0  0  0
  6  7  1  0  0  0  0
  7  8  1  0  0  0  0
  8  9  1  0  0  0  0
M  END
>  <CHROM.1>
172.65787287,-169.17105042,179.63109055,-179.04068578,-179.56586652,25.46296458
13.86567039,11.19345734,0.23991515,-0.11965767,-1.50235743

>  <Name>
ligand

>  <RI>
0

>  <Rbt.Current_Directory>
/home/itssahil/PROJECTS/Mol_Feturizer/New_Systems/rnas/3DJ2

>  <Rbt.Executable>
rbdock ($Id: //depot/dev/client3/rdock/2013.1/src/exe/rbdock.cxx#4 $)

>  <Rbt.Library>
libRbt.so (2013.1, Build901 2013/11/27)

>  <Rbt.Parameter_File>
/export/apps/rDock/src/rDock_2013.1_src/data/scripts/dock_solv.prm

>  <Rbt.Receptor>
prm/blind_docking_40.prm

>  <SCORE>
-6.28721

>  <SCORE.INTER>
-4.50466

>  <SCORE.INTER.CONST>
1

>  <SCORE.INTER.POLAR>
0

>  <SCORE.INTER.ROT>
5

>  <SCORE.INTER.SOLV>
6.82389

>  <SCORE.INTER.VDW>
-12.2111

>  <SCORE.INTER.norm>
-0.450466

>  <SCORE.INTRA>
-1.78255

>  <SCORE.INTRA.DIHEDRAL>
-2.35388

>  <SCORE.INTRA.DIHEDRAL.0>
4.28128

>  <SCORE.INTRA.POLAR>
0

>  <SCORE.INTRA.POLAR.0>
0

>  <SCORE.INTRA.REPUL>
0

>  <SCORE.INTRA.REPUL.0>
0

>  <SCORE.INTRA.SOLV>
-1.3169

>  <SCORE.INTRA.SOLV.lig_0>
-32.3374

>  <SCORE.INTRA.VDW>
0.0528385

>  <SCORE.INTRA.VDW.0>
-0.659551

>  <SCORE.INTRA.norm>
-0.178255

>  <SCORE.RESTR>
0

>  <SCORE.RESTR.CAVITY>
0

>  <SCORE.RESTR.norm>
0

>  <SCORE.SYSTEM>
0

>  <SCORE.SYSTEM.CONST>
0

>  <SCORE.SYSTEM.DIHEDRAL>
0

>  <SCORE.SYSTEM.SOLV>
0

>  <SCORE.SYSTEM.norm>
0

>  <SCORE.heavy>
10

>  <SCORE.norm>
-0.628721

>  <RMSD>
11.436

$$$$
ligand
 OpenBabel11021811473D
libRbt.so/2013.1/901 2013/11/27
 10  9  0  0  0  0  0  0  0  0999 V2000
   27.0052   13.9318    9.0419 N   0  0  0  0  0  0  0  0  0  0  0  0
   26.8322   14.8634   10.1915 C   0  0  2  0  0  0  0  0  0  0  0  0
   28.1695   15.2658   10.8136 C   0  0  0  0  0  0  0  0  0  0  0  0
   28.9219   14.4380   11.3375 O   0  0  0  0  0  0  0  0  0  0  0  0
   25.8931   14.2638   11.2414 C   0  0  0  0  0  0  0  0  0  0  0  0
   24.4759   14.0139   10.7430 C   0  0  0  0  0  0  0  0  0  0  0  0
   23.5635   13.5604   11.8823 C   0  0  0  0  0  0  0  0  0  0  0  0
   22.1933   13.1279   11.3725 C   0  0  0  0  0  0  0  0  0  0  0  0
   21.4492   14.2365   10.7057 N   0  0  0  0  0  0  0  0  0  0  0  0
   28.5440   16.4362   10.7856 O   0  0  0  0  0  0  0  0  0  0  0  0
  2  1  1  6  0  0  0
  2  3  1  0  0  0  0
  2  5  1  0  0  0  0
  3  4  1  0  0  0  0
  3 10  1  0  0  0  0
  5  6  1  0  0  0  0
  6  7  1  0  0  0  0
  7  8  1  0  0  0  0
  8  9  1  0  0  0  0
M  END
>  <CHROM.1>
-62.58004399,-62.52909111,-173.83317153,-172.39861308,-62.18865002,25.74660850
14.42709578,10.82315526,0.04168788,-0.25985433,-1.70339820

>  <Name>
ligand

>  <RI>
0

>  <Rbt.Current_Directory>
/home/itssahil/PROJECTS/Mol_Feturizer/New_Systems/rnas/3DJ2

>  <Rbt.Executable>
rbdock ($Id: //depot/dev/client3/rdock/2013.1/src/exe/rbdock.cxx#4 $)

>  <Rbt.Library>
libRbt.so (2013.1, Build901 2013/11/27)

>  <Rbt.Parameter_File>
/export/apps/rDock/src/rDock_2013.1_src/data/scripts/dock_solv.prm

>  <Rbt.Receptor>
prm/blind_docking_40.prm

>  <SCORE>
-5.45923

>  <SCORE.INTER>
-4.41541

>  <SCORE.INTER.CONST>
1

>  <SCORE.INTER.POLAR>
0

>  <SCORE.INTER.ROT>
5

>  <SCORE.INTER.SOLV>
9.27249

>  <SCORE.INTER.VDW>
-12.9678

>  <SCORE.INTER.norm>
-0.441541

>  <SCORE.INTRA>
-1.04382

>  <SCORE.INTRA.DIHEDRAL>
-2.32036

>  <SCORE.INTRA.DIHEDRAL.0>
4.28128

>  <SCORE.INTRA.POLAR>
0

>  <SCORE.INTRA.POLAR.0>
0

>  <SCORE.INTRA.REPUL>
0

>  <SCORE.INTRA.REPUL.0>
0

>  <SCORE.INTRA.SOLV>
0.367634

>  <SCORE.INTRA.SOLV.lig_0>
-32.3374

>  <SCORE.INTRA.VDW>
-0.06746

>  <SCORE.INTRA.VDW.0>
-0.659551

>  <SCORE.INTRA.norm>
-0.104382

>  <SCORE.RESTR>
0

>  <SCORE.RESTR.CAVITY>
0

>  <SCORE.RESTR.norm>
0

>  <SCORE.SYSTEM>
0

>  <SCORE.SYSTEM.CONST>
0

>  <SCORE.SYSTEM.DIHEDRAL>
0

>  <SCORE.SYSTEM.SOLV>
0

>  <SCORE.SYSTEM.norm>
0

>  <SCORE.heavy>
10

>  <SCORE.norm>
-0.545923

>  <RMSD>
11.500

$$$$
ligand
 OpenBabel11021811473D
libRbt.so/2013.1/901 2013/11/27
 10  9  0  0  0  0  0  0  0  0999 V2000
   26.1146   23.3506   17.5781 N   0  0  0  0  0  0  0  0  0  0  0  0
   24.7617   23.8466   17.9560 C   0  0  2  0  0  0  0  0  0  0  0  0
   24.5760   25.3267   17.6212 C   0  0  0  0  0  0  0  0  0  0  0  0
   23.5952   25.9673   18.0130 O   0  0  0  0  0  0  0  0  0  0  0  0
   24.4761   23.5753   19.4354 C   0  0  0  0  0  0  0  0  0  0  0  0
   25.5445   24.1005   20.3852 C   0  0  0  0  0  0  0  0  0  0  0  0
   25.5308   25.6280   20.4388 C   0  0  0  0  0  0  0  0  0  0  0  0
   26.6108   26.1717   21.3674 C   0  0  0  0  0  0  0  0  0  0  0  0
   26.6644   27.6631   21.3795 N   0  0  0  0  0  0  0  0  0  0  0  0
   25.4227   25.9291   16.9645 O   0  0  0  0  0  0  0  0  0  0  0  0
  2  1  1  1  0  0  0
  2  3  1  0  0  0  0
  2  5  1  0  0  0  0
  3  4  1  0  0  0  0
  3 10  1  0  0  0  0
  5  6  1  0  0  0  0
  6  7  1  0  0  0  0
  7  8  1  0  0  0  0
  8  9  1  0  0  0  0
M  END
>  <CHROM.1>
-170.31180391,53.23820975,70.09779101,-179.01843842,176.92645079,25.32125607
25.18485621,19.09795511,-2.72522788,-1.18329677,-0.06898671

>  <Name>
ligand

>  <RI>
0

>  <Rbt.Current_Directory>
/home/itssahil/PROJECTS/Mol_Feturizer/New_Systems/rnas/3DJ2

>  <Rbt.Executable>
rbdock ($Id: //depot/dev/client3/rdock/2013.1/src/exe/rbdock.cxx#4 $)

>  <Rbt.Library>
libRbt.so (2013.1, Build901 2013/11/27)

>  <Rbt.Parameter_File>
/export/apps/rDock/src/rDock_2013.1_src/data/scripts/dock_solv.prm

>  <Rbt.Receptor>
prm/blind_docking_80.prm

>  <SCORE>
-3.64287

>  <SCORE.INTER>
-3.15627

>  <SCORE.INTER.CONST>
1

>  <SCORE.INTER.POLAR>
0

>  <SCORE.INTER.ROT>
5

>  <SCORE.INTER.SOLV>
6.19481

>  <SCORE.INTER.VDW>
-11.1024

>  <SCORE.INTER.norm>
-0.315627

>  <SCORE.INTRA>
-0.486601

>  <SCORE.INTRA.DIHEDRAL>
-2.08477

>  <SCORE.INTRA.DIHEDRAL.0>
4.28128

>  <SCORE.INTRA.POLAR>
0

>  <SCORE.INTRA.POLAR.0>
0

>  <SCORE.INTRA.REPUL>
0

>  <SCORE.INTRA.REPUL.0>
0

>  <SCORE.INTRA.SOLV>
0.159404

>  <SCORE.INTRA.SOLV.lig_0>
-32.3374

>  <SCORE.INTRA.VDW>
0.476081

>  <SCORE.INTRA.VDW.0>
-0.659551

>  <SCORE.INTRA.norm>
-0.0486601

>  <SCORE.RESTR>
0

>  <SCORE.RESTR.CAVITY>
0

>  <SCORE.RESTR.norm>
0

>  <SCORE.SYSTEM>
0

>  <SCORE.SYSTEM.CONST>
0

>  <SCORE.SYSTEM.DIHEDRAL>
0

>  <SCORE.SYSTEM.SOLV>
0

>  <SCORE.SYSTEM.norm>
0

>  <SCORE.heavy>
10

>  <SCORE.norm>
-0.364287

>  <RMSD>
11.516

$$$$
ligand
 OpenBabel11021811473D
libRbt.so/2013.1/901 2013/11/27
 10  9  0  0  0  0  0  0  0  0999 V2000
   27.1515    9.7487   28.4811 N   0  0  0  0  0  0  0  0  0  0  0  0
   28.1535    8.9240   27.7498 C   0  0  2  0  0  0  0  0  0  0  0  0
   27.9948    9.0347   26.2333 C   0  0  0  0  0  0  0  0  0  0  0  0
   26.8974    9.2392   25.7043 O   0  0  0  0  0  0  0  0  0  0  0  0
   28.0939    7.4638   28.2060 C   0  0  0  0  0  0  0  0  0  0  0  0
   26.7874    6.7567   27.8706 C   0  0  0  0  0  0  0  0  0  0  0  0
   26.8913    5.2545   28.1330 C   0  0  0  0  0  0  0  0  0  0  0  0
   25.6011    4.5263   27.7731 C   0  0  0  0  0  0  0  0  0  0  0  0
   25.2336    4.6797   26.3348 N   0  0  0  0  0  0  0  0  0  0  0  0
   28.9735    8.9451   25.4950 O   0  0  0  0  0  0  0  0  0  0  0  0
  2  1  1  1  0  0  0
  2  3  1  0  0  0  0
  2  5  1  0  0  0  0
  3  4  1  0  0  0  0
  3 10  1  0  0  0  0
  5  6  1  0  0  0  0
  6  7  1  0  0  0  0
  7  8  1  0  0  0  0
  8  9  1  0  0  0  0
M  END
>  <CHROM.1>
-30.31888293,65.17003190,170.12023439,-178.73912825,60.09320592,27.18064220
7.47004579,27.16319403,-0.32310766,1.09912519,1.74477509

>  <Name>
ligand

>  <RI>
0

>  <Rbt.Current_Directory>
/home/itssahil/PROJECTS/Mol_Feturizer/New_Systems/rnas/3DJ2

>  <Rbt.Executable>
rbdock ($Id: //depot/dev/client3/rdock/2013.1/src/exe/rbdock.cxx#4 $)

>  <Rbt.Library>
libRbt.so (2013.1, Build901 2013/11/27)

>  <Rbt.Parameter_File>
/export/apps/rDock/src/rDock_2013.1_src/data/scripts/dock_solv.prm

>  <Rbt.Receptor>
prm/blind_docking_60.prm

>  <SCORE>
-4.17222

>  <SCORE.INTER>
-3.22544

>  <SCORE.INTER.CONST>
1

>  <SCORE.INTER.POLAR>
0

>  <SCORE.INTER.ROT>
5

>  <SCORE.INTER.SOLV>
5.30726

>  <SCORE.INTER.VDW>
-10.8527

>  <SCORE.INTER.norm>
-0.322544

>  <SCORE.INTRA>
-0.946781

>  <SCORE.INTRA.DIHEDRAL>
-2.21121

>  <SCORE.INTRA.DIHEDRAL.0>
4.28128

>  <SCORE.INTRA.POLAR>
0

>  <SCORE.INTRA.POLAR.0>
0

>  <SCORE.INTRA.REPUL>
0

>  <SCORE.INTRA.REPUL.0>
0

>  <SCORE.INTRA.SOLV>
0.392397

>  <SCORE.INTRA.SOLV.lig_0>
-32.3374

>  <SCORE.INTRA.VDW>
-0.0373749

>  <SCORE.INTRA.VDW.0>
-0.659551

>  <SCORE.INTRA.norm>
-0.0946781

>  <SCORE.RESTR>
0

>  <SCORE.RESTR.CAVITY>
0

>  <SCORE.RESTR.norm>
0

>  <SCORE.SYSTEM>
0

>  <SCORE.SYSTEM.CONST>
0

>  <SCORE.SYSTEM.DIHEDRAL>
0

>  <SCORE.SYSTEM.SOLV>
0

>  <SCORE.SYSTEM.norm>
0

>  <SCORE.heavy>
10

>  <SCORE.norm>
-0.417222

>  <RMSD>
11.527

$$$$
ligand
 OpenBabel11021811473D
libRbt.so/2013.1/901 2013/11/27
 10  9  0  0  0  0  0  0  0  0999 V2000
   23.8481   25.3554   19.7754 N   0  0  0  0  0  0  0  0  0  0  0  0
   25.1766   24.8675   19.3102 C   0  0  2  0  0  0  0  0  0  0  0  0
   25.4337   23.4171   19.7192 C   0  0  0  0  0  0  0  0  0  0  0  0
   26.2838   22.7201   19.1559 O   0  0  0  0  0  0  0  0  0  0  0  0
   26.2971   25.7870   19.8030 C   0  0  0  0  0  0  0  0  0  0  0  0
   26.3906   25.9021   21.3187 C   0  0  0  0  0  0  0  0  0  0  0  0
   27.6264   26.6993   21.7351 C   0  0  0  0  0  0  0  0  0  0  0  0
   27.4827   28.1806   21.4040 C   0  0  0  0  0  0  0  0  0  0  0  0
   26.4097   28.8482   22.1980 N   0  0  0  0  0  0  0  0  0  0  0  0
   24.8078   22.9101   20.6478 O   0  0  0  0  0  0  0  0  0  0  0  0
  2  1  1  1  0  0  0
  2  3  1  0  0  0  0
  2  5  1  0  0  0  0
  3  4  1  0  0  0  0
  3 10  1  0  0  0  0
  5  6  1  0  0  0  0
  6  7  1  0  0  0  0
  7  8  1  0  0  0  0
  8  9  1  0  0  0  0
M  END
>  <CHROM.1>
160.61774542,59.94498248,173.31807367,70.97802684,66.11768808,25.97732843
25.42767868,20.50945929,1.91044605,0.24129890,-2.81110489

>  <Name>
ligand

>  <RI>
0

>  <Rbt.Current_Directory>
/home/itssahil/PROJECTS/Mol_Feturizer/New_Systems/rnas/3DJ2

>  <Rbt.Executable>
rbdock ($Id: //depot/dev/client3/rdock/2013.1/src/exe/rbdock.cxx#4 $)

>  <Rbt.Library>
libRbt.so (2013.1, Build901 2013/11/27)

>  <Rbt.Parameter_File>
/export/apps/rDock/src/rDock_2013.1_src/data/scripts/dock_solv.prm

>  <Rbt.Receptor>
prm/blind_docking_100.prm

>  <SCORE>
-2.00915

>  <SCORE.INTER>
-1.87069

>  <SCORE.INTER.CONST>
1

>  <SCORE.INTER.POLAR>
0

>  <SCORE.INTER.ROT>
5

>  <SCORE.INTER.SOLV>
9.87021

>  <SCORE.INTER.VDW>
-11.4705

>  <SCORE.INTER.norm>
-0.187069

>  <SCORE.INTRA>
-0.138458

>  <SCORE.INTRA.DIHEDRAL>
-1.98273

>  <SCORE.INTRA.DIHEDRAL.0>
4.28128

>  <SCORE.INTRA.POLAR>
0

>  <SCORE.INTRA.POLAR.0>
0

>  <SCORE.INTRA.REPUL>
0

>  <SCORE.INTRA.REPUL.0>
0

>  <SCORE.INTRA.SOLV>
0.840965

>  <SCORE.INTRA.SOLV.lig_0>
-32.3374

>  <SCORE.INTRA.VDW>
0.432428

>  <SCORE.INTRA.VDW.0>
-0.659551

>  <SCORE.INTRA.norm>
-0.0138458

>  <SCORE.RESTR>
0

>  <SCORE.RESTR.CAVITY>
0

>  <SCORE.RESTR.norm>
0

>  <SCORE.SYSTEM>
0

>  <SCORE.SYSTEM.CONST>
0

>  <SCORE.SYSTEM.DIHEDRAL>
0

>  <SCORE.SYSTEM.SOLV>
0

>  <SCORE.SYSTEM.norm>
0

>  <SCORE.heavy>
10

>  <SCORE.norm>
-0.200915

>  <RMSD>
11.542

$$$$
ligand
 OpenBabel11021811473D
libRbt.so/2013.1/901 2013/11/27
 10  9  0  0  0  0  0  0  0  0999 V2000
   26.9377   13.9448    8.7082 N   0  0  0  0  0  0  0  0  0  0  0  0
   26.8274   14.9003    9.8458 C   0  0  2  0  0  0  0  0  0  0  0  0
   28.1967   15.3317   10.3712 C   0  0  0  0  0  0  0  0  0  0  0  0
   28.4152   16.4849   10.7565 O   0  0  0  0  0  0  0  0  0  0  0  0
   25.9655   14.3142   10.9672 C   0  0  0  0  0  0  0  0  0  0  0  0
   24.5127   14.0738   10.5788 C   0  0  0  0  0  0  0  0  0  0  0  0
   23.6760   13.6775   11.7949 C   0  0  0  0  0  0  0  0  0  0  0  0
   22.2113   13.4642   11.4293 C   0  0  0  0  0  0  0  0  0  0  0  0
   21.3678   13.1091   12.6082 N   0  0  0  0  0  0  0  0  0  0  0  0
   29.1197   14.5233   10.4459 O   0  0  0  0  0  0  0  0  0  0  0  0
  2  1  1  6  0  0  0
  2  3  1  0  0  0  0
  2  5  1  0  0  0  0
  3  4  1  0  0  0  0
  3 10  1  0  0  0  0
  5  6  1  0  0  0  0
  6  7  1  0  0  0  0
  7  8  1  0  0  0  0
  8  9  1  0  0  0  0
M  END
>  <CHROM.1>
142.59378412,-64.16595663,-172.01332050,178.68072263,-178.58180159,25.76534268
14.39673022,10.75832648,0.07862460,-0.38442801,-2.11066652

>  <Name>
ligand

>  <RI>
0

>  <Rbt.Current_Directory>
/home/itssahil/PROJECTS/Mol_Feturizer/New_Systems/rnas/3DJ2

>  <Rbt.Executable>
rbdock ($Id: //depot/dev/client3/rdock/2013.1/src/exe/rbdock.cxx#4 $)

>  <Rbt.Library>
libRbt.so (2013.1, Build901 2013/11/27)

>  <Rbt.Parameter_File>
/export/apps/rDock/src/rDock_2013.1_src/data/scripts/dock_solv.prm

>  <Rbt.Receptor>
prm/blind_docking_80.prm

>  <SCORE>
-7.01027

>  <SCORE.INTER>
-5.30727

>  <SCORE.INTER.CONST>
1

>  <SCORE.INTER.POLAR>
0

>  <SCORE.INTER.ROT>
5

>  <SCORE.INTER.SOLV>
5.711

>  <SCORE.INTER.VDW>
-12.3752

>  <SCORE.INTER.norm>
-0.530727

>  <SCORE.INTRA>
-1.70299

>  <SCORE.INTRA.DIHEDRAL>
-2.44361

>  <SCORE.INTRA.DIHEDRAL.0>
4.28128

>  <SCORE.INTRA.POLAR>
0

>  <SCORE.INTRA.POLAR.0>
0

>  <SCORE.INTRA.REPUL>
0

>  <SCORE.INTRA.REPUL.0>
0

>  <SCORE.INTRA.SOLV>
-0.535095

>  <SCORE.INTRA.SOLV.lig_0>
-32.3374

>  <SCORE.INTRA.VDW>
-0.213639

>  <SCORE.INTRA.VDW.0>
-0.659551

>  <SCORE.INTRA.norm>
-0.170299

>  <SCORE.RESTR>
0

>  <SCORE.RESTR.CAVITY>
0

>  <SCORE.RESTR.norm>
0

>  <SCORE.SYSTEM>
0

>  <SCORE.SYSTEM.CONST>
0

>  <SCORE.SYSTEM.DIHEDRAL>
0

>  <SCORE.SYSTEM.SOLV>
0

>  <SCORE.SYSTEM.norm>
0

>  <SCORE.heavy>
10

>  <SCORE.norm>
-0.701027

>  <RMSD>
11.592

$$$$
ligand
 OpenBabel11021811473D
libRbt.so/2013.1/901 2013/11/27
 10  9  0  0  0  0  0  0  0  0999 V2000
   26.9875   14.0242    8.6671 N   0  0  0  0  0  0  0  0  0  0  0  0
   26.8577   14.9472    9.8293 C   0  0  2  0  0  0  0  0  0  0  0  0
   28.2180   15.3748   10.3806 C   0  0  0  0  0  0  0  0  0  0  0  0
   28.4302   16.5255   10.7764 O   0  0  0  0  0  0  0  0  0  0  0  0
   25.9891   14.3238   10.9251 C   0  0  0  0  0  0  0  0  0  0  0  0
   24.5356   14.1088   10.5245 C   0  0  0  0  0  0  0  0  0  0  0  0
   23.6857   13.7086   11.7301 C   0  0  0  0  0  0  0  0  0  0  0  0
   22.2194   13.5272   11.3540 C   0  0  0  0  0  0  0  0  0  0  0  0
   21.3592   13.1949   12.5274 N   0  0  0  0  0  0  0  0  0  0  0  0
   29.1392   14.5655   10.4663 O   0  0  0  0  0  0  0  0  0  0  0  0
  2  1  1  6  0  0  0
  2  3  1  0  0  0  0
  2  5  1  0  0  0  0
  3  4  1  0  0  0  0
  3 10  1  0  0  0  0
  5  6  1  0  0  0  0
  6  7  1  0  0  0  0
  7  8  1  0  0  0  0
  8  9  1  0  0  0  0
M  END
>  <CHROM.1>
141.21476926,-65.34617266,-170.44386322,178.40791053,-177.46383386,25.78432984
14.44426658,10.72657133,0.07493203,-0.37414630,-2.09704020

>  <Name>
ligand

>  <RI>
0

>  <Rbt.Current_Directory>
/home/itssahil/PROJECTS/Mol_Feturizer/New_Systems/rnas/3DJ2

>  <Rbt.Executable>
rbdock ($Id: //depot/dev/client3/rdock/2013.1/src/exe/rbdock.cxx#4 $)

>  <Rbt.Library>
libRbt.so (2013.1, Build901 2013/11/27)

>  <Rbt.Parameter_File>
/export/apps/rDock/src/rDock_2013.1_src/data/scripts/dock_solv.prm

>  <Rbt.Receptor>
prm/blind_docking_40.prm

>  <SCORE>
-7.00618

>  <SCORE.INTER>
-5.37119

>  <SCORE.INTER.CONST>
1

>  <SCORE.INTER.POLAR>
0

>  <SCORE.INTER.ROT>
5

>  <SCORE.INTER.SOLV>
5.71809

>  <SCORE.INTER.VDW>
-12.4202

>  <SCORE.INTER.norm>
-0.537119

>  <SCORE.INTRA>
-1.63499

>  <SCORE.INTRA.DIHEDRAL>
-2.26396

>  <SCORE.INTRA.DIHEDRAL.0>
4.28128

>  <SCORE.INTRA.POLAR>
0

>  <SCORE.INTRA.POLAR.0>
0

>  <SCORE.INTRA.REPUL>
0

>  <SCORE.INTRA.REPUL.0>
0

>  <SCORE.INTRA.SOLV>
-0.556864

>  <SCORE.INTRA.SOLV.lig_0>
-32.3374

>  <SCORE.INTRA.VDW>
-0.224585

>  <SCORE.INTRA.VDW.0>
-0.659551

>  <SCORE.INTRA.norm>
-0.163499

>  <SCORE.RESTR>
0

>  <SCORE.RESTR.CAVITY>
0

>  <SCORE.RESTR.norm>
0

>  <SCORE.SYSTEM>
0

>  <SCORE.SYSTEM.CONST>
0

>  <SCORE.SYSTEM.DIHEDRAL>
0

>  <SCORE.SYSTEM.SOLV>
0

>  <SCORE.SYSTEM.norm>
0

>  <SCORE.heavy>
10

>  <SCORE.norm>
-0.700618

>  <RMSD>
11.601

$$$$
ligand
 OpenBabel11021811473D
libRbt.so/2013.1/901 2013/11/27
 10  9  0  0  0  0  0  0  0  0999 V2000
   23.1872   25.3069   20.0687 N   0  0  0  0  0  0  0  0  0  0  0  0
   24.2300   24.6732   19.2142 C   0  0  2  0  0  0  0  0  0  0  0  0
   24.5558   23.2486   19.6633 C   0  0  0  0  0  0  0  0  0  0  0  0
   25.1109   23.0143   20.7417 O   0  0  0  0  0  0  0  0  0  0  0  0
   25.4920   25.5383   19.1638 C   0  0  0  0  0  0  0  0  0  0  0  0
   26.0725   25.8778   20.5302 C   0  0  0  0  0  0  0  0  0  0  0  0
   27.3808   26.6564   20.3946 C   0  0  0  0  0  0  0  0  0  0  0  0
   27.9694   27.0158   21.7543 C   0  0  0  0  0  0  0  0  0  0  0  0
   27.1463   28.0180   22.4929 N   0  0  0  0  0  0  0  0  0  0  0  0
   24.2472   22.2871   18.9624 O   0  0  0  0  0  0  0  0  0  0  0  0
  2  1  1  1  0  0  0
  2  3  1  0  0  0  0
  2  5  1  0  0  0  0
  3  4  1  0  0  0  0
  3 10  1  0  0  0  0
  5  6  1  0  0  0  0
  6  7  1  0  0  0  0
  7  8  1  0  0  0  0
  8  9  1  0  0  0  0
M  END
>  <CHROM.1>
-67.17043868,55.01427227,175.95729301,179.47474989,-68.23111339,25.53866333
25.12382087,20.30267941,2.25082345,0.44366802,-2.98899816

>  <Name>
ligand

>  <RI>
0

>  <Rbt.Current_Directory>
/home/itssahil/PROJECTS/Mol_Feturizer/New_Systems/rnas/3DJ2

>  <Rbt.Executable>
rbdock ($Id: //depot/dev/client3/rdock/2013.1/src/exe/rbdock.cxx#4 $)

>  <Rbt.Library>
libRbt.so (2013.1, Build901 2013/11/27)

>  <Rbt.Parameter_File>
/export/apps/rDock/src/rDock_2013.1_src/data/scripts/dock_solv.prm

>  <Rbt.Receptor>
prm/blind_docking_80.prm

>  <SCORE>
-3.12419

>  <SCORE.INTER>
-2.23621

>  <SCORE.INTER.CONST>
1

>  <SCORE.INTER.POLAR>
0

>  <SCORE.INTER.ROT>
5

>  <SCORE.INTER.SOLV>
11.7493

>  <SCORE.INTER.VDW>
-12.3406

>  <SCORE.INTER.norm>
-0.223621

>  <SCORE.INTRA>
-0.887979

>  <SCORE.INTRA.DIHEDRAL>
-2.34686

>  <SCORE.INTRA.DIHEDRAL.0>
4.28128

>  <SCORE.INTRA.POLAR>
0

>  <SCORE.INTRA.POLAR.0>
0

>  <SCORE.INTRA.REPUL>
0

>  <SCORE.INTRA.REPUL.0>
0

>  <SCORE.INTRA.SOLV>
0.415622

>  <SCORE.INTRA.SOLV.lig_0>
-32.3374

>  <SCORE.INTRA.VDW>
0.0776425

>  <SCORE.INTRA.VDW.0>
-0.659551

>  <SCORE.INTRA.norm>
-0.0887979

>  <SCORE.RESTR>
0

>  <SCORE.RESTR.CAVITY>
0

>  <SCORE.RESTR.norm>
0

>  <SCORE.SYSTEM>
0

>  <SCORE.SYSTEM.CONST>
0

>  <SCORE.SYSTEM.DIHEDRAL>
0

>  <SCORE.SYSTEM.SOLV>
0

>  <SCORE.SYSTEM.norm>
0

>  <SCORE.heavy>
10

>  <SCORE.norm>
-0.312419

>  <RMSD>
11.627

$$$$
ligand
 OpenBabel11021811473D
libRbt.so/2013.1/901 2013/11/27
 10  9  0  0  0  0  0  0  0  0999 V2000
   27.0343   14.0809    8.5196 N   0  0  0  0  0  0  0  0  0  0  0  0
   26.8938   14.9878    9.6931 C   0  0  2  0  0  0  0  0  0  0  0  0
   28.2485   15.4506   10.2294 C   0  0  0  0  0  0  0  0  0  0  0  0
   28.3636   16.4631   10.9276 O   0  0  0  0  0  0  0  0  0  0  0  0
   26.0604   14.3274   10.7946 C   0  0  0  0  0  0  0  0  0  0  0  0
   24.5979   14.1123   10.4283 C   0  0  0  0  0  0  0  0  0  0  0  0
   23.7723   13.7341   11.6577 C   0  0  0  0  0  0  0  0  0  0  0  0
   22.3005   13.5360   11.3124 C   0  0  0  0  0  0  0  0  0  0  0  0
   21.4687   13.1960   12.5039 N   0  0  0  0  0  0  0  0  0  0  0  0
   29.2669   14.8035    9.9948 O   0  0  0  0  0  0  0  0  0  0  0  0
  2  1  1  6  0  0  0
  2  3  1  0  0  0  0
  2  5  1  0  0  0  0
  3  4  1  0  0  0  0
  3 10  1  0  0  0  0
  5  6  1  0  0  0  0
  6  7  1  0  0  0  0
  7  8  1  0  0  0  0
  8  9  1  0  0  0  0
M  END
>  <CHROM.1>
159.44998581,-67.15282778,-167.85960689,179.11444416,-178.70347286,25.84262682
14.48421260,10.61402517,0.09603752,-0.39012314,-2.08458385

>  <Name>
ligand

>  <RI>
0

>  <Rbt.Current_Directory>
/home/itssahil/PROJECTS/Mol_Feturizer/New_Systems/rnas/3DJ2

>  <Rbt.Executable>
rbdock ($Id: //depot/dev/client3/rdock/2013.1/src/exe/rbdock.cxx#4 $)

>  <Rbt.Library>
libRbt.so (2013.1, Build901 2013/11/27)

>  <Rbt.Parameter_File>
/export/apps/rDock/src/rDock_2013.1_src/data/scripts/dock_solv.prm

>  <Rbt.Receptor>
prm/blind_docking_80.prm

>  <SCORE>
-6.93114

>  <SCORE.INTER>
-5.47689

>  <SCORE.INTER.CONST>
1

>  <SCORE.INTER.POLAR>
0

>  <SCORE.INTER.ROT>
5

>  <SCORE.INTER.SOLV>
5.77948

>  <SCORE.INTER.VDW>
-12.5111

>  <SCORE.INTER.norm>
-0.547689

>  <SCORE.INTRA>
-1.45425

>  <SCORE.INTRA.DIHEDRAL>
-1.97795

>  <SCORE.INTRA.DIHEDRAL.0>
4.28128

>  <SCORE.INTRA.POLAR>
0

>  <SCORE.INTRA.POLAR.0>
0

>  <SCORE.INTRA.REPUL>
0

>  <SCORE.INTRA.REPUL.0>
0

>  <SCORE.INTRA.SOLV>
-0.580026

>  <SCORE.INTRA.SOLV.lig_0>
-32.3374

>  <SCORE.INTRA.VDW>
-0.175258

>  <SCORE.INTRA.VDW.0>
-0.659551

>  <SCORE.INTRA.norm>
-0.145425

>  <SCORE.RESTR>
0

>  <SCORE.RESTR.CAVITY>
0

>  <SCORE.RESTR.norm>
0

>  <SCORE.SYSTEM>
0

>  <SCORE.SYSTEM.CONST>
0

>  <SCORE.SYSTEM.DIHEDRAL>
0

>  <SCORE.SYSTEM.SOLV>
0

>  <SCORE.SYSTEM.norm>
0

>  <SCORE.heavy>
10

>  <SCORE.norm>
-0.693114

>  <RMSD>
11.671

$$$$
ligand
 OpenBabel11021811473D
libRbt.so/2013.1/901 2013/11/27
 10  9  0  0  0  0  0  0  0  0999 V2000
   27.0164   14.0346    8.5293 N   0  0  0  0  0  0  0  0  0  0  0  0
   26.8737   14.9596    9.6884 C   0  0  2  0  0  0  0  0  0  0  0  0
   28.2273   15.4334   10.2178 C   0  0  0  0  0  0  0  0  0  0  0  0
   28.3375   16.4461   10.9166 O   0  0  0  0  0  0  0  0  0  0  0  0
   26.0411   14.3151   10.7998 C   0  0  0  0  0  0  0  0  0  0  0  0
   24.5766   14.1016   10.4405 C   0  0  0  0  0  0  0  0  0  0  0  0
   23.7528   13.7436   11.6771 C   0  0  0  0  0  0  0  0  0  0  0  0
   22.2836   13.5237   11.3345 C   0  0  0  0  0  0  0  0  0  0  0  0
   21.4540   13.1991   12.5319 N   0  0  0  0  0  0  0  0  0  0  0  0
   29.2499   14.7953    9.9769 O   0  0  0  0  0  0  0  0  0  0  0  0
  2  1  1  6  0  0  0
  2  3  1  0  0  0  0
  2  5  1  0  0  0  0
  3  4  1  0  0  0  0
  3 10  1  0  0  0  0
  5  6  1  0  0  0  0
  6  7  1  0  0  0  0
  7  8  1  0  0  0  0
  8  9  1  0  0  0  0
M  END
>  <CHROM.1>
160.54285140,-67.61864663,-167.73493565,-179.89144560,-178.86402380,25.82321007
14.47045783,10.61891109,0.09761080,-0.39144279,-2.09689664

>  <Name>
ligand

>  <RI>
0

>  <Rbt.Current_Directory>
/home/itssahil/PROJECTS/Mol_Feturizer/New_Systems/rnas/3DJ2

>  <Rbt.Executable>
rbdock ($Id: //depot/dev/client3/rdock/2013.1/src/exe/rbdock.cxx#4 $)

>  <Rbt.Library>
libRbt.so (2013.1, Build901 2013/11/27)

>  <Rbt.Parameter_File>
/export/apps/rDock/src/rDock_2013.1_src/data/scripts/dock_solv.prm

>  <Rbt.Receptor>
prm/blind_docking_40.prm

>  <SCORE>
-6.92936

>  <SCORE.INTER>
-5.49306

>  <SCORE.INTER.CONST>
1

>  <SCORE.INTER.POLAR>
0

>  <SCORE.INTER.ROT>
5

>  <SCORE.INTER.SOLV>
5.74254

>  <SCORE.INTER.VDW>
-12.5096

>  <SCORE.INTER.norm>
-0.549306

>  <SCORE.INTRA>
-1.4363

>  <SCORE.INTRA.DIHEDRAL>
-1.94214

>  <SCORE.INTRA.DIHEDRAL.0>
4.28128

>  <SCORE.INTRA.POLAR>
0

>  <SCORE.INTRA.POLAR.0>
0

>  <SCORE.INTRA.REPUL>
0

>  <SCORE.INTRA.REPUL.0>
0

>  <SCORE.INTRA.SOLV>
-0.586222

>  <SCORE.INTRA.SOLV.lig_0>
-32.3374

>  <SCORE.INTRA.VDW>
-0.172114

>  <SCORE.INTRA.VDW.0>
-0.659551

>  <SCORE.INTRA.norm>
-0.14363

>  <SCORE.RESTR>
0

>  <SCORE.RESTR.CAVITY>
0

>  <SCORE.RESTR.norm>
0

>  <SCORE.SYSTEM>
0

>  <SCORE.SYSTEM.CONST>
0

>  <SCORE.SYSTEM.DIHEDRAL>
0

>  <SCORE.SYSTEM.SOLV>
0

>  <SCORE.SYSTEM.norm>
0

>  <SCORE.heavy>
10

>  <SCORE.norm>
-0.692936

>  <RMSD>
11.679

$$$$
ligand
 OpenBabel11021811473D
libRbt.so/2013.1/901 2013/11/27
 10  9  0  0  0  0  0  0  0  0999 V2000
   27.0133   14.0365    8.5377 N   0  0  0  0  0  0  0  0  0  0  0  0
   26.8764   14.9743    9.6871 C   0  0  2  0  0  0  0  0  0  0  0  0
   28.2333   15.4346   10.2202 C   0  0  0  0  0  0  0  0  0  0  0  0
   28.3504   16.4408   10.9271 O   0  0  0  0  0  0  0  0  0  0  0  0
   26.0285   14.3518   10.7994 C   0  0  0  0  0  0  0  0  0  0  0  0
   24.5720   14.1195   10.4199 C   0  0  0  0  0  0  0  0  0  0  0  0
   23.7345   13.7579   11.6463 C   0  0  0  0  0  0  0  0  0  0  0  0
   22.2641   13.5668   11.2914 C   0  0  0  0  0  0  0  0  0  0  0  0
   21.4260   13.2127   12.4744 N   0  0  0  0  0  0  0  0  0  0  0  0
   29.2515   14.7915    9.9741 O   0  0  0  0  0  0  0  0  0  0  0  0
  2  1  1  6  0  0  0
  2  3  1  0  0  0  0
  2  5  1  0  0  0  0
  3  4  1  0  0  0  0
  3 10  1  0  0  0  0
  5  6  1  0  0  0  0
  6  7  1  0  0  0  0
  7  8  1  0  0  0  0
  8  9  1  0  0  0  0
M  END
>  <CHROM.1>
161.67446060,-66.01595945,-168.92549557,178.11923516,-179.99966803,25.81707810
14.48356934,10.60557974,0.09165925,-0.38351409,-2.09844200

>  <Name>
ligand

>  <RI>
0

>  <Rbt.Current_Directory>
/home/itssahil/PROJECTS/Mol_Feturizer/New_Systems/rnas/3DJ2

>  <Rbt.Executable>
rbdock ($Id: //depot/dev/client3/rdock/2013.1/src/exe/rbdock.cxx#4 $)

>  <Rbt.Library>
libRbt.so (2013.1, Build901 2013/11/27)

>  <Rbt.Parameter_File>
/export/apps/rDock/src/rDock_2013.1_src/data/scripts/dock_solv.prm

>  <Rbt.Receptor>
prm/blind_docking_40.prm

>  <SCORE>
-6.91796

>  <SCORE.INTER>
-5.4201

>  <SCORE.INTER.CONST>
1

>  <SCORE.INTER.POLAR>
0

>  <SCORE.INTER.ROT>
5

>  <SCORE.INTER.SOLV>
5.66704

>  <SCORE.INTER.VDW>
-12.4357

>  <SCORE.INTER.norm>
-0.54201

>  <SCORE.INTRA>
-1.49786

>  <SCORE.INTRA.DIHEDRAL>
-2.12795

>  <SCORE.INTRA.DIHEDRAL.0>
4.28128

>  <SCORE.INTRA.POLAR>
0

>  <SCORE.INTRA.POLAR.0>
0

>  <SCORE.INTRA.REPUL>
0

>  <SCORE.INTRA.REPUL.0>
0

>  <SCORE.INTRA.SOLV>
-0.560525

>  <SCORE.INTRA.SOLV.lig_0>
-32.3374

>  <SCORE.INTRA.VDW>
-0.15362

>  <SCORE.INTRA.VDW.0>
-0.659551

>  <SCORE.INTRA.norm>
-0.149786

>  <SCORE.RESTR>
0

>  <SCORE.RESTR.CAVITY>
0

>  <SCORE.RESTR.norm>
0

>  <SCORE.SYSTEM>
0

>  <SCORE.SYSTEM.CONST>
0

>  <SCORE.SYSTEM.DIHEDRAL>
0

>  <SCORE.SYSTEM.SOLV>
0

>  <SCORE.SYSTEM.norm>
0

>  <SCORE.heavy>
10

>  <SCORE.norm>
-0.691796

>  <RMSD>
11.689

$$$$
ligand
 OpenBabel11021811473D
libRbt.so/2013.1/901 2013/11/27
 10  9  0  0  0  0  0  0  0  0999 V2000
   27.2350   14.1582    8.5561 N   0  0  0  0  0  0  0  0  0  0  0  0
   26.8329   14.8603    9.8070 C   0  0  2  0  0  0  0  0  0  0  0  0
   28.0376   15.2354   10.6703 C   0  0  0  0  0  0  0  0  0  0  0  0
   28.7683   14.3795   11.1797 O   0  0  0  0  0  0  0  0  0  0  0  0
   25.8243   14.0249   10.5999 C   0  0  0  0  0  0  0  0  0  0  0  0
   24.5218   13.7493    9.8603 C   0  0  0  0  0  0  0  0  0  0  0  0
   23.6749   12.7161   10.6029 C   0  0  0  0  0  0  0  0  0  0  0  0
   23.0596   13.2950   11.8720 C   0  0  0  0  0  0  0  0  0  0  0  0
   21.9497   14.2523   11.5908 N   0  0  0  0  0  0  0  0  0  0  0  0
   28.3257   16.4150   10.8611 O   0  0  0  0  0  0  0  0  0  0  0  0
  2  1  1  6  0  0  0
  2  3  1  0  0  0  0
  2  5  1  0  0  0  0
  3  4  1  0  0  0  0
  3 10  1  0  0  0  0
  5  6  1  0  0  0  0
  6  7  1  0  0  0  0
  7  8  1  0  0  0  0
  8  9  1  0  0  0  0
M  END
>  <CHROM.1>
-64.41755505,-61.38111364,169.96941067,72.42349986,72.54690734,25.86062996
14.32187070,10.57681412,-0.03671536,-0.33296081,-2.10813852

>  <Name>
ligand

>  <RI>
0

>  <Rbt.Current_Directory>
/home/itssahil/PROJECTS/Mol_Feturizer/New_Systems/rnas/3DJ2

>  <Rbt.Executable>
rbdock ($Id: //depot/dev/client3/rdock/2013.1/src/exe/rbdock.cxx#4 $)

>  <Rbt.Library>
libRbt.so (2013.1, Build901 2013/11/27)

>  <Rbt.Parameter_File>
/export/apps/rDock/src/rDock_2013.1_src/data/scripts/dock_solv.prm

>  <Rbt.Receptor>
prm/blind_docking_80.prm

>  <SCORE>
-4.85951

>  <SCORE.INTER>
-5.00183

>  <SCORE.INTER.CONST>
1

>  <SCORE.INTER.POLAR>
0

>  <SCORE.INTER.ROT>
5

>  <SCORE.INTER.SOLV>
8.28311

>  <SCORE.INTER.VDW>
-13.0289

>  <SCORE.INTER.norm>
-0.500183

>  <SCORE.INTRA>
0.14232

>  <SCORE.INTRA.DIHEDRAL>
-1.14907

>  <SCORE.INTRA.DIHEDRAL.0>
4.28128

>  <SCORE.INTRA.POLAR>
0

>  <SCORE.INTRA.POLAR.0>
0

>  <SCORE.INTRA.REPUL>
0

>  <SCORE.INTRA.REPUL.0>
0

>  <SCORE.INTRA.SOLV>
0.750939

>  <SCORE.INTRA.SOLV.lig_0>
-32.3374

>  <SCORE.INTRA.VDW>
0.341386

>  <SCORE.INTRA.VDW.0>
-0.659551

>  <SCORE.INTRA.norm>
0.014232

>  <SCORE.RESTR>
0

>  <SCORE.RESTR.CAVITY>
0

>  <SCORE.RESTR.norm>
0

>  <SCORE.SYSTEM>
0

>  <SCORE.SYSTEM.CONST>
0

>  <SCORE.SYSTEM.DIHEDRAL>
0

>  <SCORE.SYSTEM.SOLV>
0

>  <SCORE.SYSTEM.norm>
0

>  <SCORE.heavy>
10

>  <SCORE.norm>
-0.485951

>  <RMSD>
11.712

$$$$
ligand
 OpenBabel11021811473D
libRbt.so/2013.1/901 2013/11/27
 10  9  0  0  0  0  0  0  0  0999 V2000
   26.6221   13.9892    8.6332 N   0  0  0  0  0  0  0  0  0  0  0  0
   26.0364   14.3384    9.9577 C   0  0  2  0  0  0  0  0  0  0  0  0
   26.9844   14.0111   11.1116 C   0  0  0  0  0  0  0  0  0  0  0  0
   27.8441   13.1287   11.0207 O   0  0  0  0  0  0  0  0  0  0  0  0
   24.6785   13.6577   10.1489 C   0  0  0  0  0  0  0  0  0  0  0  0
   23.9770   14.0163   11.4522 C   0  0  0  0  0  0  0  0  0  0  0  0
   22.6293   13.3044   11.5661 C   0  0  0  0  0  0  0  0  0  0  0  0
   21.8989   13.6771   12.8514 C   0  0  0  0  0  0  0  0  0  0  0  0
   20.5642   13.0196   12.9684 N   0  0  0  0  0  0  0  0  0  0  0  0
   26.9285   14.6436   12.1641 O   0  0  0  0  0  0  0  0  0  0  0  0
  2  1  1  6  0  0  0
  2  3  1  0  0  0  0
  2  5  1  0  0  0  0
  3  4  1  0  0  0  0
  3 10  1  0  0  0  0
  5  6  1  0  0  0  0
  6  7  1  0  0  0  0
  7  8  1  0  0  0  0
  8  9  1  0  0  0  0
M  END
>  <CHROM.1>
-26.09579673,-177.15919289,179.74410016,-178.70626644,178.57217214,24.84885227
13.77437813,11.20871980,0.35655544,-0.11265970,-1.59810539

>  <Name>
ligand

>  <RI>
0

>  <Rbt.Current_Directory>
/home/itssahil/PROJECTS/Mol_Feturizer/New_Systems/rnas/3DJ2

>  <Rbt.Executable>
rbdock ($Id: //depot/dev/client3/rdock/2013.1/src/exe/rbdock.cxx#4 $)

>  <Rbt.Library>
libRbt.so (2013.1, Build901 2013/11/27)

>  <Rbt.Parameter_File>
/export/apps/rDock/src/rDock_2013.1_src/data/scripts/dock_solv.prm

>  <Rbt.Receptor>
prm/blind_docking_40.prm

>  <SCORE>
-6.23565

>  <SCORE.INTER>
-4.19456

>  <SCORE.INTER.CONST>
1

>  <SCORE.INTER.POLAR>
0

>  <SCORE.INTER.ROT>
5

>  <SCORE.INTER.SOLV>
5.18835

>  <SCORE.INTER.VDW>
-11.4592

>  <SCORE.INTER.norm>
-0.419456

>  <SCORE.INTRA>
-2.0411

>  <SCORE.INTRA.DIHEDRAL>
-2.66994

>  <SCORE.INTRA.DIHEDRAL.0>
4.28128

>  <SCORE.INTRA.POLAR>
0

>  <SCORE.INTRA.POLAR.0>
0

>  <SCORE.INTRA.REPUL>
0

>  <SCORE.INTRA.REPUL.0>
0

>  <SCORE.INTRA.SOLV>
-1.33343

>  <SCORE.INTRA.SOLV.lig_0>
-32.3374

>  <SCORE.INTRA.VDW>
-0.0394076

>  <SCORE.INTRA.VDW.0>
-0.659551

>  <SCORE.INTRA.norm>
-0.20411

>  <SCORE.RESTR>
0

>  <SCORE.RESTR.CAVITY>
0

>  <SCORE.RESTR.norm>
0

>  <SCORE.SYSTEM>
0

>  <SCORE.SYSTEM.CONST>
0

>  <SCORE.SYSTEM.DIHEDRAL>
0

>  <SCORE.SYSTEM.SOLV>
0

>  <SCORE.SYSTEM.norm>
0

>  <SCORE.heavy>
10

>  <SCORE.norm>
-0.623565

>  <RMSD>
11.773

$$$$
ligand
 OpenBabel11021811473D
libRbt.so/2013.1/901 2013/11/27
 10  9  0  0  0  0  0  0  0  0999 V2000
   26.6366   13.9482    8.6075 N   0  0  0  0  0  0  0  0  0  0  0  0
   26.0601   14.3186    9.9303 C   0  0  2  0  0  0  0  0  0  0  0  0
   27.0018   13.9775   11.0853 C   0  0  0  0  0  0  0  0  0  0  0  0
   27.0061   14.6243   12.1377 O   0  0  0  0  0  0  0  0  0  0  0  0
   24.6876   13.6695   10.1269 C   0  0  0  0  0  0  0  0  0  0  0  0
   24.0114   14.0234   11.4448 C   0  0  0  0  0  0  0  0  0  0  0  0
   22.6359   13.3658   11.5519 C   0  0  0  0  0  0  0  0  0  0  0  0
   21.9445   13.7100   12.8664 C   0  0  0  0  0  0  0  0  0  0  0  0
   20.5985   13.0781   12.9935 N   0  0  0  0  0  0  0  0  0  0  0  0
   27.7717   13.0229   11.0020 O   0  0  0  0  0  0  0  0  0  0  0  0
  2  1  1  6  0  0  0
  2  3  1  0  0  0  0
  2  5  1  0  0  0  0
  3  4  1  0  0  0  0
  3 10  1  0  0  0  0
  5  6  1  0  0  0  0
  6  7  1  0  0  0  0
  7  8  1  0  0  0  0
  8  9  1  0  0  0  0
M  END
>  <CHROM.1>
150.76879229,-178.66023835,178.65348449,-179.99942817,-179.98950457,24.86747113
13.76848959,11.19596675,0.36617969,-0.09693789,-1.59719877

>  <Name>
ligand

>  <RI>
0

>  <Rbt.Current_Directory>
/home/itssahil/PROJECTS/Mol_Feturizer/New_Systems/rnas/3DJ2

>  <Rbt.Executable>
rbdock ($Id: //depot/dev/client3/rdock/2013.1/src/exe/rbdock.cxx#4 $)

>  <Rbt.Library>
libRbt.so (2013.1, Build901 2013/11/27)

>  <Rbt.Parameter_File>
/export/apps/rDock/src/rDock_2013.1_src/data/scripts/dock_solv.prm

>  <Rbt.Receptor>
prm/blind_docking_40.prm

>  <SCORE>
-6.27382

>  <SCORE.INTER>
-4.18141

>  <SCORE.INTER.CONST>
1

>  <SCORE.INTER.POLAR>
0

>  <SCORE.INTER.ROT>
5

>  <SCORE.INTER.SOLV>
5.26581

>  <SCORE.INTER.VDW>
-11.4762

>  <SCORE.INTER.norm>
-0.418141

>  <SCORE.INTRA>
-2.09241

>  <SCORE.INTRA.DIHEDRAL>
-2.79479

>  <SCORE.INTRA.DIHEDRAL.0>
4.28128

>  <SCORE.INTRA.POLAR>
0

>  <SCORE.INTRA.POLAR.0>
0

>  <SCORE.INTRA.REPUL>
0

>  <SCORE.INTRA.REPUL.0>
0

>  <SCORE.INTRA.SOLV>
-1.33424

>  <SCORE.INTRA.SOLV.lig_0>
-32.3374

>  <SCORE.INTRA.VDW>
-0.0278906

>  <SCORE.INTRA.VDW.0>
-0.659551

>  <SCORE.INTRA.norm>
-0.209241

>  <SCORE.RESTR>
0

>  <SCORE.RESTR.CAVITY>
0

>  <SCORE.RESTR.norm>
0

>  <SCORE.SYSTEM>
0

>  <SCORE.SYSTEM.CONST>
0

>  <SCORE.SYSTEM.DIHEDRAL>
0

>  <SCORE.SYSTEM.SOLV>
0

>  <SCORE.SYSTEM.norm>
0

>  <SCORE.heavy>
10

>  <SCORE.norm>
-0.627382

>  <RMSD>
11.781

$$$$
ligand
 OpenBabel11021811473D
libRbt.so/2013.1/901 2013/11/27
 10  9  0  0  0  0  0  0  0  0999 V2000
   26.5543   14.0110    8.5925 N   0  0  0  0  0  0  0  0  0  0  0  0
   25.9823   14.3445    9.9270 C   0  0  2  0  0  0  0  0  0  0  0  0
   26.9447   14.0097   11.0667 C   0  0  0  0  0  0  0  0  0  0  0  0
   26.9730   14.6667   12.1123 O   0  0  0  0  0  0  0  0  0  0  0  0
   24.6294   13.6564   10.1267 C   0  0  0  0  0  0  0  0  0  0  0  0
   23.9308   14.0170   11.4310 C   0  0  0  0  0  0  0  0  0  0  0  0
   22.5970   13.2825   11.5626 C   0  0  0  0  0  0  0  0  0  0  0  0
   21.8840   13.6320   12.8641 C   0  0  0  0  0  0  0  0  0  0  0  0
   20.5562   12.9629   12.9927 N   0  0  0  0  0  0  0  0  0  0  0  0
   27.7079   13.0502   10.9777 O   0  0  0  0  0  0  0  0  0  0  0  0
  2  1  1  6  0  0  0
  2  3  1  0  0  0  0
  2  5  1  0  0  0  0
  3  4  1  0  0  0  0
  3 10  1  0  0  0  0
  5  6  1  0  0  0  0
  6  7  1  0  0  0  0
  7  8  1  0  0  0  0
  8  9  1  0  0  0  0
M  END
>  <CHROM.1>
148.36029907,-176.20463360,-179.47286727,179.98175086,177.99174514,24.80840943
13.75837180,11.18629582,0.36815635,-0.11835796,-1.58766278

>  <Name>
ligand

>  <RI>
0

>  <Rbt.Current_Directory>
/home/itssahil/PROJECTS/Mol_Feturizer/New_Systems/rnas/3DJ2

>  <Rbt.Executable>
rbdock ($Id: //depot/dev/client3/rdock/2013.1/src/exe/rbdock.cxx#4 $)

>  <Rbt.Library>
libRbt.so (2013.1, Build901 2013/11/27)

>  <Rbt.Parameter_File>
/export/apps/rDock/src/rDock_2013.1_src/data/scripts/dock_solv.prm

>  <Rbt.Receptor>
prm/blind_docking_40.prm

>  <SCORE>
-6.25706

>  <SCORE.INTER>
-4.1105

>  <SCORE.INTER.CONST>
1

>  <SCORE.INTER.POLAR>
0

>  <SCORE.INTER.ROT>
5

>  <SCORE.INTER.SOLV>
5.08224

>  <SCORE.INTER.VDW>
-11.3677

>  <SCORE.INTER.norm>
-0.41105

>  <SCORE.INTRA>
-2.14655

>  <SCORE.INTRA.DIHEDRAL>
-2.74261

>  <SCORE.INTRA.DIHEDRAL.0>
4.28128

>  <SCORE.INTRA.POLAR>
0

>  <SCORE.INTRA.POLAR.0>
0

>  <SCORE.INTRA.REPUL>
0

>  <SCORE.INTRA.REPUL.0>
0

>  <SCORE.INTRA.SOLV>
-1.33437

>  <SCORE.INTRA.SOLV.lig_0>
-32.3374

>  <SCORE.INTRA.VDW>
-0.108062

>  <SCORE.INTRA.VDW.0>
-0.659551

>  <SCORE.INTRA.norm>
-0.214655

>  <SCORE.RESTR>
0

>  <SCORE.RESTR.CAVITY>
0

>  <SCORE.RESTR.norm>
0

>  <SCORE.SYSTEM>
0

>  <SCORE.SYSTEM.CONST>
0

>  <SCORE.SYSTEM.DIHEDRAL>
0

>  <SCORE.SYSTEM.SOLV>
0

>  <SCORE.SYSTEM.norm>
0

>  <SCORE.heavy>
10

>  <SCORE.norm>
-0.625706

>  <RMSD>
11.819

$$$$
ligand
 OpenBabel11021811473D
libRbt.so/2013.1/901 2013/11/27
 10  9  0  0  0  0  0  0  0  0999 V2000
   24.4768   22.5510   19.1756 N   0  0  0  0  0  0  0  0  0  0  0  0
   24.4412   24.0102   19.4735 C   0  0  2  0  0  0  0  0  0  0  0  0
   24.3511   24.8559   18.2032 C   0  0  0  0  0  0  0  0  0  0  0  0
   23.7668   25.9441   18.1827 O   0  0  0  0  0  0  0  0  0  0  0  0
   25.6446   24.4212   20.3260 C   0  0  0  0  0  0  0  0  0  0  0  0
   25.6595   25.8925   20.7189 C   0  0  0  0  0  0  0  0  0  0  0  0
   26.8379   26.2042   21.6411 C   0  0  0  0  0  0  0  0  0  0  0  0
   26.8397   27.6630   22.0841 C   0  0  0  0  0  0  0  0  0  0  0  0
   27.0869   28.6086   20.9562 N   0  0  0  0  0  0  0  0  0  0  0  0
   24.8861   24.4787   17.1628 O   0  0  0  0  0  0  0  0  0  0  0  0
  2  1  1  6  0  0  0
  2  3  1  0  0  0  0
  2  5  1  0  0  0  0
  3  4  1  0  0  0  0
  3 10  1  0  0  0  0
  5  6  1  0  0  0  0
  6  7  1  0  0  0  0
  7  8  1  0  0  0  0
  8  9  1  0  0  0  0
M  END
>  <CHROM.1>
148.67162428,-177.93545899,176.29247244,-177.97530009,-66.40403247,25.39077578
25.47492044,19.75804084,-2.75230740,-1.05130745,-0.37971362

>  <Name>
ligand

>  <RI>
0

>  <Rbt.Current_Directory>
/home/itssahil/PROJECTS/Mol_Feturizer/New_Systems/rnas/3DJ2

>  <Rbt.Executable>
rbdock ($Id: //depot/dev/client3/rdock/2013.1/src/exe/rbdock.cxx#4 $)

>  <Rbt.Library>
libRbt.so (2013.1, Build901 2013/11/27)

>  <Rbt.Parameter_File>
/export/apps/rDock/src/rDock_2013.1_src/data/scripts/dock_solv.prm

>  <Rbt.Receptor>
prm/blind_docking_80.prm

>  <SCORE>
-3.13699

>  <SCORE.INTER>
-1.60149

>  <SCORE.INTER.CONST>
1

>  <SCORE.INTER.POLAR>
0

>  <SCORE.INTER.ROT>
5

>  <SCORE.INTER.SOLV>
10.4236

>  <SCORE.INTER.VDW>
-11.4755

>  <SCORE.INTER.norm>
-0.160149

>  <SCORE.INTRA>
-1.5355

>  <SCORE.INTRA.DIHEDRAL>
-2.5658

>  <SCORE.INTRA.DIHEDRAL.0>
4.28128

>  <SCORE.INTRA.POLAR>
0

>  <SCORE.INTRA.POLAR.0>
0

>  <SCORE.INTRA.REPUL>
0

>  <SCORE.INTRA.REPUL.0>
0

>  <SCORE.INTRA.SOLV>
-0.488265

>  <SCORE.INTRA.SOLV.lig_0>
-32.3374

>  <SCORE.INTRA.VDW>
-0.00847192

>  <SCORE.INTRA.VDW.0>
-0.659551

>  <SCORE.INTRA.norm>
-0.15355

>  <SCORE.RESTR>
0

>  <SCORE.RESTR.CAVITY>
0

>  <SCORE.RESTR.norm>
0

>  <SCORE.SYSTEM>
0

>  <SCORE.SYSTEM.CONST>
0

>  <SCORE.SYSTEM.DIHEDRAL>
0

>  <SCORE.SYSTEM.SOLV>
0

>  <SCORE.SYSTEM.norm>
0

>  <SCORE.heavy>
10

>  <SCORE.norm>
-0.313699

>  <RMSD>
11.850

$$$$
ligand
 OpenBabel11021811473D
libRbt.so/2013.1/901 2013/11/27
 10  9  0  0  0  0  0  0  0  0999 V2000
   26.6417   14.0952    8.5655 N   0  0  0  0  0  0  0  0  0  0  0  0
   25.9767   14.3219    9.8791 C   0  0  2  0  0  0  0  0  0  0  0  0
   26.9220   14.0724   11.0544 C   0  0  0  0  0  0  0  0  0  0  0  0
   26.8010   14.6703   12.1286 O   0  0  0  0  0  0  0  0  0  0  0  0
   24.7085   13.4731   10.0009 C   0  0  0  0  0  0  0  0  0  0  0  0
   23.8749   13.7684   11.2408 C   0  0  0  0  0  0  0  0  0  0  0  0
   22.7536   12.7432   11.4073 C   0  0  0  0  0  0  0  0  0  0  0  0
   21.8934   13.0387   12.6309 C   0  0  0  0  0  0  0  0  0  0  0  0
   21.1046   14.2979   12.4916 N   0  0  0  0  0  0  0  0  0  0  0  0
   27.8234   13.2416   10.9650 O   0  0  0  0  0  0  0  0  0  0  0  0
  2  1  1  6  0  0  0
  2  3  1  0  0  0  0
  2  5  1  0  0  0  0
  3  4  1  0  0  0  0
  3 10  1  0  0  0  0
  5  6  1  0  0  0  0
  6  7  1  0  0  0  0
  7  8  1  0  0  0  0
  8  9  1  0  0  0  0
M  END
>  <CHROM.1>
150.59467743,-172.93422157,-171.12099624,-178.98103630,67.17950529,24.88143210
13.76906064,11.05883802,0.32634484,-0.11595991,-1.65715395

>  <Name>
ligand

>  <RI>
0

>  <Rbt.Current_Directory>
/home/itssahil/PROJECTS/Mol_Feturizer/New_Systems/rnas/3DJ2

>  <Rbt.Executable>
rbdock ($Id: //depot/dev/client3/rdock/2013.1/src/exe/rbdock.cxx#4 $)

>  <Rbt.Library>
libRbt.so (2013.1, Build901 2013/11/27)

>  <Rbt.Parameter_File>
/export/apps/rDock/src/rDock_2013.1_src/data/scripts/dock_solv.prm

>  <Rbt.Receptor>
prm/blind_docking_40.prm

>  <SCORE>
-5.04325

>  <SCORE.INTER>
-3.61373

>  <SCORE.INTER.CONST>
1

>  <SCORE.INTER.POLAR>
0

>  <SCORE.INTER.ROT>
5

>  <SCORE.INTER.SOLV>
6.70224

>  <SCORE.INTER.VDW>
-11.5766

>  <SCORE.INTER.norm>
-0.361373

>  <SCORE.INTRA>
-1.42953

>  <SCORE.INTRA.DIHEDRAL>
-2.109

>  <SCORE.INTRA.DIHEDRAL.0>
4.28128

>  <SCORE.INTRA.POLAR>
0

>  <SCORE.INTRA.POLAR.0>
0

>  <SCORE.INTRA.REPUL>
0

>  <SCORE.INTRA.REPUL.0>
0

>  <SCORE.INTRA.SOLV>
-0.47878

>  <SCORE.INTRA.SOLV.lig_0>
-32.3374

>  <SCORE.INTRA.VDW>
-0.135637

>  <SCORE.INTRA.VDW.0>
-0.659551

>  <SCORE.INTRA.norm>
-0.142953

>  <SCORE.RESTR>
0

>  <SCORE.RESTR.CAVITY>
0

>  <SCORE.RESTR.norm>
0

>  <SCORE.SYSTEM>
0

>  <SCORE.SYSTEM.CONST>
0

>  <SCORE.SYSTEM.DIHEDRAL>
0

>  <SCORE.SYSTEM.SOLV>
0

>  <SCORE.SYSTEM.norm>
0

>  <SCORE.heavy>
10

>  <SCORE.norm>
-0.504325

>  <RMSD>
11.879

$$$$
ligand
 OpenBabel11021811473D
libRbt.so/2013.1/901 2013/11/27
 10  9  0  0  0  0  0  0  0  0999 V2000
   26.4873   13.9443    8.4413 N   0  0  0  0  0  0  0  0  0  0  0  0
   25.8981   14.3634    9.7438 C   0  0  2  0  0  0  0  0  0  0  0  0
   26.8777   14.1843   10.9038 C   0  0  0  0  0  0  0  0  0  0  0  0
   26.9478   14.9971   11.8313 O   0  0  0  0  0  0  0  0  0  0  0  0
   24.5851   13.6229   10.0107 C   0  0  0  0  0  0  0  0  0  0  0  0
   23.8700   14.0565   11.2835 C   0  0  0  0  0  0  0  0  0  0  0  0
   22.5959   13.2416   11.5041 C   0  0  0  0  0  0  0  0  0  0  0  0
   21.8464   13.6898   12.7538 C   0  0  0  0  0  0  0  0  0  0  0  0
   20.5642   12.9526   12.9535 N   0  0  0  0  0  0  0  0  0  0  0  0
   27.6127   13.2003   10.9539 O   0  0  0  0  0  0  0  0  0  0  0  0
  2  1  1  6  0  0  0
  2  3  1  0  0  0  0
  2  5  1  0  0  0  0
  3  4  1  0  0  0  0
  3 10  1  0  0  0  0
  5  6  1  0  0  0  0
  6  7  1  0  0  0  0
  7  8  1  0  0  0  0
  8  9  1  0  0  0  0
M  END
>  <CHROM.1>
142.03812696,-176.37099077,-178.09955503,-178.38575843,177.21869394,24.76113836
13.82406613,11.05912014,0.36628014,-0.17958094,-1.67960193

>  <Name>
ligand

>  <RI>
0

>  <Rbt.Current_Directory>
/home/itssahil/PROJECTS/Mol_Feturizer/New_Systems/rnas/3DJ2

>  <Rbt.Executable>
rbdock ($Id: //depot/dev/client3/rdock/2013.1/src/exe/rbdock.cxx#4 $)

>  <Rbt.Library>
libRbt.so (2013.1, Build901 2013/11/27)

>  <Rbt.Parameter_File>
/export/apps/rDock/src/rDock_2013.1_src/data/scripts/dock_solv.prm

>  <Rbt.Receptor>
prm/blind_docking_80.prm

>  <SCORE>
-5.99169

>  <SCORE.INTER>
-3.80868

>  <SCORE.INTER.CONST>
1

>  <SCORE.INTER.POLAR>
0

>  <SCORE.INTER.ROT>
5

>  <SCORE.INTER.SOLV>
4.73172

>  <SCORE.INTER.VDW>
-11.0497

>  <SCORE.INTER.norm>
-0.380868

>  <SCORE.INTRA>
-2.18301

>  <SCORE.INTRA.DIHEDRAL>
-2.70297

>  <SCORE.INTRA.DIHEDRAL.0>
4.28128

>  <SCORE.INTRA.POLAR>
0

>  <SCORE.INTRA.POLAR.0>
0

>  <SCORE.INTRA.REPUL>
0

>  <SCORE.INTRA.REPUL.0>
0

>  <SCORE.INTRA.SOLV>
-1.33807

>  <SCORE.INTRA.SOLV.lig_0>
-32.3374

>  <SCORE.INTRA.VDW>
-0.162496

>  <SCORE.INTRA.VDW.0>
-0.659551

>  <SCORE.INTRA.norm>
-0.218301

>  <SCORE.RESTR>
0

>  <SCORE.RESTR.CAVITY>
0

>  <SCORE.RESTR.norm>
0

>  <SCORE.SYSTEM>
0

>  <SCORE.SYSTEM.CONST>
0

>  <SCORE.SYSTEM.DIHEDRAL>
0

>  <SCORE.SYSTEM.SOLV>
0

>  <SCORE.SYSTEM.norm>
0

>  <SCORE.heavy>
10

>  <SCORE.norm>
-0.599169

>  <RMSD>
11.936

$$$$
ligand
 OpenBabel11021811473D
libRbt.so/2013.1/901 2013/11/27
 10  9  0  0  0  0  0  0  0  0999 V2000
   26.7836   13.8827    8.1856 N   0  0  0  0  0  0  0  0  0  0  0  0
   26.1908   14.3511    9.4695 C   0  0  2  0  0  0  0  0  0  0  0  0
   27.2182   14.3827   10.6012 C   0  0  0  0  0  0  0  0  0  0  0  0
   27.7541   13.3540   11.0261 O   0  0  0  0  0  0  0  0  0  0  0  0
   24.9760   13.5009    9.8503 C   0  0  0  0  0  0  0  0  0  0  0  0
   24.2087   14.0137   11.0618 C   0  0  0  0  0  0  0  0  0  0  0  0
   22.9654   13.1648   11.3258 C   0  0  0  0  0  0  0  0  0  0  0  0
   22.1544   13.6987   12.5013 C   0  0  0  0  0  0  0  0  0  0  0  0
   20.9289   12.8909   12.7714 N   0  0  0  0  0  0  0  0  0  0  0  0
   27.5579   15.4506   11.1063 O   0  0  0  0  0  0  0  0  0  0  0  0
  2  1  1  6  0  0  0
  2  3  1  0  0  0  0
  2  5  1  0  0  0  0
  3  4  1  0  0  0  0
  3 10  1  0  0  0  0
  5  6  1  0  0  0  0
  6  7  1  0  0  0  0
  7  8  1  0  0  0  0
  8  9  1  0  0  0  0
M  END
>  <CHROM.1>
-64.57491620,-173.04345995,176.49078280,-177.67212623,179.56391708,25.10772370
13.87327960,10.80989182,0.34075757,-0.26332864,-1.76617153

>  <Name>
ligand

>  <RI>
0

>  <Rbt.Current_Directory>
/home/itssahil/PROJECTS/Mol_Feturizer/New_Systems/rnas/3DJ2

>  <Rbt.Executable>
rbdock ($Id: //depot/dev/client3/rdock/2013.1/src/exe/rbdock.cxx#4 $)

>  <Rbt.Library>
libRbt.so (2013.1, Build901 2013/11/27)

>  <Rbt.Parameter_File>
/export/apps/rDock/src/rDock_2013.1_src/data/scripts/dock_solv.prm

>  <Rbt.Receptor>
prm/blind_docking_40.prm

>  <SCORE>
-5.94429

>  <SCORE.INTER>
-3.86086

>  <SCORE.INTER.CONST>
1

>  <SCORE.INTER.POLAR>
0

>  <SCORE.INTER.ROT>
5

>  <SCORE.INTER.SOLV>
5.20275

>  <SCORE.INTER.VDW>
-11.2415

>  <SCORE.INTER.norm>
-0.386086

>  <SCORE.INTRA>
-2.08343

>  <SCORE.INTRA.DIHEDRAL>
-2.528

>  <SCORE.INTRA.DIHEDRAL.0>
4.28128

>  <SCORE.INTRA.POLAR>
0

>  <SCORE.INTRA.POLAR.0>
0

>  <SCORE.INTRA.REPUL>
0

>  <SCORE.INTRA.REPUL.0>
0

>  <SCORE.INTRA.SOLV>
-1.34379

>  <SCORE.INTRA.SOLV.lig_0>
-32.3374

>  <SCORE.INTRA.VDW>
-0.147532

>  <SCORE.INTRA.VDW.0>
-0.659551

>  <SCORE.INTRA.norm>
-0.208343

>  <SCORE.RESTR>
0

>  <SCORE.RESTR.CAVITY>
0

>  <SCORE.RESTR.norm>
0

>  <SCORE.SYSTEM>
0

>  <SCORE.SYSTEM.CONST>
0

>  <SCORE.SYSTEM.DIHEDRAL>
0

>  <SCORE.SYSTEM.SOLV>
0

>  <SCORE.SYSTEM.norm>
0

>  <SCORE.heavy>
10

>  <SCORE.norm>
-0.594429

>  <RMSD>
11.970

$$$$
ligand
 OpenBabel11021811473D
libRbt.so/2013.1/901 2013/11/27
 10  9  0  0  0  0  0  0  0  0999 V2000
   27.3970   14.3734    8.6151 N   0  0  0  0  0  0  0  0  0  0  0  0
   26.3218   14.2421    9.6379 C   0  0  2  0  0  0  0  0  0  0  0  0
   26.8855   14.0215   11.0418 C   0  0  0  0  0  0  0  0  0  0  0  0
   27.8601   13.2909   11.2472 O   0  0  0  0  0  0  0  0  0  0  0  0
   25.3403   13.1310    9.2563 C   0  0  0  0  0  0  0  0  0  0  0  0
   24.1791   12.9616   10.2270 C   0  0  0  0  0  0  0  0  0  0  0  0
   23.2944   14.2077   10.2500 C   0  0  0  0  0  0  0  0  0  0  0  0
   22.0416   13.9972   11.0929 C   0  0  0  0  0  0  0  0  0  0  0  0
   22.3505   13.7116   12.5248 N   0  0  0  0  0  0  0  0  0  0  0  0
   26.3897   14.5931   12.0105 O   0  0  0  0  0  0  0  0  0  0  0  0
  2  1  1  6  0  0  0
  2  3  1  0  0  0  0
  2  5  1  0  0  0  0
  3  4  1  0  0  0  0
  3 10  1  0  0  0  0
  5  6  1  0  0  0  0
  6  7  1  0  0  0  0
  7  8  1  0  0  0  0
  8  9  1  0  0  0  0
M  END
>  <CHROM.1>
-39.94790685,-177.99241912,64.03765166,173.47278169,61.76720297,25.22779877
13.85028391,10.61974675,0.23549916,-0.04318835,-1.63892703

>  <Name>
ligand

>  <RI>
0

>  <Rbt.Current_Directory>
/home/itssahil/PROJECTS/Mol_Feturizer/New_Systems/rnas/3DJ2

>  <Rbt.Executable>
rbdock ($Id: //depot/dev/client3/rdock/2013.1/src/exe/rbdock.cxx#4 $)

>  <Rbt.Library>
libRbt.so (2013.1, Build901 2013/11/27)

>  <Rbt.Parameter_File>
/export/apps/rDock/src/rDock_2013.1_src/data/scripts/dock_solv.prm

>  <Rbt.Receptor>
prm/blind_docking_40.prm

>  <SCORE>
-4.52937

>  <SCORE.INTER>
-3.24516

>  <SCORE.INTER.CONST>
1

>  <SCORE.INTER.POLAR>
0

>  <SCORE.INTER.ROT>
5

>  <SCORE.INTER.SOLV>
8.38791

>  <SCORE.INTER.VDW>
-11.8927

>  <SCORE.INTER.norm>
-0.324516

>  <SCORE.INTRA>
-1.28422

>  <SCORE.INTRA.DIHEDRAL>
-2.44963

>  <SCORE.INTRA.DIHEDRAL.0>
4.28128

>  <SCORE.INTRA.POLAR>
0

>  <SCORE.INTRA.POLAR.0>
0

>  <SCORE.INTRA.REPUL>
0

>  <SCORE.INTRA.REPUL.0>
0

>  <SCORE.INTRA.SOLV>
-0.206352

>  <SCORE.INTRA.SOLV.lig_0>
-32.3374

>  <SCORE.INTRA.VDW>
0.0437745

>  <SCORE.INTRA.VDW.0>
-0.659551

>  <SCORE.INTRA.norm>
-0.128422

>  <SCORE.RESTR>
0

>  <SCORE.RESTR.CAVITY>
0

>  <SCORE.RESTR.norm>
0

>  <SCORE.SYSTEM>
0

>  <SCORE.SYSTEM.CONST>
0

>  <SCORE.SYSTEM.DIHEDRAL>
0

>  <SCORE.SYSTEM.SOLV>
0

>  <SCORE.SYSTEM.norm>
0

>  <SCORE.heavy>
10

>  <SCORE.norm>
-0.452937

>  <RMSD>
12.075

$$$$
ligand
 OpenBabel11021811473D
libRbt.so/2013.1/901 2013/11/27
 10  9  0  0  0  0  0  0  0  0999 V2000
   25.9924   13.9513    8.6960 N   0  0  0  0  0  0  0  0  0  0  0  0
   25.9611   14.5232   10.0712 C   0  0  2  0  0  0  0  0  0  0  0  0
   27.3064   14.3841   10.7841 C   0  0  0  0  0  0  0  0  0  0  0  0
   27.8057   13.2809   11.0279 O   0  0  0  0  0  0  0  0  0  0  0  0
   24.8325   13.8979   10.8952 C   0  0  0  0  0  0  0  0  0  0  0  0
   23.4354   14.3359   10.4760 C   0  0  0  0  0  0  0  0  0  0  0  0
   22.3662   13.6648   11.3376 C   0  0  0  0  0  0  0  0  0  0  0  0
   21.0029   14.3249   11.1645 C   0  0  0  0  0  0  0  0  0  0  0  0
   20.4899   14.2319    9.7661 N   0  0  0  0  0  0  0  0  0  0  0  0
   27.9435   15.3818   11.1152 O   0  0  0  0  0  0  0  0  0  0  0  0
  2  1  1  6  0  0  0
  2  3  1  0  0  0  0
  2  5  1  0  0  0  0
  3  4  1  0  0  0  0
  3 10  1  0  0  0  0
  5  6  1  0  0  0  0
  6  7  1  0  0  0  0
  7  8  1  0  0  0  0
  8  9  1  0  0  0  0
M  END
>  <CHROM.1>
-62.03288944,-71.49512203,179.67693006,166.52542019,61.83924111,24.75645960
14.19645460,10.54852817,-0.01172421,-0.02973762,-1.60799183

>  <Name>
ligand

>  <RI>
0

>  <Rbt.Current_Directory>
/home/itssahil/PROJECTS/Mol_Feturizer/New_Systems/rnas/3DJ2

>  <Rbt.Executable>
rbdock ($Id: //depot/dev/client3/rdock/2013.1/src/exe/rbdock.cxx#4 $)

>  <Rbt.Library>
libRbt.so (2013.1, Build901 2013/11/27)

>  <Rbt.Parameter_File>
/export/apps/rDock/src/rDock_2013.1_src/data/scripts/dock_solv.prm

>  <Rbt.Receptor>
prm/blind_docking_100.prm

>  <SCORE>
-2.74446

>  <SCORE.INTER>
-1.99993

>  <SCORE.INTER.CONST>
1

>  <SCORE.INTER.POLAR>
0

>  <SCORE.INTER.ROT>
5

>  <SCORE.INTER.SOLV>
10.4884

>  <SCORE.INTER.VDW>
-11.7628

>  <SCORE.INTER.norm>
-0.199993

>  <SCORE.INTRA>
-0.744526

>  <SCORE.INTRA.DIHEDRAL>
-1.49192

>  <SCORE.INTRA.DIHEDRAL.0>
4.28128

>  <SCORE.INTRA.POLAR>
0

>  <SCORE.INTRA.POLAR.0>
0

>  <SCORE.INTRA.REPUL>
0

>  <SCORE.INTRA.REPUL.0>
0

>  <SCORE.INTRA.SOLV>
0.266153

>  <SCORE.INTRA.SOLV.lig_0>
-32.3374

>  <SCORE.INTRA.VDW>
-0.131644

>  <SCORE.INTRA.VDW.0>
-0.659551

>  <SCORE.INTRA.norm>
-0.0744526

>  <SCORE.RESTR>
0

>  <SCORE.RESTR.CAVITY>
0

>  <SCORE.RESTR.norm>
0

>  <SCORE.SYSTEM>
0

>  <SCORE.SYSTEM.CONST>
0

>  <SCORE.SYSTEM.DIHEDRAL>
0

>  <SCORE.SYSTEM.SOLV>
0

>  <SCORE.SYSTEM.norm>
0

>  <SCORE.heavy>
10

>  <SCORE.norm>
-0.274446

>  <RMSD>
12.244

$$$$
ligand
 OpenBabel11021811473D
libRbt.so/2013.1/901 2013/11/27
 10  9  0  0  0  0  0  0  0  0999 V2000
   26.8592   14.7090   11.6484 N   0  0  0  0  0  0  0  0  0  0  0  0
   26.4673   13.9900   10.4039 C   0  0  2  0  0  0  0  0  0  0  0  0
   27.3474   14.3745    9.2145 C   0  0  0  0  0  0  0  0  0  0  0  0
   27.1577   13.9123    8.0848 O   0  0  0  0  0  0  0  0  0  0  0  0
   24.9858   14.2139   10.0896 C   0  0  0  0  0  0  0  0  0  0  0  0
   24.0373   13.7634   11.1927 C   0  0  0  0  0  0  0  0  0  0  0  0
   22.5808   14.0127   10.8023 C   0  0  0  0  0  0  0  0  0  0  0  0
   21.6200   13.6185   11.9185 C   0  0  0  0  0  0  0  0  0  0  0  0
   20.1943   13.9009   11.5795 N   0  0  0  0  0  0  0  0  0  0  0  0
   28.2633   15.1829    9.3513 O   0  0  0  0  0  0  0  0  0  0  0  0
  2  1  1  1  0  0  0
  2  3  1  0  0  0  0
  2  5  1  0  0  0  0
  3  4  1  0  0  0  0
  3 10  1  0  0  0  0
  5  6  1  0  0  0  0
  6  7  1  0  0  0  0
  7  8  1  0  0  0  0
  8  9  1  0  0  0  0
M  END
>  <CHROM.1>
-178.03383932,-58.56264077,-179.71277539,-177.72892603,177.84787426,24.98380147
14.17670731,10.39791488,-0.31556414,0.17120765,1.40697385

>  <Name>
ligand

>  <RI>
0

>  <Rbt.Current_Directory>
/home/itssahil/PROJECTS/Mol_Feturizer/New_Systems/rnas/3DJ2

>  <Rbt.Executable>
rbdock ($Id: //depot/dev/client3/rdock/2013.1/src/exe/rbdock.cxx#4 $)

>  <Rbt.Library>
libRbt.so (2013.1, Build901 2013/11/27)

>  <Rbt.Parameter_File>
/export/apps/rDock/src/rDock_2013.1_src/data/scripts/dock_solv.prm

>  <Rbt.Receptor>
prm/blind_docking_60.prm

>  <SCORE>
-2.89728

>  <SCORE.INTER>
-1.41119

>  <SCORE.INTER.CONST>
1

>  <SCORE.INTER.POLAR>
0

>  <SCORE.INTER.ROT>
5

>  <SCORE.INTER.SOLV>
9.10466

>  <SCORE.INTER.VDW>
-10.909

>  <SCORE.INTER.norm>
-0.141119

>  <SCORE.INTRA>
-1.48609

>  <SCORE.INTRA.DIHEDRAL>
-2.71219

>  <SCORE.INTRA.DIHEDRAL.0>
4.28128

>  <SCORE.INTRA.POLAR>
0

>  <SCORE.INTRA.POLAR.0>
0

>  <SCORE.INTRA.REPUL>
0

>  <SCORE.INTRA.REPUL.0>
0

>  <SCORE.INTRA.SOLV>
-0.415775

>  <SCORE.INTRA.SOLV.lig_0>
-32.3374

>  <SCORE.INTRA.VDW>
0.0778936

>  <SCORE.INTRA.VDW.0>
-0.659551

>  <SCORE.INTRA.norm>
-0.148609

>  <SCORE.RESTR>
0

>  <SCORE.RESTR.CAVITY>
0

>  <SCORE.RESTR.norm>
0

>  <SCORE.SYSTEM>
0

>  <SCORE.SYSTEM.CONST>
0

>  <SCORE.SYSTEM.DIHEDRAL>
0

>  <SCORE.SYSTEM.SOLV>
0

>  <SCORE.SYSTEM.norm>
0

>  <SCORE.heavy>
10

>  <SCORE.norm>
-0.289728

>  <RMSD>
12.374

$$$$
ligand
 OpenBabel11021811473D
libRbt.so/2013.1/901 2013/11/27
 10  9  0  0  0  0  0  0  0  0999 V2000
   25.7135   13.1550    8.7035 N   0  0  0  0  0  0  0  0  0  0  0  0
   25.6434   14.2261    9.7366 C   0  0  2  0  0  0  0  0  0  0  0  0
   26.6155   13.9787   10.8903 C   0  0  0  0  0  0  0  0  0  0  0  0
   27.4952   13.1137   10.8295 O   0  0  0  0  0  0  0  0  0  0  0  0
   24.2107   14.3956   10.2486 C   0  0  0  0  0  0  0  0  0  0  0  0
   23.6061   13.1315   10.8454 C   0  0  0  0  0  0  0  0  0  0  0  0
   22.3296   13.4466   11.6248 C   0  0  0  0  0  0  0  0  0  0  0  0
   21.2255   13.9724   10.7143 C   0  0  0  0  0  0  0  0  0  0  0  0
   19.9665   14.2821   11.4534 N   0  0  0  0  0  0  0  0  0  0  0  0
   26.5591   14.6609   11.9113 O   0  0  0  0  0  0  0  0  0  0  0  0
  2  1  1  6  0  0  0
  2  3  1  0  0  0  0
  2  5  1  0  0  0  0
  3  4  1  0  0  0  0
  3 10  1  0  0  0  0
  5  6  1  0  0  0  0
  6  7  1  0  0  0  0
  7  8  1  0  0  0  0
  8  9  1  0  0  0  0
M  END
>  <CHROM.1>
11.35749232,57.93645611,166.49364811,64.96204245,179.77187984,24.37027817
13.83290265,10.71886297,0.11034500,0.00462182,-1.86179584

>  <Name>
ligand

>  <RI>
0

>  <Rbt.Current_Directory>
/home/itssahil/PROJECTS/Mol_Feturizer/New_Systems/rnas/3DJ2

>  <Rbt.Executable>
rbdock ($Id: //depot/dev/client3/rdock/2013.1/src/exe/rbdock.cxx#4 $)

>  <Rbt.Library>
libRbt.so (2013.1, Build901 2013/11/27)

>  <Rbt.Parameter_File>
/export/apps/rDock/src/rDock_2013.1_src/data/scripts/dock_solv.prm

>  <Rbt.Receptor>
prm/blind_docking_40.prm

>  <SCORE>
-2.97414

>  <SCORE.INTER>
-2.79599

>  <SCORE.INTER.CONST>
1

>  <SCORE.INTER.POLAR>
0

>  <SCORE.INTER.ROT>
5

>  <SCORE.INTER.SOLV>
7.09373

>  <SCORE.INTER.VDW>
-11.1619

>  <SCORE.INTER.norm>
-0.279599

>  <SCORE.INTRA>
-0.178148

>  <SCORE.INTRA.DIHEDRAL>
-1.92258

>  <SCORE.INTRA.DIHEDRAL.0>
4.28128

>  <SCORE.INTRA.POLAR>
0

>  <SCORE.INTRA.POLAR.0>
0

>  <SCORE.INTRA.REPUL>
0

>  <SCORE.INTRA.REPUL.0>
0

>  <SCORE.INTRA.SOLV>
-0.2288

>  <SCORE.INTRA.SOLV.lig_0>
-32.3374

>  <SCORE.INTRA.VDW>
0.897544

>  <SCORE.INTRA.VDW.0>
-0.659551

>  <SCORE.INTRA.norm>
-0.0178148

>  <SCORE.RESTR>
0

>  <SCORE.RESTR.CAVITY>
0

>  <SCORE.RESTR.norm>
0

>  <SCORE.SYSTEM>
0

>  <SCORE.SYSTEM.CONST>
0

>  <SCORE.SYSTEM.DIHEDRAL>
0

>  <SCORE.SYSTEM.SOLV>
0

>  <SCORE.SYSTEM.norm>
0

>  <SCORE.heavy>
10

>  <SCORE.norm>
-0.297414

>  <RMSD>
12.381

$$$$
ligand
 OpenBabel11021811473D
libRbt.so/2013.1/901 2013/11/27
 10  9  0  0  0  0  0  0  0  0999 V2000
   24.6819    6.1870   27.3120 N   0  0  0  0  0  0  0  0  0  0  0  0
   26.1194    5.7980   27.2753 C   0  0  2  0  0  0  0  0  0  0  0  0
   26.4335    4.6594   28.2460 C   0  0  0  0  0  0  0  0  0  0  0  0
   25.5605    4.1413   28.9498 O   0  0  0  0  0  0  0  0  0  0  0  0
   27.0180    7.0096   27.5363 C   0  0  0  0  0  0  0  0  0  0  0  0
   26.9758    8.0671   26.4412 C   0  0  0  0  0  0  0  0  0  0  0  0
   27.4380    7.4922   25.1025 C   0  0  0  0  0  0  0  0  0  0  0  0
   27.4927    8.5605   24.0162 C   0  0  0  0  0  0  0  0  0  0  0  0
   27.9148    8.0163   22.6921 N   0  0  0  0  0  0  0  0  0  0  0  0
   27.5743    4.2101   28.3331 O   0  0  0  0  0  0  0  0  0  0  0  0
  2  1  1  1  0  0  0
  2  3  1  0  0  0  0
  2  5  1  0  0  0  0
  3  4  1  0  0  0  0
  3 10  1  0  0  0  0
  5  6  1  0  0  0  0
  6  7  1  0  0  0  0
  7  8  1  0  0  0  0
  8  9  1  0  0  0  0
M  END
>  <CHROM.1>
0.75710253,-66.74949922,-60.60809956,-176.10870393,-178.81268388,26.72511192
6.38084308,26.61970984,1.84882836,-0.50100971,2.37383907

>  <Name>
ligand

>  <RI>
0

>  <Rbt.Current_Directory>
/home/itssahil/PROJECTS/Mol_Feturizer/New_Systems/rnas/3DJ2

>  <Rbt.Executable>
rbdock ($Id: //depot/dev/client3/rdock/2013.1/src/exe/rbdock.cxx#4 $)

>  <Rbt.Library>
libRbt.so (2013.1, Build901 2013/11/27)

>  <Rbt.Parameter_File>
/export/apps/rDock/src/rDock_2013.1_src/data/scripts/dock_solv.prm

>  <Rbt.Receptor>
prm/blind_docking_100.prm

>  <SCORE>
-3.20467

>  <SCORE.INTER>
-2.28837

>  <SCORE.INTER.CONST>
1

>  <SCORE.INTER.POLAR>
0

>  <SCORE.INTER.ROT>
5

>  <SCORE.INTER.SOLV>
9.08688

>  <SCORE.INTER.VDW>
-11.4879

>  <SCORE.INTER.norm>
-0.228837

>  <SCORE.INTRA>
-0.916309

>  <SCORE.INTRA.DIHEDRAL>
-2.49138

>  <SCORE.INTRA.DIHEDRAL.0>
4.28128

>  <SCORE.INTRA.POLAR>
0

>  <SCORE.INTRA.POLAR.0>
0

>  <SCORE.INTRA.REPUL>
0

>  <SCORE.INTRA.REPUL.0>
0

>  <SCORE.INTRA.SOLV>
0.0208312

>  <SCORE.INTRA.SOLV.lig_0>
-32.3374

>  <SCORE.INTRA.VDW>
0.318966

>  <SCORE.INTRA.VDW.0>
-0.659551

>  <SCORE.INTRA.norm>
-0.0916309

>  <SCORE.RESTR>
0

>  <SCORE.RESTR.CAVITY>
0

>  <SCORE.RESTR.norm>
0

>  <SCORE.SYSTEM>
0

>  <SCORE.SYSTEM.CONST>
0

>  <SCORE.SYSTEM.DIHEDRAL>
0

>  <SCORE.SYSTEM.SOLV>
0

>  <SCORE.SYSTEM.norm>
0

>  <SCORE.heavy>
10

>  <SCORE.norm>
-0.320467

>  <RMSD>
12.612

$$$$
ligand
 OpenBabel11021811473D
libRbt.so/2013.1/901 2013/11/27
 10  9  0  0  0  0  0  0  0  0999 V2000
   25.3240    6.4169   26.9577 N   0  0  0  0  0  0  0  0  0  0  0  0
   26.6828    6.0418   27.4394 C   0  0  2  0  0  0  0  0  0  0  0  0
   26.6834    4.7037   28.1788 C   0  0  0  0  0  0  0  0  0  0  0  0
   27.7288    4.0933   28.4244 O   0  0  0  0  0  0  0  0  0  0  0  0
   27.2782    7.1529   28.3083 C   0  0  0  0  0  0  0  0  0  0  0  0
   27.6630    8.4098   27.5393 C   0  0  0  0  0  0  0  0  0  0  0  0
   28.2386    9.4729   28.4745 C   0  0  0  0  0  0  0  0  0  0  0  0
   28.7016   10.7084   27.7106 C   0  0  0  0  0  0  0  0  0  0  0  0
   29.3521   11.7220   28.5920 N   0  0  0  0  0  0  0  0  0  0  0  0
   25.6299    4.2080   28.5732 O   0  0  0  0  0  0  0  0  0  0  0  0
  2  1  1  1  0  0  0
  2  3  1  0  0  0  0
  2  5  1  0  0  0  0
  3  4  1  0  0  0  0
  3 10  1  0  0  0  0
  5  6  1  0  0  0  0
  6  7  1  0  0  0  0
  7  8  1  0  0  0  0
  8  9  1  0  0  0  0
M  END
>  <CHROM.1>
165.57939250,-70.34813357,179.58584093,176.80044042,-176.10007373,27.32391597
7.25054696,28.03514458,2.00085373,0.49914505,2.93477234

>  <Name>
ligand

>  <RI>
0

>  <Rbt.Current_Directory>
/home/itssahil/PROJECTS/Mol_Feturizer/New_Systems/rnas/3DJ2

>  <Rbt.Executable>
rbdock ($Id: //depot/dev/client3/rdock/2013.1/src/exe/rbdock.cxx#4 $)

>  <Rbt.Library>
libRbt.so (2013.1, Build901 2013/11/27)

>  <Rbt.Parameter_File>
/export/apps/rDock/src/rDock_2013.1_src/data/scripts/dock_solv.prm

>  <Rbt.Receptor>
prm/blind_docking_100.prm

>  <SCORE>
-6.22136

>  <SCORE.INTER>
-4.65117

>  <SCORE.INTER.CONST>
1

>  <SCORE.INTER.POLAR>
0

>  <SCORE.INTER.ROT>
5

>  <SCORE.INTER.SOLV>
8.01748

>  <SCORE.INTER.VDW>
-12.7066

>  <SCORE.INTER.norm>
-0.465117

>  <SCORE.INTRA>
-1.57019

>  <SCORE.INTRA.DIHEDRAL>
-2.25723

>  <SCORE.INTRA.DIHEDRAL.0>
4.28128

>  <SCORE.INTRA.POLAR>
0

>  <SCORE.INTRA.POLAR.0>
0

>  <SCORE.INTRA.REPUL>
0

>  <SCORE.INTRA.REPUL.0>
0

>  <SCORE.INTRA.SOLV>
-0.565973

>  <SCORE.INTRA.SOLV.lig_0>
-32.3374

>  <SCORE.INTRA.VDW>
-0.158589

>  <SCORE.INTRA.VDW.0>
-0.659551

>  <SCORE.INTRA.norm>
-0.157019

>  <SCORE.RESTR>
0

>  <SCORE.RESTR.CAVITY>
0

>  <SCORE.RESTR.norm>
0

>  <SCORE.SYSTEM>
0

>  <SCORE.SYSTEM.CONST>
0

>  <SCORE.SYSTEM.DIHEDRAL>
0

>  <SCORE.SYSTEM.SOLV>
0

>  <SCORE.SYSTEM.norm>
0

>  <SCORE.heavy>
10

>  <SCORE.norm>
-0.622136

>  <RMSD>
12.796

$$$$
ligand
 OpenBabel11021811473D
libRbt.so/2013.1/901 2013/11/27
 10  9  0  0  0  0  0  0  0  0999 V2000
   26.0378   14.7844   11.8971 N   0  0  0  0  0  0  0  0  0  0  0  0
   26.7138   14.0507   10.7907 C   0  0  2  0  0  0  0  0  0  0  0  0
   28.1941   14.4153   10.6772 C   0  0  0  0  0  0  0  0  0  0  0  0
   28.5707   15.4546   10.1261 O   0  0  0  0  0  0  0  0  0  0  0  0
   25.9861   14.2772    9.4630 C   0  0  0  0  0  0  0  0  0  0  0  0
   26.4477   13.3660    8.3334 C   0  0  0  0  0  0  0  0  0  0  0  0
   25.7250   13.6977    7.0281 C   0  0  0  0  0  0  0  0  0  0  0  0
   26.1035   12.7326    5.9102 C   0  0  0  0  0  0  0  0  0  0  0  0
   27.5593   12.7699    5.5836 N   0  0  0  0  0  0  0  0  0  0  0  0
   29.0560   13.6837   11.1599 O   0  0  0  0  0  0  0  0  0  0  0  0
  2  1  1  1  0  0  0
  2  3  1  0  0  0  0
  2  5  1  0  0  0  0
  3  4  1  0  0  0  0
  3 10  1  0  0  0  0
  5  6  1  0  0  0  0
  6  7  1  0  0  0  0
  7  8  1  0  0  0  0
  8  9  1  0  0  0  0
M  END
>  <CHROM.1>
-79.43365310,-169.17259906,-177.24623488,-176.03965435,-61.19186002,27.07489775
13.93337093,9.10557653,1.33953536,-0.02223155,1.26744316

>  <Name>
ligand

>  <RI>
0

>  <Rbt.Current_Directory>
/home/itssahil/PROJECTS/Mol_Feturizer/New_Systems/rnas/3DJ2

>  <Rbt.Executable>
rbdock ($Id: //depot/dev/client3/rdock/2013.1/src/exe/rbdock.cxx#4 $)

>  <Rbt.Library>
libRbt.so (2013.1, Build901 2013/11/27)

>  <Rbt.Parameter_File>
/export/apps/rDock/src/rDock_2013.1_src/data/scripts/dock_solv.prm

>  <Rbt.Receptor>
prm/blind_docking_40.prm

>  <SCORE>
-4.72174

>  <SCORE.INTER>
-3.40512

>  <SCORE.INTER.CONST>
1

>  <SCORE.INTER.POLAR>
0

>  <SCORE.INTER.ROT>
5

>  <SCORE.INTER.SOLV>
10.8288

>  <SCORE.INTER.VDW>
-12.813

>  <SCORE.INTER.norm>
-0.340512

>  <SCORE.INTRA>
-1.31661

>  <SCORE.INTRA.DIHEDRAL>
-2.27807

>  <SCORE.INTRA.DIHEDRAL.0>
4.28128

>  <SCORE.INTRA.POLAR>
0

>  <SCORE.INTRA.POLAR.0>
0

>  <SCORE.INTRA.REPUL>
0

>  <SCORE.INTRA.REPUL.0>
0

>  <SCORE.INTRA.SOLV>
-0.431179

>  <SCORE.INTRA.SOLV.lig_0>
-32.3374

>  <SCORE.INTRA.VDW>
0.0380092

>  <SCORE.INTRA.VDW.0>
-0.659551

>  <SCORE.INTRA.norm>
-0.131661

>  <SCORE.RESTR>
0

>  <SCORE.RESTR.CAVITY>
0

>  <SCORE.RESTR.norm>
0

>  <SCORE.SYSTEM>
0

>  <SCORE.SYSTEM.CONST>
0

>  <SCORE.SYSTEM.DIHEDRAL>
0

>  <SCORE.SYSTEM.SOLV>
0

>  <SCORE.SYSTEM.norm>
0

>  <SCORE.heavy>
10

>  <SCORE.norm>
-0.472174

>  <RMSD>
12.940

$$$$
ligand
 OpenBabel11021811473D
libRbt.so/2013.1/901 2013/11/27
 10  9  0  0  0  0  0  0  0  0999 V2000
   26.4094   14.8015   11.8952 N   0  0  0  0  0  0  0  0  0  0  0  0
   27.1145   14.3906   10.6488 C   0  0  2  0  0  0  0  0  0  0  0  0
   28.2723   15.3282   10.3057 C   0  0  0  0  0  0  0  0  0  0  0  0
   28.2884   16.5079   10.6719 O   0  0  0  0  0  0  0  0  0  0  0  0
   26.1322   14.2759    9.4803 C   0  0  0  0  0  0  0  0  0  0  0  0
   26.7601   13.7900    8.1807 C   0  0  0  0  0  0  0  0  0  0  0  0
   25.7046   13.6230    7.0879 C   0  0  0  0  0  0  0  0  0  0  0  0
   26.3326   13.2772    5.7423 C   0  0  0  0  0  0  0  0  0  0  0  0
   27.0857   11.9890    5.7708 N   0  0  0  0  0  0  0  0  0  0  0  0
   29.2400   14.9179    9.6683 O   0  0  0  0  0  0  0  0  0  0  0  0
  2  1  1  1  0  0  0
  2  3  1  0  0  0  0
  2  5  1  0  0  0  0
  3  4  1  0  0  0  0
  3 10  1  0  0  0  0
  5  6  1  0  0  0  0
  6  7  1  0  0  0  0
  7  8  1  0  0  0  0
  8  9  1  0  0  0  0
M  END
>  <CHROM.1>
-26.29518609,-177.02032070,176.64302219,174.08691593,61.28102756,27.16354417
14.31460323,8.94786783,1.30991155,0.34394393,1.16403500

>  <Name>
ligand

>  <RI>
0

>  <Rbt.Current_Directory>
/home/itssahil/PROJECTS/Mol_Feturizer/New_Systems/rnas/3DJ2

>  <Rbt.Executable>
rbdock ($Id: //depot/dev/client3/rdock/2013.1/src/exe/rbdock.cxx#4 $)

>  <Rbt.Library>
libRbt.so (2013.1, Build901 2013/11/27)

>  <Rbt.Parameter_File>
/export/apps/rDock/src/rDock_2013.1_src/data/scripts/dock_solv.prm

>  <Rbt.Receptor>
prm/blind_docking_40.prm

>  <SCORE>
-5.37676

>  <SCORE.INTER>
-3.97598

>  <SCORE.INTER.CONST>
1

>  <SCORE.INTER.POLAR>
0

>  <SCORE.INTER.ROT>
5

>  <SCORE.INTER.SOLV>
11.5844

>  <SCORE.INTER.VDW>
-13.4454

>  <SCORE.INTER.norm>
-0.397598

>  <SCORE.INTRA>
-1.40078

>  <SCORE.INTRA.DIHEDRAL>
-2.48324

>  <SCORE.INTRA.DIHEDRAL.0>
4.28128

>  <SCORE.INTRA.POLAR>
0

>  <SCORE.INTRA.POLAR.0>
0

>  <SCORE.INTRA.REPUL>
0

>  <SCORE.INTRA.REPUL.0>
0

>  <SCORE.INTRA.SOLV>
-0.432227

>  <SCORE.INTRA.SOLV.lig_0>
-32.3374

>  <SCORE.INTRA.VDW>
0.0569545

>  <SCORE.INTRA.VDW.0>
-0.659551

>  <SCORE.INTRA.norm>
-0.140078

>  <SCORE.RESTR>
0

>  <SCORE.RESTR.CAVITY>
0

>  <SCORE.RESTR.norm>
0

>  <SCORE.SYSTEM>
0

>  <SCORE.SYSTEM.CONST>
0

>  <SCORE.SYSTEM.DIHEDRAL>
0

>  <SCORE.SYSTEM.SOLV>
0

>  <SCORE.SYSTEM.norm>
0

>  <SCORE.heavy>
10

>  <SCORE.norm>
-0.537676

>  <RMSD>
12.949

$$$$
ligand
 OpenBabel11021811473D
libRbt.so/2013.1/901 2013/11/27
 10  9  0  0  0  0  0  0  0  0999 V2000
   25.1352    4.7332   25.9643 N   0  0  0  0  0  0  0  0  0  0  0  0
   26.3373    5.2423   26.6818 C   0  0  2  0  0  0  0  0  0  0  0  0
   26.5309    4.5617   28.0371 C   0  0  0  0  0  0  0  0  0  0  0  0
   27.6506    4.2602   28.4628 O   0  0  0  0  0  0  0  0  0  0  0  0
   26.2774    6.7646   26.8321 C   0  0  0  0  0  0  0  0  0  0  0  0
   27.5400    7.3857   27.4149 C   0  0  0  0  0  0  0  0  0  0  0  0
   27.4350    8.9100   27.4567 C   0  0  0  0  0  0  0  0  0  0  0  0
   28.7321    9.5540   27.9334 C   0  0  0  0  0  0  0  0  0  0  0  0
   28.6307   11.0384   28.0499 N   0  0  0  0  0  0  0  0  0  0  0  0
   25.5646    4.3164   28.7561 O   0  0  0  0  0  0  0  0  0  0  0  0
  2  1  1  1  0  0  0
  2  3  1  0  0  0  0
  2  5  1  0  0  0  0
  3  4  1  0  0  0  0
  3 10  1  0  0  0  0
  5  6  1  0  0  0  0
  6  7  1  0  0  0  0
  7  8  1  0  0  0  0
  8  9  1  0  0  0  0
M  END
>  <CHROM.1>
141.43897877,-173.45991572,176.64717779,-175.45528922,-177.02570970,26.98398605
6.64999811,27.58787482,2.18241953,0.83951195,2.69773925

>  <Name>
ligand

>  <RI>
0

>  <Rbt.Current_Directory>
/home/itssahil/PROJECTS/Mol_Feturizer/New_Systems/rnas/3DJ2

>  <Rbt.Executable>
rbdock ($Id: //depot/dev/client3/rdock/2013.1/src/exe/rbdock.cxx#4 $)

>  <Rbt.Library>
libRbt.so (2013.1, Build901 2013/11/27)

>  <Rbt.Parameter_File>
/export/apps/rDock/src/rDock_2013.1_src/data/scripts/dock_solv.prm

>  <Rbt.Receptor>
prm/blind_docking_100.prm

>  <SCORE>
-5.35832

>  <SCORE.INTER>
-3.25212

>  <SCORE.INTER.CONST>
1

>  <SCORE.INTER.POLAR>
0

>  <SCORE.INTER.ROT>
5

>  <SCORE.INTER.SOLV>
7.62267

>  <SCORE.INTER.VDW>
-11.6423

>  <SCORE.INTER.norm>
-0.325212

>  <SCORE.INTRA>
-2.1062

>  <SCORE.INTRA.DIHEDRAL>
-2.48383

>  <SCORE.INTRA.DIHEDRAL.0>
4.28128

>  <SCORE.INTRA.POLAR>
0

>  <SCORE.INTRA.POLAR.0>
0

>  <SCORE.INTRA.REPUL>
0

>  <SCORE.INTRA.REPUL.0>
0

>  <SCORE.INTRA.SOLV>
-1.33626

>  <SCORE.INTRA.SOLV.lig_0>
-32.3374

>  <SCORE.INTRA.VDW>
-0.196157

>  <SCORE.INTRA.VDW.0>
-0.659551

>  <SCORE.INTRA.norm>
-0.21062

>  <SCORE.RESTR>
0

>  <SCORE.RESTR.CAVITY>
0

>  <SCORE.RESTR.norm>
0

>  <SCORE.SYSTEM>
0

>  <SCORE.SYSTEM.CONST>
0

>  <SCORE.SYSTEM.DIHEDRAL>
0

>  <SCORE.SYSTEM.SOLV>
0

>  <SCORE.SYSTEM.norm>
0

>  <SCORE.heavy>
10

>  <SCORE.norm>
-0.535832

>  <RMSD>
12.985

$$$$
ligand
 OpenBabel11021811473D
libRbt.so/2013.1/901 2013/11/27
 10  9  0  0  0  0  0  0  0  0999 V2000
   26.5083   14.8204   11.9067 N   0  0  0  0  0  0  0  0  0  0  0  0
   27.1532   14.4190   10.6252 C   0  0  2  0  0  0  0  0  0  0  0  0
   28.2814   15.3698   10.2250 C   0  0  0  0  0  0  0  0  0  0  0  0
   28.3527   16.5215   10.6660 O   0  0  0  0  0  0  0  0  0  0  0  0
   26.1136   14.2948    9.5083 C   0  0  0  0  0  0  0  0  0  0  0  0
   26.6421   13.6575    8.2300 C   0  0  0  0  0  0  0  0  0  0  0  0
   25.5483   13.5685    7.1661 C   0  0  0  0  0  0  0  0  0  0  0  0
   26.0350   12.8505    5.9123 C   0  0  0  0  0  0  0  0  0  0  0  0
   27.1870   13.5413    5.2620 N   0  0  0  0  0  0  0  0  0  0  0  0
   29.1705   14.9975    9.4621 O   0  0  0  0  0  0  0  0  0  0  0  0
  2  1  1  1  0  0  0
  2  3  1  0  0  0  0
  2  5  1  0  0  0  0
  3  4  1  0  0  0  0
  3 10  1  0  0  0  0
  5  6  1  0  0  0  0
  6  7  1  0  0  0  0
  7  8  1  0  0  0  0
  8  9  1  0  0  0  0
M  END
>  <CHROM.1>
-21.19122948,-169.89698508,179.97733683,-176.26829325,-60.64377851,27.12847631
14.42814380,8.89778841,1.26071166,0.46553282,1.28770942

>  <Name>
ligand

>  <RI>
0

>  <Rbt.Current_Directory>
/home/itssahil/PROJECTS/Mol_Feturizer/New_Systems/rnas/3DJ2

>  <Rbt.Executable>
rbdock ($Id: //depot/dev/client3/rdock/2013.1/src/exe/rbdock.cxx#4 $)

>  <Rbt.Library>
libRbt.so (2013.1, Build901 2013/11/27)

>  <Rbt.Parameter_File>
/export/apps/rDock/src/rDock_2013.1_src/data/scripts/dock_solv.prm

>  <Rbt.Receptor>
prm/blind_docking_40.prm

>  <SCORE>
-5.73622

>  <SCORE.INTER>
-4.37202

>  <SCORE.INTER.CONST>
1

>  <SCORE.INTER.POLAR>
0

>  <SCORE.INTER.ROT>
5

>  <SCORE.INTER.SOLV>
11.7535

>  <SCORE.INTER.VDW>
-13.7658

>  <SCORE.INTER.norm>
-0.437202

>  <SCORE.INTRA>
-1.3642

>  <SCORE.INTRA.DIHEDRAL>
-2.28745

>  <SCORE.INTRA.DIHEDRAL.0>
4.28128

>  <SCORE.INTRA.POLAR>
0

>  <SCORE.INTRA.POLAR.0>
0

>  <SCORE.INTRA.REPUL>
0

>  <SCORE.INTRA.REPUL.0>
0

>  <SCORE.INTRA.SOLV>
-0.406532

>  <SCORE.INTRA.SOLV.lig_0>
-32.3374

>  <SCORE.INTRA.VDW>
-0.0172064

>  <SCORE.INTRA.VDW.0>
-0.659551

>  <SCORE.INTRA.norm>
-0.13642

>  <SCORE.RESTR>
0

>  <SCORE.RESTR.CAVITY>
0

>  <SCORE.RESTR.norm>
0

>  <SCORE.SYSTEM>
0

>  <SCORE.SYSTEM.CONST>
0

>  <SCORE.SYSTEM.DIHEDRAL>
0

>  <SCORE.SYSTEM.SOLV>
0

>  <SCORE.SYSTEM.norm>
0

>  <SCORE.heavy>
10

>  <SCORE.norm>
-0.573622

>  <RMSD>
12.987

$$$$
ligand
 OpenBabel11021811473D
libRbt.so/2013.1/901 2013/11/27
 10  9  0  0  0  0  0  0  0  0999 V2000
   27.1261   14.8349   10.0591 N   0  0  0  0  0  0  0  0  0  0  0  0
   25.8886   14.2031    9.5218 C   0  0  2  0  0  0  0  0  0  0  0  0
   25.3638   14.9267    8.2815 C   0  0  0  0  0  0  0  0  0  0  0  0
   24.9521   16.0904    8.3292 O   0  0  0  0  0  0  0  0  0  0  0  0
   24.8104   14.1107   10.6046 C   0  0  0  0  0  0  0  0  0  0  0  0
   23.5389   13.3987   10.1621 C   0  0  0  0  0  0  0  0  0  0  0  0
   22.4544   13.4907   11.2352 C   0  0  0  0  0  0  0  0  0  0  0  0
   22.7572   12.5870   12.4252 C   0  0  0  0  0  0  0  0  0  0  0  0
   21.6808   12.6133   13.4586 N   0  0  0  0  0  0  0  0  0  0  0  0
   25.3611   14.3674    7.1869 O   0  0  0  0  0  0  0  0  0  0  0  0
  2  1  1  1  0  0  0
  2  3  1  0  0  0  0
  2  5  1  0  0  0  0
  3  4  1  0  0  0  0
  3 10  1  0  0  0  0
  5  6  1  0  0  0  0
  6  7  1  0  0  0  0
  7  8  1  0  0  0  0
  8  9  1  0  0  0  0
M  END
>  <CHROM.1>
-64.68521043,-176.46045815,-173.30496794,-73.27238491,-177.39664037,24.39014356
14.08164878,10.09039585,-0.91965052,0.22210180,1.88730463

>  <Name>
ligand

>  <RI>
0

>  <Rbt.Current_Directory>
/home/itssahil/PROJECTS/Mol_Feturizer/New_Systems/rnas/3DJ2

>  <Rbt.Executable>
rbdock ($Id: //depot/dev/client3/rdock/2013.1/src/exe/rbdock.cxx#4 $)

>  <Rbt.Library>
libRbt.so (2013.1, Build901 2013/11/27)

>  <Rbt.Parameter_File>
/export/apps/rDock/src/rDock_2013.1_src/data/scripts/dock_solv.prm

>  <Rbt.Receptor>
prm/blind_docking_60.prm

>  <SCORE>
-4.91625

>  <SCORE.INTER>
-3.76098

>  <SCORE.INTER.CONST>
1

>  <SCORE.INTER.POLAR>
0

>  <SCORE.INTER.ROT>
5

>  <SCORE.INTER.SOLV>
6.92218

>  <SCORE.INTER.VDW>
-11.748

>  <SCORE.INTER.norm>
-0.376098

>  <SCORE.INTRA>
-1.15527

>  <SCORE.INTRA.DIHEDRAL>
-1.81166

>  <SCORE.INTRA.DIHEDRAL.0>
4.28128

>  <SCORE.INTRA.POLAR>
0

>  <SCORE.INTRA.POLAR.0>
0

>  <SCORE.INTRA.REPUL>
0

>  <SCORE.INTRA.REPUL.0>
0

>  <SCORE.INTRA.SOLV>
-1.16633

>  <SCORE.INTRA.SOLV.lig_0>
-32.3374

>  <SCORE.INTRA.VDW>
0.333722

>  <SCORE.INTRA.VDW.0>
-0.659551

>  <SCORE.INTRA.norm>
-0.115527

>  <SCORE.RESTR>
0

>  <SCORE.RESTR.CAVITY>
0

>  <SCORE.RESTR.norm>
0

>  <SCORE.SYSTEM>
0

>  <SCORE.SYSTEM.CONST>
0

>  <SCORE.SYSTEM.DIHEDRAL>
0

>  <SCORE.SYSTEM.SOLV>
0

>  <SCORE.SYSTEM.norm>
0

>  <SCORE.heavy>
10

>  <SCORE.norm>
-0.491625

>  <RMSD>
13.032

$$$$
ligand
 OpenBabel11021811473D
libRbt.so/2013.1/901 2013/11/27
 10  9  0  0  0  0  0  0  0  0999 V2000
   25.1820    5.4261   26.3098 N   0  0  0  0  0  0  0  0  0  0  0  0
   26.4317    5.6456   27.0906 C   0  0  2  0  0  0  0  0  0  0  0  0
   26.6152    4.6001   28.1908 C   0  0  0  0  0  0  0  0  0  0  0  0
   27.7274    4.1518   28.4873 O   0  0  0  0  0  0  0  0  0  0  0  0
   26.4727    7.0642   27.6647 C   0  0  0  0  0  0  0  0  0  0  0  0
   27.7695    7.4105   28.3842 C   0  0  0  0  0  0  0  0  0  0  0  0
   27.7276    8.8336   28.9402 C   0  0  0  0  0  0  0  0  0  0  0  0
   27.8149    9.8772   27.8322 C   0  0  0  0  0  0  0  0  0  0  0  0
   29.0999    9.8104   27.0762 N   0  0  0  0  0  0  0  0  0  0  0  0
   25.6489    4.1924   28.8319 O   0  0  0  0  0  0  0  0  0  0  0  0
  2  1  1  1  0  0  0
  2  3  1  0  0  0  0
  2  5  1  0  0  0  0
  3  4  1  0  0  0  0
  3 10  1  0  0  0  0
  5  6  1  0  0  0  0
  6  7  1  0  0  0  0
  7  8  1  0  0  0  0
  8  9  1  0  0  0  0
M  END
>  <CHROM.1>
143.04751301,-175.32676998,-179.39899596,-71.64691455,-62.66094813,27.04946204
6.66780077,27.90412209,2.10844489,0.74047365,2.72301695

>  <Name>
ligand

>  <RI>
0

>  <Rbt.Current_Directory>
/home/itssahil/PROJECTS/Mol_Feturizer/New_Systems/rnas/3DJ2

>  <Rbt.Executable>
rbdock ($Id: //depot/dev/client3/rdock/2013.1/src/exe/rbdock.cxx#4 $)

>  <Rbt.Library>
libRbt.so (2013.1, Build901 2013/11/27)

>  <Rbt.Parameter_File>
/export/apps/rDock/src/rDock_2013.1_src/data/scripts/dock_solv.prm

>  <Rbt.Receptor>
prm/blind_docking_60.prm

>  <SCORE>
-5.27155

>  <SCORE.INTER>
-4.60508

>  <SCORE.INTER.CONST>
1

>  <SCORE.INTER.POLAR>
0

>  <SCORE.INTER.ROT>
5

>  <SCORE.INTER.SOLV>
5.06677

>  <SCORE.INTER.VDW>
-11.6923

>  <SCORE.INTER.norm>
-0.460508

>  <SCORE.INTRA>
-0.666463

>  <SCORE.INTRA.DIHEDRAL>
-2.14858

>  <SCORE.INTRA.DIHEDRAL.0>
4.28128

>  <SCORE.INTRA.POLAR>
0

>  <SCORE.INTRA.POLAR.0>
0

>  <SCORE.INTRA.REPUL>
0

>  <SCORE.INTRA.REPUL.0>
0

>  <SCORE.INTRA.SOLV>
0.0402283

>  <SCORE.INTRA.SOLV.lig_0>
-32.3374

>  <SCORE.INTRA.VDW>
0.387713

>  <SCORE.INTRA.VDW.0>
-0.659551

>  <SCORE.INTRA.norm>
-0.0666463

>  <SCORE.RESTR>
0

>  <SCORE.RESTR.CAVITY>
0

>  <SCORE.RESTR.norm>
0

>  <SCORE.SYSTEM>
0

>  <SCORE.SYSTEM.CONST>
0

>  <SCORE.SYSTEM.DIHEDRAL>
0

>  <SCORE.SYSTEM.SOLV>
0

>  <SCORE.SYSTEM.norm>
0

>  <SCORE.heavy>
10

>  <SCORE.norm>
-0.527155

>  <RMSD>
13.038

$$$$
ligand
 OpenBabel11021811473D
libRbt.so/2013.1/901 2013/11/27
 10  9  0  0  0  0  0  0  0  0999 V2000
   27.2586   14.6759    9.8002 N   0  0  0  0  0  0  0  0  0  0  0  0
   25.9024   14.1346    9.5054 C   0  0  2  0  0  0  0  0  0  0  0  0
   25.2278   14.8694    8.3468 C   0  0  0  0  0  0  0  0  0  0  0  0
   24.9923   16.0813    8.3903 O   0  0  0  0  0  0  0  0  0  0  0  0
   25.0237   14.1556   10.7588 C   0  0  0  0  0  0  0  0  0  0  0  0
   23.6319   13.5711   10.5568 C   0  0  0  0  0  0  0  0  0  0  0  0
   22.8300   13.5965   11.8577 C   0  0  0  0  0  0  0  0  0  0  0  0
   21.4362   13.0062   11.6753 C   0  0  0  0  0  0  0  0  0  0  0  0
   20.6358   13.0156   12.9349 N   0  0  0  0  0  0  0  0  0  0  0  0
   24.9207   14.2675    7.3200 O   0  0  0  0  0  0  0  0  0  0  0  0
  2  1  1  1  0  0  0
  2  3  1  0  0  0  0
  2  5  1  0  0  0  0
  3  4  1  0  0  0  0
  3 10  1  0  0  0  0
  5  6  1  0  0  0  0
  6  7  1  0  0  0  0
  7  8  1  0  0  0  0
  8  9  1  0  0  0  0
M  END
>  <CHROM.1>
-60.30858032,-177.91732287,178.61571201,-179.63111456,179.77825029,24.18040476
14.15600963,10.08070891,-0.74783425,0.13944440,1.86738402

>  <Name>
ligand

>  <RI>
0

>  <Rbt.Current_Directory>
/home/itssahil/PROJECTS/Mol_Feturizer/New_Systems/rnas/3DJ2

>  <Rbt.Executable>
rbdock ($Id: //depot/dev/client3/rdock/2013.1/src/exe/rbdock.cxx#4 $)

>  <Rbt.Library>
libRbt.so (2013.1, Build901 2013/11/27)

>  <Rbt.Parameter_File>
/export/apps/rDock/src/rDock_2013.1_src/data/scripts/dock_solv.prm

>  <Rbt.Receptor>
prm/blind_docking_40.prm

>  <SCORE>
-5.50063

>  <SCORE.INTER>
-3.32815

>  <SCORE.INTER.CONST>
1

>  <SCORE.INTER.POLAR>
0

>  <SCORE.INTER.ROT>
5

>  <SCORE.INTER.SOLV>
4.83689

>  <SCORE.INTER.VDW>
-10.7644

>  <SCORE.INTER.norm>
-0.332815

>  <SCORE.INTRA>
-2.17248

>  <SCORE.INTRA.DIHEDRAL>
-2.74146

>  <SCORE.INTRA.DIHEDRAL.0>
4.28128

>  <SCORE.INTRA.POLAR>
0

>  <SCORE.INTRA.POLAR.0>
0

>  <SCORE.INTRA.REPUL>
0

>  <SCORE.INTRA.REPUL.0>
0

>  <SCORE.INTRA.SOLV>
-1.34572

>  <SCORE.INTRA.SOLV.lig_0>
-32.3374

>  <SCORE.INTRA.VDW>
-0.128889

>  <SCORE.INTRA.VDW.0>
-0.659551

>  <SCORE.INTRA.norm>
-0.217248

>  <SCORE.RESTR>
0

>  <SCORE.RESTR.CAVITY>
0

>  <SCORE.RESTR.norm>
0

>  <SCORE.SYSTEM>
0

>  <SCORE.SYSTEM.CONST>
0

>  <SCORE.SYSTEM.DIHEDRAL>
0

>  <SCORE.SYSTEM.SOLV>
0

>  <SCORE.SYSTEM.norm>
0

>  <SCORE.heavy>
10

>  <SCORE.norm>
-0.550063

>  <RMSD>
13.094

$$$$
ligand
 OpenBabel11021811473D
libRbt.so/2013.1/901 2013/11/27
 10  9  0  0  0  0  0  0  0  0999 V2000
   27.3591   14.5432    9.7074 N   0  0  0  0  0  0  0  0  0  0  0  0
   25.9757   14.0757    9.4126 C   0  0  2  0  0  0  0  0  0  0  0  0
   25.3376   14.8531    8.2612 C   0  0  0  0  0  0  0  0  0  0  0  0
   24.9679   16.0247    8.3895 O   0  0  0  0  0  0  0  0  0  0  0  0
   25.1023   14.1336   10.6686 C   0  0  0  0  0  0  0  0  0  0  0  0
   23.6947   13.5847   10.4774 C   0  0  0  0  0  0  0  0  0  0  0  0
   22.8968   13.6496   11.7795 C   0  0  0  0  0  0  0  0  0  0  0  0
   21.4819   13.1095   11.6041 C   0  0  0  0  0  0  0  0  0  0  0  0
   20.6704   13.2002   12.8533 N   0  0  0  0  0  0  0  0  0  0  0  0
   25.1971   14.3306    7.1574 O   0  0  0  0  0  0  0  0  0  0  0  0
  2  1  1  1  0  0  0
  2  3  1  0  0  0  0
  2  5  1  0  0  0  0
  3  4  1  0  0  0  0
  3 10  1  0  0  0  0
  5  6  1  0  0  0  0
  6  7  1  0  0  0  0
  7  8  1  0  0  0  0
  8  9  1  0  0  0  0
M  END
>  <CHROM.1>
-72.24442621,-176.13784710,178.80100368,179.73347764,-178.30362737,24.26371691
14.16978288,9.99732652,-0.74207226,0.06864796,1.89121994

>  <Name>
ligand

>  <RI>
0

>  <Rbt.Current_Directory>
/home/itssahil/PROJECTS/Mol_Feturizer/New_Systems/rnas/3DJ2

>  <Rbt.Executable>
rbdock ($Id: //depot/dev/client3/rdock/2013.1/src/exe/rbdock.cxx#4 $)

>  <Rbt.Library>
libRbt.so (2013.1, Build901 2013/11/27)

>  <Rbt.Parameter_File>
/export/apps/rDock/src/rDock_2013.1_src/data/scripts/dock_solv.prm

>  <Rbt.Receptor>
prm/blind_docking_40.prm

>  <SCORE>
-5.43006

>  <SCORE.INTER>
-3.34318

>  <SCORE.INTER.CONST>
1

>  <SCORE.INTER.POLAR>
0

>  <SCORE.INTER.ROT>
5

>  <SCORE.INTER.SOLV>
4.74482

>  <SCORE.INTER.VDW>
-10.7437

>  <SCORE.INTER.norm>
-0.334318

>  <SCORE.INTRA>
-2.08688

>  <SCORE.INTRA.DIHEDRAL>
-2.72395

>  <SCORE.INTRA.DIHEDRAL.0>
4.28128

>  <SCORE.INTRA.POLAR>
0

>  <SCORE.INTRA.POLAR.0>
0

>  <SCORE.INTRA.REPUL>
0

>  <SCORE.INTRA.REPUL.0>
0

>  <SCORE.INTRA.SOLV>
-1.34777

>  <SCORE.INTRA.SOLV.lig_0>
-32.3374

>  <SCORE.INTRA.VDW>
-0.0510167

>  <SCORE.INTRA.VDW.0>
-0.659551

>  <SCORE.INTRA.norm>
-0.208688

>  <SCORE.RESTR>
0

>  <SCORE.RESTR.CAVITY>
0

>  <SCORE.RESTR.norm>
0

>  <SCORE.SYSTEM>
0

>  <SCORE.SYSTEM.CONST>
0

>  <SCORE.SYSTEM.DIHEDRAL>
0

>  <SCORE.SYSTEM.SOLV>
0

>  <SCORE.SYSTEM.norm>
0

>  <SCORE.heavy>
10

>  <SCORE.norm>
-0.543006

>  <RMSD>
13.118

$$$$
ligand
 OpenBabel11021811473D
libRbt.so/2013.1/901 2013/11/27
 10  9  0  0  0  0  0  0  0  0999 V2000
   27.0576   14.6809    9.8385 N   0  0  0  0  0  0  0  0  0  0  0  0
   25.7404   14.0365    9.5756 C   0  0  2  0  0  0  0  0  0  0  0  0
   25.0318   14.6459    8.3657 C   0  0  0  0  0  0  0  0  0  0  0  0
   24.8923   15.8664    8.2364 O   0  0  0  0  0  0  0  0  0  0  0  0
   24.8508   14.0888   10.8204 C   0  0  0  0  0  0  0  0  0  0  0  0
   23.5530   13.3018   10.6951 C   0  0  0  0  0  0  0  0  0  0  0  0
   22.7386   13.3737   11.9866 C   0  0  0  0  0  0  0  0  0  0  0  0
   21.4453   12.5727   11.8858 C   0  0  0  0  0  0  0  0  0  0  0  0
   20.6254   12.6410   13.1309 N   0  0  0  0  0  0  0  0  0  0  0  0
   24.5988   13.9263    7.4680 O   0  0  0  0  0  0  0  0  0  0  0  0
  2  1  1  1  0  0  0
  2  3  1  0  0  0  0
  2  5  1  0  0  0  0
  3  4  1  0  0  0  0
  3 10  1  0  0  0  0
  5  6  1  0  0  0  0
  6  7  1  0  0  0  0
  7  8  1  0  0  0  0
  8  9  1  0  0  0  0
M  END
>  <CHROM.1>
-49.68979267,-172.80065877,178.58312095,-179.11753643,-179.35112107,24.04678246
13.92962155,10.16494931,-0.78015487,0.24727769,1.80612076

>  <Name>
ligand

>  <RI>
0

>  <Rbt.Current_Directory>
/home/itssahil/PROJECTS/Mol_Feturizer/New_Systems/rnas/3DJ2

>  <Rbt.Executable>
rbdock ($Id: //depot/dev/client3/rdock/2013.1/src/exe/rbdock.cxx#4 $)

>  <Rbt.Library>
libRbt.so (2013.1, Build901 2013/11/27)

>  <Rbt.Parameter_File>
/export/apps/rDock/src/rDock_2013.1_src/data/scripts/dock_solv.prm

>  <Rbt.Receptor>
prm/blind_docking_40.prm

>  <SCORE>
-5.32574

>  <SCORE.INTER>
-3.15267

>  <SCORE.INTER.CONST>
1

>  <SCORE.INTER.POLAR>
0

>  <SCORE.INTER.ROT>
5

>  <SCORE.INTER.SOLV>
4.99945

>  <SCORE.INTER.VDW>
-10.7016

>  <SCORE.INTER.norm>
-0.315267

>  <SCORE.INTRA>
-2.17307

>  <SCORE.INTRA.DIHEDRAL>
-2.54024

>  <SCORE.INTRA.DIHEDRAL.0>
4.28128

>  <SCORE.INTRA.POLAR>
0

>  <SCORE.INTRA.POLAR.0>
0

>  <SCORE.INTRA.REPUL>
0

>  <SCORE.INTRA.REPUL.0>
0

>  <SCORE.INTRA.SOLV>
-1.33861

>  <SCORE.INTRA.SOLV.lig_0>
-32.3374

>  <SCORE.INTRA.VDW>
-0.233641

>  <SCORE.INTRA.VDW.0>
-0.659551

>  <SCORE.INTRA.norm>
-0.217307

>  <SCORE.RESTR>
0

>  <SCORE.RESTR.CAVITY>
0

>  <SCORE.RESTR.norm>
0

>  <SCORE.SYSTEM>
0

>  <SCORE.SYSTEM.CONST>
0

>  <SCORE.SYSTEM.DIHEDRAL>
0

>  <SCORE.SYSTEM.SOLV>
0

>  <SCORE.SYSTEM.norm>
0

>  <SCORE.heavy>
10

>  <SCORE.norm>
-0.532574

>  <RMSD>
13.146

$$$$
ligand
 OpenBabel11021811473D
libRbt.so/2013.1/901 2013/11/27
 10  9  0  0  0  0  0  0  0  0999 V2000
   26.7757   13.9455   11.2219 N   0  0  0  0  0  0  0  0  0  0  0  0
   27.2699   14.4198    9.8990 C   0  0  2  0  0  0  0  0  0  0  0  0
   28.2688   15.5690   10.0351 C   0  0  0  0  0  0  0  0  0  0  0  0
   28.2429   16.3472   10.9940 O   0  0  0  0  0  0  0  0  0  0  0  0
   26.1017   14.8086    8.9891 C   0  0  0  0  0  0  0  0  0  0  0  0
   25.6684   13.7126    8.0246 C   0  0  0  0  0  0  0  0  0  0  0  0
   26.7635   13.4158    7.0004 C   0  0  0  0  0  0  0  0  0  0  0  0
   26.3565   12.3012    6.0432 C   0  0  0  0  0  0  0  0  0  0  0  0
   27.4211   11.9767    5.0489 N   0  0  0  0  0  0  0  0  0  0  0  0
   29.1493   15.7338    9.1933 O   0  0  0  0  0  0  0  0  0  0  0  0
  2  1  1  1  0  0  0
  2  3  1  0  0  0  0
  2  5  1  0  0  0  0
  3  4  1  0  0  0  0
  3 10  1  0  0  0  0
  5  6  1  0  0  0  0
  6  7  1  0  0  0  0
  7  8  1  0  0  0  0
  8  9  1  0  0  0  0
M  END
>  <CHROM.1>
-27.81042875,-96.25288511,-66.01990453,178.89026154,-178.94837537,27.22784617
14.25356588,8.65678405,1.30439151,0.50686133,1.10736406

>  <Name>
ligand

>  <RI>
0

>  <Rbt.Current_Directory>
/home/itssahil/PROJECTS/Mol_Feturizer/New_Systems/rnas/3DJ2

>  <Rbt.Executable>
rbdock ($Id: //depot/dev/client3/rdock/2013.1/src/exe/rbdock.cxx#4 $)

>  <Rbt.Library>
libRbt.so (2013.1, Build901 2013/11/27)

>  <Rbt.Parameter_File>
/export/apps/rDock/src/rDock_2013.1_src/data/scripts/dock_solv.prm

>  <Rbt.Receptor>
prm/blind_docking_40.prm

>  <SCORE>
-5.21995

>  <SCORE.INTER>
-5.41822

>  <SCORE.INTER.CONST>
1

>  <SCORE.INTER.POLAR>
0

>  <SCORE.INTER.ROT>
5

>  <SCORE.INTER.SOLV>
7.03613

>  <SCORE.INTER.VDW>
-12.8909

>  <SCORE.INTER.norm>
-0.541822

>  <SCORE.INTRA>
0.198269

>  <SCORE.INTRA.DIHEDRAL>
1.2736

>  <SCORE.INTRA.DIHEDRAL.0>
4.28128

>  <SCORE.INTRA.POLAR>
0

>  <SCORE.INTRA.POLAR.0>
0

>  <SCORE.INTRA.REPUL>
0

>  <SCORE.INTRA.REPUL.0>
0

>  <SCORE.INTRA.SOLV>
-0.58607

>  <SCORE.INTRA.SOLV.lig_0>
-32.3374

>  <SCORE.INTRA.VDW>
-0.145494

>  <SCORE.INTRA.VDW.0>
-0.659551

>  <SCORE.INTRA.norm>
0.0198269

>  <SCORE.RESTR>
0

>  <SCORE.RESTR.CAVITY>
0

>  <SCORE.RESTR.norm>
0

>  <SCORE.SYSTEM>
0

>  <SCORE.SYSTEM.CONST>
0

>  <SCORE.SYSTEM.DIHEDRAL>
0

>  <SCORE.SYSTEM.SOLV>
0

>  <SCORE.SYSTEM.norm>
0

>  <SCORE.heavy>
10

>  <SCORE.norm>
-0.521995

>  <RMSD>
13.210

$$$$
ligand
 OpenBabel11021811473D
libRbt.so/2013.1/901 2013/11/27
 10  9  0  0  0  0  0  0  0  0999 V2000
   24.6517   13.6391    7.5945 N   0  0  0  0  0  0  0  0  0  0  0  0
   25.0652   13.3089    8.9871 C   0  0  2  0  0  0  0  0  0  0  0  0
   23.8668   13.1637    9.9252 C   0  0  0  0  0  0  0  0  0  0  0  0
   23.0780   14.0927   10.1262 O   0  0  0  0  0  0  0  0  0  0  0  0
   26.0605   14.3434    9.5191 C   0  0  0  0  0  0  0  0  0  0  0  0
   26.5470   14.0721   10.9365 C   0  0  0  0  0  0  0  0  0  0  0  0
   27.6093   15.0871   11.3578 C   0  0  0  0  0  0  0  0  0  0  0  0
   28.9379   14.8424   10.6512 C   0  0  0  0  0  0  0  0  0  0  0  0
   28.8612   15.0789    9.1796 N   0  0  0  0  0  0  0  0  0  0  0  0
   23.6432   12.0959   10.4915 O   0  0  0  0  0  0  0  0  0  0  0  0
  2  1  1  6  0  0  0
  2  3  1  0  0  0  0
  2  5  1  0  0  0  0
  3  4  1  0  0  0  0
  3 10  1  0  0  0  0
  5  6  1  0  0  0  0
  6  7  1  0  0  0  0
  7  8  1  0  0  0  0
  8  9  1  0  0  0  0
M  END
>  <CHROM.1>
-60.14398191,-179.40737626,175.91100459,-72.65566043,66.16876803,25.79627544
13.96405086,9.89504090,-3.02246315,0.36363779,1.59626648

>  <Name>
ligand

>  <RI>
0

>  <Rbt.Current_Directory>
/home/itssahil/PROJECTS/Mol_Feturizer/New_Systems/rnas/3DJ2

>  <Rbt.Executable>
rbdock ($Id: //depot/dev/client3/rdock/2013.1/src/exe/rbdock.cxx#4 $)

>  <Rbt.Library>
libRbt.so (2013.1, Build901 2013/11/27)

>  <Rbt.Parameter_File>
/export/apps/rDock/src/rDock_2013.1_src/data/scripts/dock_solv.prm

>  <Rbt.Receptor>
prm/blind_docking_100.prm

>  <SCORE>
-4.28195

>  <SCORE.INTER>
-4.48944

>  <SCORE.INTER.CONST>
1

>  <SCORE.INTER.POLAR>
0

>  <SCORE.INTER.ROT>
5

>  <SCORE.INTER.SOLV>
11.6554

>  <SCORE.INTER.VDW>
-13.8114

>  <SCORE.INTER.norm>
-0.448944

>  <SCORE.INTRA>
0.20749

>  <SCORE.INTRA.DIHEDRAL>
-1.90131

>  <SCORE.INTRA.DIHEDRAL.0>
4.28128

>  <SCORE.INTRA.POLAR>
0

>  <SCORE.INTRA.POLAR.0>
0

>  <SCORE.INTRA.REPUL>
0

>  <SCORE.INTRA.REPUL.0>
0

>  <SCORE.INTRA.SOLV>
1.03148

>  <SCORE.INTRA.SOLV.lig_0>
-32.3374

>  <SCORE.INTRA.VDW>
0.642406

>  <SCORE.INTRA.VDW.0>
-0.659551

>  <SCORE.INTRA.norm>
0.020749

>  <SCORE.RESTR>
0

>  <SCORE.RESTR.CAVITY>
0

>  <SCORE.RESTR.norm>
0

>  <SCORE.SYSTEM>
0

>  <SCORE.SYSTEM.CONST>
0

>  <SCORE.SYSTEM.DIHEDRAL>
0

>  <SCORE.SYSTEM.SOLV>
0

>  <SCORE.SYSTEM.norm>
0

>  <SCORE.heavy>
10

>  <SCORE.norm>
-0.428195

>  <RMSD>
13.212

$$$$
ligand
 OpenBabel11021811473D
libRbt.so/2013.1/901 2013/11/27
 10  9  0  0  0  0  0  0  0  0999 V2000
   26.0836   14.0352   10.2135 N   0  0  0  0  0  0  0  0  0  0  0  0
   24.8842   13.9771    9.3318 C   0  0  2  0  0  0  0  0  0  0  0  0
   25.0279   14.8755    8.1032 C   0  0  0  0  0  0  0  0  0  0  0  0
   25.3611   14.4273    7.0014 O   0  0  0  0  0  0  0  0  0  0  0  0
   23.6143   14.3150   10.1174 C   0  0  0  0  0  0  0  0  0  0  0  0
   23.3422   13.3884   11.2950 C   0  0  0  0  0  0  0  0  0  0  0  0
   22.0917   13.8222   12.0594 C   0  0  0  0  0  0  0  0  0  0  0  0
   21.8445   12.9477   13.2835 C   0  0  0  0  0  0  0  0  0  0  0  0
   21.5565   11.5268   12.9291 N   0  0  0  0  0  0  0  0  0  0  0  0
   24.7886   16.0788    8.1784 O   0  0  0  0  0  0  0  0  0  0  0  0
  2  1  1  1  0  0  0
  2  3  1  0  0  0  0
  2  5  1  0  0  0  0
  3  4  1  0  0  0  0
  3 10  1  0  0  0  0
  5  6  1  0  0  0  0
  6  7  1  0  0  0  0
  7  8  1  0  0  0  0
  8  9  1  0  0  0  0
M  END
>  <CHROM.1>
99.18072388,-59.22538850,177.76959653,-177.09918569,-64.04815873,23.86943712
13.96281834,10.21373572,-0.92972403,-0.47219799,2.34833109

>  <Name>
ligand

>  <RI>
0

>  <Rbt.Current_Directory>
/home/itssahil/PROJECTS/Mol_Feturizer/New_Systems/rnas/3DJ2

>  <Rbt.Executable>
rbdock ($Id: //depot/dev/client3/rdock/2013.1/src/exe/rbdock.cxx#4 $)

>  <Rbt.Library>
libRbt.so (2013.1, Build901 2013/11/27)

>  <Rbt.Parameter_File>
/export/apps/rDock/src/rDock_2013.1_src/data/scripts/dock_solv.prm

>  <Rbt.Receptor>
prm/blind_docking_100.prm

>  <SCORE>
-4.78835

>  <SCORE.INTER>
-3.90382

>  <SCORE.INTER.CONST>
1

>  <SCORE.INTER.POLAR>
0

>  <SCORE.INTER.ROT>
5

>  <SCORE.INTER.SOLV>
5.75449

>  <SCORE.INTER.VDW>
-11.454

>  <SCORE.INTER.norm>
-0.390382

>  <SCORE.INTRA>
-0.884531

>  <SCORE.INTRA.DIHEDRAL>
-2.5944

>  <SCORE.INTRA.DIHEDRAL.0>
4.28128

>  <SCORE.INTRA.POLAR>
0

>  <SCORE.INTRA.POLAR.0>
0

>  <SCORE.INTRA.REPUL>
0

>  <SCORE.INTRA.REPUL.0>
0

>  <SCORE.INTRA.SOLV>
0.42779

>  <SCORE.INTRA.SOLV.lig_0>
-32.3374

>  <SCORE.INTRA.VDW>
0.198774

>  <SCORE.INTRA.VDW.0>
-0.659551

>  <SCORE.INTRA.norm>
-0.0884531

>  <SCORE.RESTR>
0

>  <SCORE.RESTR.CAVITY>
0

>  <SCORE.RESTR.norm>
0

>  <SCORE.SYSTEM>
0

>  <SCORE.SYSTEM.CONST>
0

>  <SCORE.SYSTEM.DIHEDRAL>
0

>  <SCORE.SYSTEM.SOLV>
0

>  <SCORE.SYSTEM.norm>
0

>  <SCORE.heavy>
10

>  <SCORE.norm>
-0.478835

>  <RMSD>
13.236

$$$$
ligand
 OpenBabel11021811473D
libRbt.so/2013.1/901 2013/11/27
 10  9  0  0  0  0  0  0  0  0999 V2000
   26.2358   13.0177    7.6190 N   0  0  0  0  0  0  0  0  0  0  0  0
   25.1151   13.7410    8.2825 C   0  0  2  0  0  0  0  0  0  0  0  0
   25.4459   15.2127    8.5310 C   0  0  0  0  0  0  0  0  0  0  0  0
   26.3896   15.5582    9.2493 O   0  0  0  0  0  0  0  0  0  0  0  0
   24.7079   13.0398    9.5811 C   0  0  0  0  0  0  0  0  0  0  0  0
   23.5172   13.6741   10.2876 C   0  0  0  0  0  0  0  0  0  0  0  0
   23.1122   12.8643   11.5190 C   0  0  0  0  0  0  0  0  0  0  0  0
   21.9257   13.4904   12.2433 C   0  0  0  0  0  0  0  0  0  0  0  0
   21.4919   12.6989   13.4319 N   0  0  0  0  0  0  0  0  0  0  0  0
   24.7854   16.1001    7.9950 O   0  0  0  0  0  0  0  0  0  0  0  0
  2  1  1  1  0  0  0
  2  3  1  0  0  0  0
  2  5  1  0  0  0  0
  3  4  1  0  0  0  0
  3 10  1  0  0  0  0
  5  6  1  0  0  0  0
  6  7  1  0  0  0  0
  7  8  1  0  0  0  0
  8  9  1  0  0  0  0
M  END
>  <CHROM.1>
-61.13571774,-176.94892256,176.08522478,179.66947276,178.65386274,24.28675981
13.97608170,9.86933715,-0.34116401,-0.85157898,3.09915507

>  <Name>
ligand

>  <RI>
0

>  <Rbt.Current_Directory>
/home/itssahil/PROJECTS/Mol_Feturizer/New_Systems/rnas/3DJ2

>  <Rbt.Executable>
rbdock ($Id: //depot/dev/client3/rdock/2013.1/src/exe/rbdock.cxx#4 $)

>  <Rbt.Library>
libRbt.so (2013.1, Build901 2013/11/27)

>  <Rbt.Parameter_File>
/export/apps/rDock/src/rDock_2013.1_src/data/scripts/dock_solv.prm

>  <Rbt.Receptor>
prm/blind_docking_80.prm

>  <SCORE>
-5.61172

>  <SCORE.INTER>
-3.46665

>  <SCORE.INTER.CONST>
1

>  <SCORE.INTER.POLAR>
0

>  <SCORE.INTER.ROT>
5

>  <SCORE.INTER.SOLV>
7.14162

>  <SCORE.INTER.VDW>
-11.625

>  <SCORE.INTER.norm>
-0.346665

>  <SCORE.INTRA>
-2.14516

>  <SCORE.INTRA.DIHEDRAL>
-2.6641

>  <SCORE.INTRA.DIHEDRAL.0>
4.28128

>  <SCORE.INTRA.POLAR>
0

>  <SCORE.INTRA.POLAR.0>
0

>  <SCORE.INTRA.REPUL>
0

>  <SCORE.INTRA.REPUL.0>
0

>  <SCORE.INTRA.SOLV>
-1.34544

>  <SCORE.INTRA.SOLV.lig_0>
-32.3374

>  <SCORE.INTRA.VDW>
-0.140391

>  <SCORE.INTRA.VDW.0>
-0.659551

>  <SCORE.INTRA.norm>
-0.214516

>  <SCORE.RESTR>
9.46613e-05

>  <SCORE.RESTR.CAVITY>
9.46613e-05

>  <SCORE.RESTR.norm>
9.46613e-06

>  <SCORE.SYSTEM>
0

>  <SCORE.SYSTEM.CONST>
0

>  <SCORE.SYSTEM.DIHEDRAL>
0

>  <SCORE.SYSTEM.SOLV>
0

>  <SCORE.SYSTEM.norm>
0

>  <SCORE.heavy>
10

>  <SCORE.norm>
-0.561172

>  <RMSD>
13.267

$$$$
ligand
 OpenBabel11021811473D
libRbt.so/2013.1/901 2013/11/27
 10  9  0  0  0  0  0  0  0  0999 V2000
   24.6439   13.4741   10.6523 N   0  0  0  0  0  0  0  0  0  0  0  0
   25.9941   13.6598   10.0509 C   0  0  2  0  0  0  0  0  0  0  0  0
   27.0509   14.0018   11.1014 C   0  0  0  0  0  0  0  0  0  0  0  0
   28.2367   13.6847   10.9627 O   0  0  0  0  0  0  0  0  0  0  0  0
   25.9558   14.7151    8.9425 C   0  0  0  0  0  0  0  0  0  0  0  0
   25.0670   14.3494    7.7611 C   0  0  0  0  0  0  0  0  0  0  0  0
   25.6301   13.1503    6.9988 C   0  0  0  0  0  0  0  0  0  0  0  0
   26.9077   13.5066    6.2470 C   0  0  0  0  0  0  0  0  0  0  0  0
   27.4734   12.3514    5.4901 N   0  0  0  0  0  0  0  0  0  0  0  0
   26.7455   14.6304   12.1125 O   0  0  0  0  0  0  0  0  0  0  0  0
  2  1  1  1  0  0  0
  2  3  1  0  0  0  0
  2  5  1  0  0  0  0
  3  4  1  0  0  0  0
  3 10  1  0  0  0  0
  5  6  1  0  0  0  0
  6  7  1  0  0  0  0
  7  8  1  0  0  0  0
  8  9  1  0  0  0  0
M  END
>  <CHROM.1>
150.47438349,-62.62736324,-66.67044241,-69.98435458,-179.77249517,26.39490434
13.76101104,9.06541083,1.54531347,-0.19240658,1.37416905

>  <Name>
ligand

>  <RI>
0

>  <Rbt.Current_Directory>
/home/itssahil/PROJECTS/Mol_Feturizer/New_Systems/rnas/3DJ2

>  <Rbt.Executable>
rbdock ($Id: //depot/dev/client3/rdock/2013.1/src/exe/rbdock.cxx#4 $)

>  <Rbt.Library>
libRbt.so (2013.1, Build901 2013/11/27)

>  <Rbt.Parameter_File>
/export/apps/rDock/src/rDock_2013.1_src/data/scripts/dock_solv.prm

>  <Rbt.Receptor>
prm/blind_docking_40.prm

>  <SCORE>
-5.16083

>  <SCORE.INTER>
-4.67189

>  <SCORE.INTER.CONST>
1

>  <SCORE.INTER.POLAR>
0

>  <SCORE.INTER.ROT>
5

>  <SCORE.INTER.SOLV>
6.25414

>  <SCORE.INTER.VDW>
-12.1326

>  <SCORE.INTER.norm>
-0.467189

>  <SCORE.INTRA>
-0.488944

>  <SCORE.INTRA.DIHEDRAL>
-2.1783

>  <SCORE.INTRA.DIHEDRAL.0>
4.28128

>  <SCORE.INTRA.POLAR>
0

>  <SCORE.INTRA.POLAR.0>
0

>  <SCORE.INTRA.REPUL>
0

>  <SCORE.INTRA.REPUL.0>
0

>  <SCORE.INTRA.SOLV>
0.246547

>  <SCORE.INTRA.SOLV.lig_0>
-32.3374

>  <SCORE.INTRA.VDW>
0.476934

>  <SCORE.INTRA.VDW.0>
-0.659551

>  <SCORE.INTRA.norm>
-0.0488944

>  <SCORE.RESTR>
0

>  <SCORE.RESTR.CAVITY>
0

>  <SCORE.RESTR.norm>
0

>  <SCORE.SYSTEM>
0

>  <SCORE.SYSTEM.CONST>
0

>  <SCORE.SYSTEM.DIHEDRAL>
0

>  <SCORE.SYSTEM.SOLV>
0

>  <SCORE.SYSTEM.norm>
0

>  <SCORE.heavy>
10

>  <SCORE.norm>
-0.516083

>  <RMSD>
13.289

$$$$
ligand
 OpenBabel11021811473D
libRbt.so/2013.1/901 2013/11/27
 10  9  0  0  0  0  0  0  0  0999 V2000
   26.2210   12.9650    7.5554 N   0  0  0  0  0  0  0  0  0  0  0  0
   25.0819   13.6774    8.1990 C   0  0  2  0  0  0  0  0  0  0  0  0
   25.3762   15.1627    8.4101 C   0  0  0  0  0  0  0  0  0  0  0  0
   26.2890   15.5497    9.1468 O   0  0  0  0  0  0  0  0  0  0  0  0
   24.6897   12.9999    9.5146 C   0  0  0  0  0  0  0  0  0  0  0  0
   23.4812   13.6215   10.2022 C   0  0  0  0  0  0  0  0  0  0  0  0
   23.1026   12.8418   11.4611 C   0  0  0  0  0  0  0  0  0  0  0  0
   21.8892   13.4467   12.1583 C   0  0  0  0  0  0  0  0  0  0  0  0
   21.4950   12.6958   13.3863 N   0  0  0  0  0  0  0  0  0  0  0  0
   24.7169   16.0191    7.8245 O   0  0  0  0  0  0  0  0  0  0  0  0
  2  1  1  1  0  0  0
  2  3  1  0  0  0  0
  2  5  1  0  0  0  0
  3  4  1  0  0  0  0
  3 10  1  0  0  0  0
  5  6  1  0  0  0  0
  6  7  1  0  0  0  0
  7  8  1  0  0  0  0
  8  9  1  0  0  0  0
M  END
>  <CHROM.1>
-62.98225169,-176.85763862,176.63942087,-179.69484526,179.60993493,24.24748440
13.93451172,9.78026698,-0.37408343,-0.85304611,3.04982024

>  <Name>
ligand

>  <RI>
0

>  <Rbt.Current_Directory>
/home/itssahil/PROJECTS/Mol_Feturizer/New_Systems/rnas/3DJ2

>  <Rbt.Executable>
rbdock ($Id: //depot/dev/client3/rdock/2013.1/src/exe/rbdock.cxx#4 $)

>  <Rbt.Library>
libRbt.so (2013.1, Build901 2013/11/27)

>  <Rbt.Parameter_File>
/export/apps/rDock/src/rDock_2013.1_src/data/scripts/dock_solv.prm

>  <Rbt.Receptor>
prm/blind_docking_40.prm

>  <SCORE>
-5.55681

>  <SCORE.INTER>
-3.40808

>  <SCORE.INTER.CONST>
1

>  <SCORE.INTER.POLAR>
0

>  <SCORE.INTER.ROT>
5

>  <SCORE.INTER.SOLV>
7.28322

>  <SCORE.INTER.VDW>
-11.6331

>  <SCORE.INTER.norm>
-0.340808

>  <SCORE.INTRA>
-2.14911

>  <SCORE.INTRA.DIHEDRAL>
-2.68991

>  <SCORE.INTRA.DIHEDRAL.0>
4.28128

>  <SCORE.INTRA.POLAR>
0

>  <SCORE.INTRA.POLAR.0>
0

>  <SCORE.INTRA.REPUL>
0

>  <SCORE.INTRA.REPUL.0>
0

>  <SCORE.INTRA.SOLV>
-1.34607

>  <SCORE.INTRA.SOLV.lig_0>
-32.3374

>  <SCORE.INTRA.VDW>
-0.131123

>  <SCORE.INTRA.VDW.0>
-0.659551

>  <SCORE.INTRA.norm>
-0.214911

>  <SCORE.RESTR>
0.000381742

>  <SCORE.RESTR.CAVITY>
0.000381742

>  <SCORE.RESTR.norm>
3.81742e-05

>  <SCORE.SYSTEM>
0

>  <SCORE.SYSTEM.CONST>
0

>  <SCORE.SYSTEM.DIHEDRAL>
0

>  <SCORE.SYSTEM.SOLV>
0

>  <SCORE.SYSTEM.norm>
0

>  <SCORE.heavy>
10

>  <SCORE.norm>
-0.555681

>  <RMSD>
13.373

$$$$
ligand
 OpenBabel11021811473D
libRbt.so/2013.1/901 2013/11/27
 10  9  0  0  0  0  0  0  0  0999 V2000
   27.2331   14.4460    9.2350 N   0  0  0  0  0  0  0  0  0  0  0  0
   25.9273   13.7351    9.1410 C   0  0  2  0  0  0  0  0  0  0  0  0
   25.1755   14.0782    7.8549 C   0  0  0  0  0  0  0  0  0  0  0  0
   24.7605   13.2037    7.0875 O   0  0  0  0  0  0  0  0  0  0  0  0
   25.0657   14.0140   10.3753 C   0  0  0  0  0  0  0  0  0  0  0  0
   23.7694   13.2163   10.4264 C   0  0  0  0  0  0  0  0  0  0  0  0
   22.9780   13.5323   11.6952 C   0  0  0  0  0  0  0  0  0  0  0  0
   21.6859   12.7268   11.7720 C   0  0  0  0  0  0  0  0  0  0  0  0
   20.8818   13.0400   12.9897 N   0  0  0  0  0  0  0  0  0  0  0  0
   24.9419   15.2488    7.5616 O   0  0  0  0  0  0  0  0  0  0  0  0
  2  1  1  1  0  0  0
  2  3  1  0  0  0  0
  2  5  1  0  0  0  0
  3  4  1  0  0  0  0
  3 10  1  0  0  0  0
  5  6  1  0  0  0  0
  6  7  1  0  0  0  0
  7  8  1  0  0  0  0
  8  9  1  0  0  0  0
M  END
>  <CHROM.1>
126.91185349,-174.24564422,179.07959470,-179.18789842,-178.80095672,24.23361938
13.73302333,9.77669756,-0.79917291,0.25238654,1.61035890

>  <Name>
ligand

>  <RI>
0

>  <Rbt.Current_Directory>
/home/itssahil/PROJECTS/Mol_Feturizer/New_Systems/rnas/3DJ2

>  <Rbt.Executable>
rbdock ($Id: //depot/dev/client3/rdock/2013.1/src/exe/rbdock.cxx#4 $)

>  <Rbt.Library>
libRbt.so (2013.1, Build901 2013/11/27)

>  <Rbt.Parameter_File>
/export/apps/rDock/src/rDock_2013.1_src/data/scripts/dock_solv.prm

>  <Rbt.Receptor>
prm/blind_docking_40.prm

>  <SCORE>
-5.15031

>  <SCORE.INTER>
-2.97258

>  <SCORE.INTER.CONST>
1

>  <SCORE.INTER.POLAR>
0

>  <SCORE.INTER.ROT>
5

>  <SCORE.INTER.SOLV>
5.63239

>  <SCORE.INTER.VDW>
-10.7925

>  <SCORE.INTER.norm>
-0.297258

>  <SCORE.INTRA>
-2.17773

>  <SCORE.INTRA.DIHEDRAL>
-2.64554

>  <SCORE.INTRA.DIHEDRAL.0>
4.28128

>  <SCORE.INTRA.POLAR>
0

>  <SCORE.INTRA.POLAR.0>
0

>  <SCORE.INTRA.REPUL>
0

>  <SCORE.INTRA.REPUL.0>
0

>  <SCORE.INTRA.SOLV>
-1.34658

>  <SCORE.INTRA.SOLV.lig_0>
-32.3374

>  <SCORE.INTRA.VDW>
-0.181674

>  <SCORE.INTRA.VDW.0>
-0.659551

>  <SCORE.INTRA.norm>
-0.217773

>  <SCORE.RESTR>
0

>  <SCORE.RESTR.CAVITY>
0

>  <SCORE.RESTR.norm>
0

>  <SCORE.SYSTEM>
0

>  <SCORE.SYSTEM.CONST>
0

>  <SCORE.SYSTEM.DIHEDRAL>
0

>  <SCORE.SYSTEM.SOLV>
0

>  <SCORE.SYSTEM.norm>
0

>  <SCORE.heavy>
10

>  <SCORE.norm>
-0.515031

>  <RMSD>
13.442

$$$$
ligand
 OpenBabel11021811473D
libRbt.so/2013.1/901 2013/11/27
 10  9  0  0  0  0  0  0  0  0999 V2000
   24.3287   14.0281   10.8449 N   0  0  0  0  0  0  0  0  0  0  0  0
   25.4866   13.4975   10.0722 C   0  0  2  0  0  0  0  0  0  0  0  0
   26.8247   13.9648   10.6452 C   0  0  0  0  0  0  0  0  0  0  0  0
   27.7084   13.1673   10.9752 O   0  0  0  0  0  0  0  0  0  0  0  0
   25.3639   13.8601    8.5900 C   0  0  0  0  0  0  0  0  0  0  0  0
   26.4409   13.2468    7.7048 C   0  0  0  0  0  0  0  0  0  0  0  0
   26.2887   13.7051    6.2547 C   0  0  0  0  0  0  0  0  0  0  0  0
   27.3313   13.0638    5.3458 C   0  0  0  0  0  0  0  0  0  0  0  0
   28.7266   13.4568    5.7008 N   0  0  0  0  0  0  0  0  0  0  0  0
   27.0654   15.1636   10.7708 O   0  0  0  0  0  0  0  0  0  0  0  0
  2  1  1  1  0  0  0
  2  3  1  0  0  0  0
  2  5  1  0  0  0  0
  3  4  1  0  0  0  0
  3 10  1  0  0  0  0
  5  6  1  0  0  0  0
  6  7  1  0  0  0  0
  7  8  1  0  0  0  0
  8  9  1  0  0  0  0
M  END
>  <CHROM.1>
124.75126869,-174.64790871,-177.41375734,-178.10904977,-63.38960320,26.58354968
13.72595694,8.71379027,1.83396585,-0.01359760,1.43531466

>  <Name>
ligand

>  <RI>
0

>  <Rbt.Current_Directory>
/home/itssahil/PROJECTS/Mol_Feturizer/New_Systems/rnas/3DJ2

>  <Rbt.Executable>
rbdock ($Id: //depot/dev/client3/rdock/2013.1/src/exe/rbdock.cxx#4 $)

>  <Rbt.Library>
libRbt.so (2013.1, Build901 2013/11/27)

>  <Rbt.Parameter_File>
/export/apps/rDock/src/rDock_2013.1_src/data/scripts/dock_solv.prm

>  <Rbt.Receptor>
prm/blind_docking_40.prm

>  <SCORE>
-4.30021

>  <SCORE.INTER>
-2.67249

>  <SCORE.INTER.CONST>
1

>  <SCORE.INTER.POLAR>
0

>  <SCORE.INTER.ROT>
5

>  <SCORE.INTER.SOLV>
7.19014

>  <SCORE.INTER.VDW>
-11.1117

>  <SCORE.INTER.norm>
-0.267249

>  <SCORE.INTRA>
-1.62772

>  <SCORE.INTRA.DIHEDRAL>
-2.58181

>  <SCORE.INTRA.DIHEDRAL.0>
4.28128

>  <SCORE.INTRA.POLAR>
0

>  <SCORE.INTRA.POLAR.0>
0

>  <SCORE.INTRA.REPUL>
0

>  <SCORE.INTRA.REPUL.0>
0

>  <SCORE.INTRA.SOLV>
-0.458327

>  <SCORE.INTRA.SOLV.lig_0>
-32.3374

>  <SCORE.INTRA.VDW>
-0.107645

>  <SCORE.INTRA.VDW.0>
-0.659551

>  <SCORE.INTRA.norm>
-0.162772

>  <SCORE.RESTR>
0

>  <SCORE.RESTR.CAVITY>
0

>  <SCORE.RESTR.norm>
0

>  <SCORE.SYSTEM>
0

>  <SCORE.SYSTEM.CONST>
0

>  <SCORE.SYSTEM.DIHEDRAL>
0

>  <SCORE.SYSTEM.SOLV>
0

>  <SCORE.SYSTEM.norm>
0

>  <SCORE.heavy>
10

>  <SCORE.norm>
-0.430021

>  <RMSD>
13.676

$$$$
ligand
 OpenBabel11021811473D
libRbt.so/2013.1/901 2013/11/27
 10  9  0  0  0  0  0  0  0  0999 V2000
   26.1420   13.4742    7.1749 N   0  0  0  0  0  0  0  0  0  0  0  0
   25.0714   13.7413    8.1757 C   0  0  2  0  0  0  0  0  0  0  0  0
   24.4197   15.1091    7.9714 C   0  0  0  0  0  0  0  0  0  0  0  0
   25.0015   16.1598    8.2600 O   0  0  0  0  0  0  0  0  0  0  0  0
   25.6097   13.5937    9.6012 C   0  0  0  0  0  0  0  0  0  0  0  0
   24.5658   13.8073   10.6893 C   0  0  0  0  0  0  0  0  0  0  0  0
   23.5324   12.6812   10.6895 C   0  0  0  0  0  0  0  0  0  0  0  0
   22.5758   12.7907   11.8716 C   0  0  0  0  0  0  0  0  0  0  0  0
   21.7002   13.9968   11.7958 N   0  0  0  0  0  0  0  0  0  0  0  0
   23.2939   15.1979    7.4858 O   0  0  0  0  0  0  0  0  0  0  0  0
  2  1  1  6  0  0  0
  2  3  1  0  0  0  0
  2  5  1  0  0  0  0
  3  4  1  0  0  0  0
  3 10  1  0  0  0  0
  5  6  1  0  0  0  0
  6  7  1  0  0  0  0
  7  8  1  0  0  0  0
  8  9  1  0  0  0  0
M  END
>  <CHROM.1>
-73.10406026,-178.15455581,68.29919240,173.36029043,66.42596372,24.18054136
14.08787976,9.35812497,-0.92976244,-0.55449349,2.30703462

>  <Name>
ligand

>  <RI>
0

>  <Rbt.Current_Directory>
/home/itssahil/PROJECTS/Mol_Feturizer/New_Systems/rnas/3DJ2

>  <Rbt.Executable>
rbdock ($Id: //depot/dev/client3/rdock/2013.1/src/exe/rbdock.cxx#4 $)

>  <Rbt.Library>
libRbt.so (2013.1, Build901 2013/11/27)

>  <Rbt.Parameter_File>
/export/apps/rDock/src/rDock_2013.1_src/data/scripts/dock_solv.prm

>  <Rbt.Receptor>
prm/blind_docking_80.prm

>  <SCORE>
-4.92898

>  <SCORE.INTER>
-3.88842

>  <SCORE.INTER.CONST>
1

>  <SCORE.INTER.POLAR>
0

>  <SCORE.INTER.ROT>
5

>  <SCORE.INTER.SOLV>
7.45634

>  <SCORE.INTER.VDW>
-12.0111

>  <SCORE.INTER.norm>
-0.388842

>  <SCORE.INTRA>
-1.1016

>  <SCORE.INTRA.DIHEDRAL>
-2.16017

>  <SCORE.INTRA.DIHEDRAL.0>
4.28128

>  <SCORE.INTRA.POLAR>
0

>  <SCORE.INTRA.POLAR.0>
0

>  <SCORE.INTRA.REPUL>
0

>  <SCORE.INTRA.REPUL.0>
0

>  <SCORE.INTRA.SOLV>
-0.305747

>  <SCORE.INTRA.SOLV.lig_0>
-32.3374

>  <SCORE.INTRA.VDW>
0.131362

>  <SCORE.INTRA.VDW.0>
-0.659551

>  <SCORE.INTRA.norm>
-0.11016

>  <SCORE.RESTR>
0.0610342

>  <SCORE.RESTR.CAVITY>
0.0610342

>  <SCORE.RESTR.norm>
0.00610342

>  <SCORE.SYSTEM>
0

>  <SCORE.SYSTEM.CONST>
0

>  <SCORE.SYSTEM.DIHEDRAL>
0

>  <SCORE.SYSTEM.SOLV>
0

>  <SCORE.SYSTEM.norm>
0

>  <SCORE.heavy>
10

>  <SCORE.norm>
-0.492898

>  <RMSD>
13.772

$$$$
ligand
 OpenBabel11021811473D
libRbt.so/2013.1/901 2013/11/27
 10  9  0  0  0  0  0  0  0  0999 V2000
   24.0854   15.4534    8.2196 N   0  0  0  0  0  0  0  0  0  0  0  0
   25.4467   14.8658    8.0756 C   0  0  2  0  0  0  0  0  0  0  0  0
   25.4985   13.7903    6.9902 C   0  0  0  0  0  0  0  0  0  0  0  0
   24.7207   12.8307    6.9836 O   0  0  0  0  0  0  0  0  0  0  0  0
   25.9494   14.3223    9.4156 C   0  0  0  0  0  0  0  0  0  0  0  0
   25.0623   13.2455   10.0263 C   0  0  0  0  0  0  0  0  0  0  0  0
   23.7994   13.8530   10.6361 C   0  0  0  0  0  0  0  0  0  0  0  0
   22.9431   12.8001   11.3308 C   0  0  0  0  0  0  0  0  0  0  0  0
   21.7318   13.3793   11.9825 N   0  0  0  0  0  0  0  0  0  0  0  0
   26.3116   13.8690    6.0718 O   0  0  0  0  0  0  0  0  0  0  0  0
  2  1  1  1  0  0  0
  2  3  1  0  0  0  0
  2  5  1  0  0  0  0
  3  4  1  0  0  0  0
  3 10  1  0  0  0  0
  5  6  1  0  0  0  0
  6  7  1  0  0  0  0
  7  8  1  0  0  0  0
  8  9  1  0  0  0  0
M  END
>  <CHROM.1>
-53.47595082,59.06429860,-75.62369350,-176.33091834,177.63935620,24.56238187
13.82046916,8.93923932,-0.60906299,0.85588853,0.88200862

>  <Name>
ligand

>  <RI>
0

>  <Rbt.Current_Directory>
/home/itssahil/PROJECTS/Mol_Feturizer/New_Systems/rnas/3DJ2

>  <Rbt.Executable>
rbdock ($Id: //depot/dev/client3/rdock/2013.1/src/exe/rbdock.cxx#4 $)

>  <Rbt.Library>
libRbt.so (2013.1, Build901 2013/11/27)

>  <Rbt.Parameter_File>
/export/apps/rDock/src/rDock_2013.1_src/data/scripts/dock_solv.prm

>  <Rbt.Receptor>
prm/blind_docking_40.prm

>  <SCORE>
-3.03793

>  <SCORE.INTER>
-2.86846

>  <SCORE.INTER.CONST>
1

>  <SCORE.INTER.POLAR>
0

>  <SCORE.INTER.ROT>
5

>  <SCORE.INTER.SOLV>
9.42817

>  <SCORE.INTER.VDW>
-11.9884

>  <SCORE.INTER.norm>
-0.286846

>  <SCORE.INTRA>
-0.169474

>  <SCORE.INTRA.DIHEDRAL>
-1.69318

>  <SCORE.INTRA.DIHEDRAL.0>
4.28128

>  <SCORE.INTRA.POLAR>
0

>  <SCORE.INTRA.POLAR.0>
0

>  <SCORE.INTRA.REPUL>
0

>  <SCORE.INTRA.REPUL.0>
0

>  <SCORE.INTRA.SOLV>
1.00044

>  <SCORE.INTRA.SOLV.lig_0>
-32.3374

>  <SCORE.INTRA.VDW>
0.176896

>  <SCORE.INTRA.VDW.0>
-0.659551

>  <SCORE.INTRA.norm>
-0.0169474

>  <SCORE.RESTR>
0

>  <SCORE.RESTR.CAVITY>
0

>  <SCORE.RESTR.norm>
0

>  <SCORE.SYSTEM>
0

>  <SCORE.SYSTEM.CONST>
0

>  <SCORE.SYSTEM.DIHEDRAL>
0

>  <SCORE.SYSTEM.SOLV>
0

>  <SCORE.SYSTEM.norm>
0

>  <SCORE.heavy>
10

>  <SCORE.norm>
-0.303793

>  <RMSD>
14.055

$$$$
ligand
 OpenBabel11021811473D
libRbt.so/2013.1/901 2013/11/27
 10  9  0  0  0  0  0  0  0  0999 V2000
   20.4959   14.7192   13.0991 N   0  0  0  0  0  0  0  0  0  0  0  0
   21.2165   14.3478   11.8492 C   0  0  2  0  0  0  0  0  0  0  0  0
   20.2570   13.9552   10.7256 C   0  0  0  0  0  0  0  0  0  0  0  0
   19.3149   13.1783   10.9125 O   0  0  0  0  0  0  0  0  0  0  0  0
   22.2357   13.2375   12.1180 C   0  0  0  0  0  0  0  0  0  0  0  0
   23.0561   12.8335   10.9002 C   0  0  0  0  0  0  0  0  0  0  0  0
   23.9357   13.9880   10.4211 C   0  0  0  0  0  0  0  0  0  0  0  0
   24.7193   13.6199    9.1662 C   0  0  0  0  0  0  0  0  0  0  0  0
   25.6069   14.7235    8.6954 N   0  0  0  0  0  0  0  0  0  0  0  0
   20.3880   14.4287    9.5989 O   0  0  0  0  0  0  0  0  0  0  0  0
  2  1  1  1  0  0  0
  2  3  1  0  0  0  0
  2  5  1  0  0  0  0
  3  4  1  0  0  0  0
  3 10  1  0  0  0  0
  5  6  1  0  0  0  0
  6  7  1  0  0  0  0
  7  8  1  0  0  0  0
  8  9  1  0  0  0  0
M  END
>  <CHROM.1>
-46.75915574,-177.78755168,64.38578187,-177.54640604,-178.83981329,22.09194834
13.89622079,10.72727546,-2.71046664,0.00938241,-1.49850937

>  <Name>
ligand

>  <RI>
0

>  <Rbt.Current_Directory>
/home/itssahil/PROJECTS/Mol_Feturizer/New_Systems/rnas/3DJ2

>  <Rbt.Executable>
rbdock ($Id: //depot/dev/client3/rdock/2013.1/src/exe/rbdock.cxx#4 $)

>  <Rbt.Library>
libRbt.so (2013.1, Build901 2013/11/27)

>  <Rbt.Parameter_File>
/export/apps/rDock/src/rDock_2013.1_src/data/scripts/dock_solv.prm

>  <Rbt.Receptor>
prm/blind_docking_40.prm

>  <SCORE>
-3.5284

>  <SCORE.INTER>
-1.65974

>  <SCORE.INTER.CONST>
1

>  <SCORE.INTER.POLAR>
0

>  <SCORE.INTER.ROT>
5

>  <SCORE.INTER.SOLV>
7.18506

>  <SCORE.INTER.VDW>
-10.4348

>  <SCORE.INTER.norm>
-0.165974

>  <SCORE.INTRA>
-1.86865

>  <SCORE.INTRA.DIHEDRAL>
-2.60514

>  <SCORE.INTRA.DIHEDRAL.0>
4.28128

>  <SCORE.INTRA.POLAR>
0

>  <SCORE.INTRA.POLAR.0>
0

>  <SCORE.INTRA.REPUL>
0

>  <SCORE.INTRA.REPUL.0>
0

>  <SCORE.INTRA.SOLV>
-1.09901

>  <SCORE.INTRA.SOLV.lig_0>
-32.3374

>  <SCORE.INTRA.VDW>
-0.0165784

>  <SCORE.INTRA.VDW.0>
-0.659551

>  <SCORE.INTRA.norm>
-0.186865

>  <SCORE.RESTR>
0

>  <SCORE.RESTR.CAVITY>
0

>  <SCORE.RESTR.norm>
0

>  <SCORE.SYSTEM>
0

>  <SCORE.SYSTEM.CONST>
0

>  <SCORE.SYSTEM.DIHEDRAL>
0

>  <SCORE.SYSTEM.SOLV>
0

>  <SCORE.SYSTEM.norm>
0

>  <SCORE.heavy>
10

>  <SCORE.norm>
-0.35284

>  <RMSD>
14.358

$$$$
ligand
 OpenBabel11021811473D
libRbt.so/2013.1/901 2013/11/27
 10  9  0  0  0  0  0  0  0  0999 V2000
   20.1953   12.1493   11.7853 N   0  0  0  0  0  0  0  0  0  0  0  0
   20.3773   13.6237   11.8961 C   0  0  2  0  0  0  0  0  0  0  0  0
   19.7562   14.3714   10.7161 C   0  0  0  0  0  0  0  0  0  0  0  0
   20.0281   14.0859    9.5454 O   0  0  0  0  0  0  0  0  0  0  0  0
   21.8577   13.9789   12.0572 C   0  0  0  0  0  0  0  0  0  0  0  0
   22.7331   13.5577   10.8844 C   0  0  0  0  0  0  0  0  0  0  0  0
   24.1870   13.9747   11.1049 C   0  0  0  0  0  0  0  0  0  0  0  0
   25.0778   13.5610    9.9388 C   0  0  0  0  0  0  0  0  0  0  0  0
   26.5054   13.9479   10.1374 N   0  0  0  0  0  0  0  0  0  0  0  0
   18.9415   15.2720   10.9067 O   0  0  0  0  0  0  0  0  0  0  0  0
  2  1  1  6  0  0  0
  2  3  1  0  0  0  0
  2  5  1  0  0  0  0
  3  4  1  0  0  0  0
  3 10  1  0  0  0  0
  5  6  1  0  0  0  0
  6  7  1  0  0  0  0
  7  8  1  0  0  0  0
  8  9  1  0  0  0  0
M  END
>  <CHROM.1>
-53.10473641,61.48950373,178.68204876,-179.97086118,-179.51179418,21.93908801
13.86979748,10.87390897,-3.10151667,0.11414916,-0.85193326

>  <Name>
ligand

>  <RI>
0

>  <Rbt.Current_Directory>
/home/itssahil/PROJECTS/Mol_Feturizer/New_Systems/rnas/3DJ2

>  <Rbt.Executable>
rbdock ($Id: //depot/dev/client3/rdock/2013.1/src/exe/rbdock.cxx#4 $)

>  <Rbt.Library>
libRbt.so (2013.1, Build901 2013/11/27)

>  <Rbt.Parameter_File>
/export/apps/rDock/src/rDock_2013.1_src/data/scripts/dock_solv.prm

>  <Rbt.Receptor>
prm/blind_docking_40.prm

>  <SCORE>
-2.23232

>  <SCORE.INTER>
-0.56301

>  <SCORE.INTER.CONST>
1

>  <SCORE.INTER.POLAR>
0

>  <SCORE.INTER.ROT>
5

>  <SCORE.INTER.SOLV>
7.8804

>  <SCORE.INTER.VDW>
-9.93547

>  <SCORE.INTER.norm>
-0.056301

>  <SCORE.INTRA>
-1.66931

>  <SCORE.INTRA.DIHEDRAL>
-2.73063

>  <SCORE.INTRA.DIHEDRAL.0>
4.28128

>  <SCORE.INTRA.POLAR>
0

>  <SCORE.INTRA.POLAR.0>
0

>  <SCORE.INTRA.REPUL>
0

>  <SCORE.INTRA.REPUL.0>
0

>  <SCORE.INTRA.SOLV>
-0.483793

>  <SCORE.INTRA.SOLV.lig_0>
-32.3374

>  <SCORE.INTRA.VDW>
-0.0620954

>  <SCORE.INTRA.VDW.0>
-0.659551

>  <SCORE.INTRA.norm>
-0.166931

>  <SCORE.RESTR>
0

>  <SCORE.RESTR.CAVITY>
0

>  <SCORE.RESTR.norm>
0

>  <SCORE.SYSTEM>
0

>  <SCORE.SYSTEM.CONST>
0

>  <SCORE.SYSTEM.DIHEDRAL>
0

>  <SCORE.SYSTEM.SOLV>
0

>  <SCORE.SYSTEM.norm>
0

>  <SCORE.heavy>
10

>  <SCORE.norm>
-0.223232

>  <RMSD>
14.428

$$$$
ligand
 OpenBabel11021811473D
libRbt.so/2013.1/901 2013/11/27
 10  9  0  0  0  0  0  0  0  0999 V2000
   25.8364   14.0050   10.8033 N   0  0  0  0  0  0  0  0  0  0  0  0
   24.7317   14.2288    9.8292 C   0  0  2  0  0  0  0  0  0  0  0  0
   23.3575   13.9679   10.4461 C   0  0  0  0  0  0  0  0  0  0  0  0
   22.3882   14.6980   10.2152 O   0  0  0  0  0  0  0  0  0  0  0  0
   24.9395   13.3868    8.5677 C   0  0  0  0  0  0  0  0  0  0  0  0
   26.2439   13.6701    7.8344 C   0  0  0  0  0  0  0  0  0  0  0  0
   26.4158   12.7370    6.6362 C   0  0  0  0  0  0  0  0  0  0  0  0
   27.7518   12.9560    5.9350 C   0  0  0  0  0  0  0  0  0  0  0  0
   27.9603   12.0260    4.7866 N   0  0  0  0  0  0  0  0  0  0  0  0
   23.1760   12.9974   11.1784 O   0  0  0  0  0  0  0  0  0  0  0  0
  2  1  1  1  0  0  0
  2  3  1  0  0  0  0
  2  5  1  0  0  0  0
  3  4  1  0  0  0  0
  3 10  1  0  0  0  0
  5  6  1  0  0  0  0
  6  7  1  0  0  0  0
  7  8  1  0  0  0  0
  8  9  1  0  0  0  0
M  END
>  <CHROM.1>
139.02672783,-59.04804477,176.70232876,-176.91487752,178.20991332,25.24119396
13.46546223,8.64677146,-2.25153157,0.05983855,-1.79411587

>  <Name>
ligand

>  <RI>
0

>  <Rbt.Current_Directory>
/home/itssahil/PROJECTS/Mol_Feturizer/New_Systems/rnas/3DJ2

>  <Rbt.Executable>
rbdock ($Id: //depot/dev/client3/rdock/2013.1/src/exe/rbdock.cxx#4 $)

>  <Rbt.Library>
libRbt.so (2013.1, Build901 2013/11/27)

>  <Rbt.Parameter_File>
/export/apps/rDock/src/rDock_2013.1_src/data/scripts/dock_solv.prm

>  <Rbt.Receptor>
prm/blind_docking_40.prm

>  <SCORE>
-4.17509

>  <SCORE.INTER>
-2.44481

>  <SCORE.INTER.CONST>
1

>  <SCORE.INTER.POLAR>
0

>  <SCORE.INTER.ROT>
5

>  <SCORE.INTER.SOLV>
5.03963

>  <SCORE.INTER.VDW>
-10.2431

>  <SCORE.INTER.norm>
-0.244481

>  <SCORE.INTRA>
-1.73028

>  <SCORE.INTRA.DIHEDRAL>
-2.69749

>  <SCORE.INTRA.DIHEDRAL.0>
4.28128

>  <SCORE.INTRA.POLAR>
0

>  <SCORE.INTRA.POLAR.0>
0

>  <SCORE.INTRA.REPUL>
0

>  <SCORE.INTRA.REPUL.0>
0

>  <SCORE.INTRA.SOLV>
-0.42091

>  <SCORE.INTRA.SOLV.lig_0>
-32.3374

>  <SCORE.INTRA.VDW>
-0.171074

>  <SCORE.INTRA.VDW.0>
-0.659551

>  <SCORE.INTRA.norm>
-0.173028

>  <SCORE.RESTR>
0

>  <SCORE.RESTR.CAVITY>
0

>  <SCORE.RESTR.norm>
0

>  <SCORE.SYSTEM>
0

>  <SCORE.SYSTEM.CONST>
0

>  <SCORE.SYSTEM.DIHEDRAL>
0

>  <SCORE.SYSTEM.SOLV>
0

>  <SCORE.SYSTEM.norm>
0

>  <SCORE.heavy>
10

>  <SCORE.norm>
-0.417509

>  <RMSD>
14.455

$$$$
ligand
 OpenBabel11021811473D
libRbt.so/2013.1/901 2013/11/27
 10  9  0  0  0  0  0  0  0  0999 V2000
   25.8231   13.9826   10.7914 N   0  0  0  0  0  0  0  0  0  0  0  0
   24.7180   14.2097    9.8185 C   0  0  2  0  0  0  0  0  0  0  0  0
   23.3442   13.9431   10.4341 C   0  0  0  0  0  0  0  0  0  0  0  0
   23.1344   12.9722   11.1683 O   0  0  0  0  0  0  0  0  0  0  0  0
   24.9271   13.3746    8.5526 C   0  0  0  0  0  0  0  0  0  0  0  0
   26.2351   13.6575    7.8257 C   0  0  0  0  0  0  0  0  0  0  0  0
   26.4081   12.7307    6.6226 C   0  0  0  0  0  0  0  0  0  0  0  0
   27.7504   12.9441    5.9318 C   0  0  0  0  0  0  0  0  0  0  0  0
   27.9621   12.0160    4.7824 N   0  0  0  0  0  0  0  0  0  0  0  0
   22.4082   14.7131   10.2290 O   0  0  0  0  0  0  0  0  0  0  0  0
  2  1  1  1  0  0  0
  2  3  1  0  0  0  0
  2  5  1  0  0  0  0
  3  4  1  0  0  0  0
  3 10  1  0  0  0  0
  5  6  1  0  0  0  0
  6  7  1  0  0  0  0
  7  8  1  0  0  0  0
  8  9  1  0  0  0  0
M  END
>  <CHROM.1>
-42.28350537,-58.66950951,176.68387527,-176.62394476,177.97107604,25.23220247
13.45297214,8.63954431,-2.25247072,0.05568630,-1.79660089

>  <Name>
ligand

>  <RI>
0

>  <Rbt.Current_Directory>
/home/itssahil/PROJECTS/Mol_Feturizer/New_Systems/rnas/3DJ2

>  <Rbt.Executable>
rbdock ($Id: //depot/dev/client3/rdock/2013.1/src/exe/rbdock.cxx#4 $)

>  <Rbt.Library>
libRbt.so (2013.1, Build901 2013/11/27)

>  <Rbt.Parameter_File>
/export/apps/rDock/src/rDock_2013.1_src/data/scripts/dock_solv.prm

>  <Rbt.Receptor>
prm/blind_docking_40.prm

>  <SCORE>
-4.16672

>  <SCORE.INTER>
-2.471

>  <SCORE.INTER.CONST>
1

>  <SCORE.INTER.POLAR>
0

>  <SCORE.INTER.ROT>
5

>  <SCORE.INTER.SOLV>
5.00717

>  <SCORE.INTER.VDW>
-10.2497

>  <SCORE.INTER.norm>
-0.2471

>  <SCORE.INTRA>
-1.69572

>  <SCORE.INTRA.DIHEDRAL>
-2.60798

>  <SCORE.INTRA.DIHEDRAL.0>
4.28128

>  <SCORE.INTRA.POLAR>
0

>  <SCORE.INTRA.POLAR.0>
0

>  <SCORE.INTRA.REPUL>
0

>  <SCORE.INTRA.REPUL.0>
0

>  <SCORE.INTRA.SOLV>
-0.414411

>  <SCORE.INTRA.SOLV.lig_0>
-32.3374

>  <SCORE.INTRA.VDW>
-0.184526

>  <SCORE.INTRA.VDW.0>
-0.659551

>  <SCORE.INTRA.norm>
-0.169572

>  <SCORE.RESTR>
0

>  <SCORE.RESTR.CAVITY>
0

>  <SCORE.RESTR.norm>
0

>  <SCORE.SYSTEM>
0

>  <SCORE.SYSTEM.CONST>
0

>  <SCORE.SYSTEM.DIHEDRAL>
0

>  <SCORE.SYSTEM.SOLV>
0

>  <SCORE.SYSTEM.norm>
0

>  <SCORE.heavy>
10

>  <SCORE.norm>
-0.416672

>  <RMSD>
14.469

$$$$
ligand
 OpenBabel11021811473D
libRbt.so/2013.1/901 2013/11/27
 10  9  0  0  0  0  0  0  0  0999 V2000
   20.3648   13.6386   12.5252 N   0  0  0  0  0  0  0  0  0  0  0  0
   20.9457   14.3419   11.3474 C   0  0  2  0  0  0  0  0  0  0  0  0
   20.0088   14.3140   10.1397 C   0  0  0  0  0  0  0  0  0  0  0  0
   20.2443   14.9623    9.1149 O   0  0  0  0  0  0  0  0  0  0  0  0
   22.3198   13.7671   10.9935 C   0  0  0  0  0  0  0  0  0  0  0  0
   23.1079   14.6018    9.9926 C   0  0  0  0  0  0  0  0  0  0  0  0
   24.4192   13.9139    9.6137 C   0  0  0  0  0  0  0  0  0  0  0  0
   25.2110   14.7263    8.5952 C   0  0  0  0  0  0  0  0  0  0  0  0
   26.4675   14.0456    8.1650 N   0  0  0  0  0  0  0  0  0  0  0  0
   18.9963   13.6171   10.1509 O   0  0  0  0  0  0  0  0  0  0  0  0
  2  1  1  1  0  0  0
  2  3  1  0  0  0  0
  2  5  1  0  0  0  0
  3  4  1  0  0  0  0
  3 10  1  0  0  0  0
  5  6  1  0  0  0  0
  6  7  1  0  0  0  0
  7  8  1  0  0  0  0
  8  9  1  0  0  0  0
M  END
>  <CHROM.1>
172.10475403,-168.15671367,-175.86250389,179.11202029,-177.48926973,22.17625947
14.19286608,10.04143337,-2.79347305,0.05575933,-1.29927392

>  <Name>
ligand

>  <RI>
0

>  <Rbt.Current_Directory>
/home/itssahil/PROJECTS/Mol_Feturizer/New_Systems/rnas/3DJ2

>  <Rbt.Executable>
rbdock ($Id: //depot/dev/client3/rdock/2013.1/src/exe/rbdock.cxx#4 $)

>  <Rbt.Library>
libRbt.so (2013.1, Build901 2013/11/27)

>  <Rbt.Parameter_File>
/export/apps/rDock/src/rDock_2013.1_src/data/scripts/dock_solv.prm

>  <Rbt.Receptor>
prm/blind_docking_80.prm

>  <SCORE>
-5.23182

>  <SCORE.INTER>
-3.49482

>  <SCORE.INTER.CONST>
1

>  <SCORE.INTER.POLAR>
0

>  <SCORE.INTER.ROT>
5

>  <SCORE.INTER.SOLV>
4.74562

>  <SCORE.INTER.VDW>
-10.8451

>  <SCORE.INTER.norm>
-0.349482

>  <SCORE.INTRA>
-1.73701

>  <SCORE.INTRA.DIHEDRAL>
-2.17902

>  <SCORE.INTRA.DIHEDRAL.0>
4.28128

>  <SCORE.INTRA.POLAR>
0

>  <SCORE.INTRA.POLAR.0>
0

>  <SCORE.INTRA.REPUL>
0

>  <SCORE.INTRA.REPUL.0>
0

>  <SCORE.INTRA.SOLV>
-1.31512

>  <SCORE.INTRA.SOLV.lig_0>
-32.3374

>  <SCORE.INTRA.VDW>
0.0100619

>  <SCORE.INTRA.VDW.0>
-0.659551

>  <SCORE.INTRA.norm>
-0.173701

>  <SCORE.RESTR>
0

>  <SCORE.RESTR.CAVITY>
0

>  <SCORE.RESTR.norm>
0

>  <SCORE.SYSTEM>
0

>  <SCORE.SYSTEM.CONST>
0

>  <SCORE.SYSTEM.DIHEDRAL>
0

>  <SCORE.SYSTEM.SOLV>
0

>  <SCORE.SYSTEM.norm>
0

>  <SCORE.heavy>
10

>  <SCORE.norm>
-0.523182

>  <RMSD>
14.855

$$$$
ligand
 OpenBabel11021811473D
libRbt.so/2013.1/901 2013/11/27
 10  9  0  0  0  0  0  0  0  0999 V2000
   26.6727   14.6650    9.9788 N   0  0  0  0  0  0  0  0  0  0  0  0
   26.1544   14.5215    8.5896 C   0  0  2  0  0  0  0  0  0  0  0  0
   24.8695   15.3199    8.3684 C   0  0  0  0  0  0  0  0  0  0  0  0
   24.7057   16.0316    7.3721 O   0  0  0  0  0  0  0  0  0  0  0  0
   25.9560   13.0462    8.2322 C   0  0  0  0  0  0  0  0  0  0  0  0
   25.5749   12.8005    6.7783 C   0  0  0  0  0  0  0  0  0  0  0  0
   26.8103   12.5082    5.9272 C   0  0  0  0  0  0  0  0  0  0  0  0
   27.7069   13.7338    5.7908 C   0  0  0  0  0  0  0  0  0  0  0  0
   28.9186   13.4730    4.9595 N   0  0  0  0  0  0  0  0  0  0  0  0
   23.9459   15.2529    9.1768 O   0  0  0  0  0  0  0  0  0  0  0  0
  2  1  1  1  0  0  0
  2  3  1  0  0  0  0
  2  5  1  0  0  0  0
  3  4  1  0  0  0  0
  3 10  1  0  0  0  0
  5  6  1  0  0  0  0
  6  7  1  0  0  0  0
  7  8  1  0  0  0  0
  8  9  1  0  0  0  0
M  END
>  <CHROM.1>
133.73130533,-173.57705785,94.15387472,-67.94577034,-179.82136210,26.09840713
14.15773801,7.51874174,-2.45273239,0.66294617,-1.48280722

>  <Name>
ligand

>  <RI>
0

>  <Rbt.Current_Directory>
/home/itssahil/PROJECTS/Mol_Feturizer/New_Systems/rnas/3DJ2

>  <Rbt.Executable>
rbdock ($Id: //depot/dev/client3/rdock/2013.1/src/exe/rbdock.cxx#4 $)

>  <Rbt.Library>
libRbt.so (2013.1, Build901 2013/11/27)

>  <Rbt.Parameter_File>
/export/apps/rDock/src/rDock_2013.1_src/data/scripts/dock_solv.prm

>  <Rbt.Receptor>
prm/blind_docking_40.prm

>  <SCORE>
-2.98619

>  <SCORE.INTER>
-3.5439

>  <SCORE.INTER.CONST>
1

>  <SCORE.INTER.POLAR>
0

>  <SCORE.INTER.ROT>
5

>  <SCORE.INTER.SOLV>
5.36907

>  <SCORE.INTER.VDW>
-11.0856

>  <SCORE.INTER.norm>
-0.35439

>  <SCORE.INTRA>
0.557706

>  <SCORE.INTRA.DIHEDRAL>
1.33837

>  <SCORE.INTRA.DIHEDRAL.0>
4.28128

>  <SCORE.INTRA.POLAR>
0

>  <SCORE.INTRA.POLAR.0>
0

>  <SCORE.INTRA.REPUL>
0

>  <SCORE.INTRA.REPUL.0>
0

>  <SCORE.INTRA.SOLV>
-0.757602

>  <SCORE.INTRA.SOLV.lig_0>
-32.3374

>  <SCORE.INTRA.VDW>
0.267323

>  <SCORE.INTRA.VDW.0>
-0.659551

>  <SCORE.INTRA.norm>
0.0557706

>  <SCORE.RESTR>
0

>  <SCORE.RESTR.CAVITY>
0

>  <SCORE.RESTR.norm>
0

>  <SCORE.SYSTEM>
0

>  <SCORE.SYSTEM.CONST>
0

>  <SCORE.SYSTEM.DIHEDRAL>
0

>  <SCORE.SYSTEM.SOLV>
0

>  <SCORE.SYSTEM.norm>
0

>  <SCORE.heavy>
10

>  <SCORE.norm>
-0.298619

>  <RMSD>
14.877

$$$$
ligand
 OpenBabel11021811473D
libRbt.so/2013.1/901 2013/11/27
 10  9  0  0  0  0  0  0  0  0999 V2000
   26.0079   14.0114   10.1707 N   0  0  0  0  0  0  0  0  0  0  0  0
   25.9699   14.3274    8.7154 C   0  0  2  0  0  0  0  0  0  0  0  0
   24.7943   15.2351    8.3531 C   0  0  0  0  0  0  0  0  0  0  0  0
   24.8592   16.0501    7.4271 O   0  0  0  0  0  0  0  0  0  0  0  0
   25.9546   13.0445    7.8801 C   0  0  0  0  0  0  0  0  0  0  0  0
   26.2466   13.2579    6.4007 C   0  0  0  0  0  0  0  0  0  0  0  0
   27.7227   13.5815    6.1719 C   0  0  0  0  0  0  0  0  0  0  0  0
   28.0152   13.8859    4.7069 C   0  0  0  0  0  0  0  0  0  0  0  0
   29.4633   14.1372    4.4475 N   0  0  0  0  0  0  0  0  0  0  0  0
   23.7331   15.1578    8.9685 O   0  0  0  0  0  0  0  0  0  0  0  0
  2  1  1  1  0  0  0
  2  3  1  0  0  0  0
  2  5  1  0  0  0  0
  3  4  1  0  0  0  0
  3 10  1  0  0  0  0
  5  6  1  0  0  0  0
  6  7  1  0  0  0  0
  7  8  1  0  0  0  0
  8  9  1  0  0  0  0
M  END
>  <CHROM.1>
148.68365956,-166.24879762,72.66851454,-176.35241676,-177.08969658,26.24427600
14.29203044,7.32398908,-2.60540618,0.67927035,-1.01971290

>  <Name>
ligand

>  <RI>
0

>  <Rbt.Current_Directory>
/home/itssahil/PROJECTS/Mol_Feturizer/New_Systems/rnas/3DJ2

>  <Rbt.Executable>
rbdock ($Id: //depot/dev/client3/rdock/2013.1/src/exe/rbdock.cxx#4 $)

>  <Rbt.Library>
libRbt.so (2013.1, Build901 2013/11/27)

>  <Rbt.Parameter_File>
/export/apps/rDock/src/rDock_2013.1_src/data/scripts/dock_solv.prm

>  <Rbt.Receptor>
prm/blind_docking_40.prm

>  <SCORE>
-5.18003

>  <SCORE.INTER>
-3.73525

>  <SCORE.INTER.CONST>
1

>  <SCORE.INTER.POLAR>
0

>  <SCORE.INTER.ROT>
5

>  <SCORE.INTER.SOLV>
5.11228

>  <SCORE.INTER.VDW>
-11.1276

>  <SCORE.INTER.norm>
-0.373525

>  <SCORE.INTRA>
-1.44478

>  <SCORE.INTRA.DIHEDRAL>
-1.39329

>  <SCORE.INTRA.DIHEDRAL.0>
4.28128

>  <SCORE.INTRA.POLAR>
0

>  <SCORE.INTRA.POLAR.0>
0

>  <SCORE.INTRA.REPUL>
0

>  <SCORE.INTRA.REPUL.0>
0

>  <SCORE.INTRA.SOLV>
-1.0467

>  <SCORE.INTRA.SOLV.lig_0>
-32.3374

>  <SCORE.INTRA.VDW>
-0.224788

>  <SCORE.INTRA.VDW.0>
-0.659551

>  <SCORE.INTRA.norm>
-0.144478

>  <SCORE.RESTR>
0

>  <SCORE.RESTR.CAVITY>
0

>  <SCORE.RESTR.norm>
0

>  <SCORE.SYSTEM>
0

>  <SCORE.SYSTEM.CONST>
0

>  <SCORE.SYSTEM.DIHEDRAL>
0

>  <SCORE.SYSTEM.SOLV>
0

>  <SCORE.SYSTEM.norm>
0

>  <SCORE.heavy>
10

>  <SCORE.norm>
-0.518003

>  <RMSD>
15.085

$$$$
ligand
 OpenBabel11021811473D
libRbt.so/2013.1/901 2013/11/27
 10  9  0  0  0  0  0  0  0  0999 V2000
   28.3297   11.4446    5.0413 N   0  0  0  0  0  0  0  0  0  0  0  0
   27.6868   12.7333    5.4226 C   0  0  2  0  0  0  0  0  0  0  0  0
   28.7151   13.8266    5.7135 C   0  0  0  0  0  0  0  0  0  0  0  0
   29.6009   13.6814    6.5621 O   0  0  0  0  0  0  0  0  0  0  0  0
   26.7380   12.5383    6.6081 C   0  0  0  0  0  0  0  0  0  0  0  0
   25.9806   13.7949    7.0162 C   0  0  0  0  0  0  0  0  0  0  0  0
   25.1076   13.5372    8.2441 C   0  0  0  0  0  0  0  0  0  0  0  0
   24.3933   14.8023    8.7065 C   0  0  0  0  0  0  0  0  0  0  0  0
   23.5888   14.5908    9.9456 N   0  0  0  0  0  0  0  0  0  0  0  0
   28.6990   14.8821    5.0838 O   0  0  0  0  0  0  0  0  0  0  0  0
  2  1  1  1  0  0  0
  2  3  1  0  0  0  0
  2  5  1  0  0  0  0
  3  4  1  0  0  0  0
  3 10  1  0  0  0  0
  5  6  1  0  0  0  0
  6  7  1  0  0  0  0
  7  8  1  0  0  0  0
  8  9  1  0  0  0  0
M  END
>  <CHROM.1>
-56.42311902,-176.89963639,-177.28319231,177.27595648,-177.09570566,26.91570109
13.60543869,6.83201389,0.41220901,-0.57258943,-2.76787578

>  <Name>
ligand

>  <RI>
0

>  <Rbt.Current_Directory>
/home/itssahil/PROJECTS/Mol_Feturizer/New_Systems/rnas/3DJ2

>  <Rbt.Executable>
rbdock ($Id: //depot/dev/client3/rdock/2013.1/src/exe/rbdock.cxx#4 $)

>  <Rbt.Library>
libRbt.so (2013.1, Build901 2013/11/27)

>  <Rbt.Parameter_File>
/export/apps/rDock/src/rDock_2013.1_src/data/scripts/dock_solv.prm

>  <Rbt.Receptor>
prm/blind_docking_40.prm

>  <SCORE>
-4.07644

>  <SCORE.INTER>
-1.91965

>  <SCORE.INTER.CONST>
1

>  <SCORE.INTER.POLAR>
0

>  <SCORE.INTER.ROT>
5

>  <SCORE.INTER.SOLV>
7.10063

>  <SCORE.INTER.VDW>
-10.58

>  <SCORE.INTER.norm>
-0.191965

>  <SCORE.INTRA>
-2.15679

>  <SCORE.INTRA.DIHEDRAL>
-2.62861

>  <SCORE.INTRA.DIHEDRAL.0>
4.28128

>  <SCORE.INTRA.POLAR>
0

>  <SCORE.INTRA.POLAR.0>
0

>  <SCORE.INTRA.REPUL>
0

>  <SCORE.INTRA.REPUL.0>
0

>  <SCORE.INTRA.SOLV>
-1.34346

>  <SCORE.INTRA.SOLV.lig_0>
-32.3374

>  <SCORE.INTRA.VDW>
-0.170752

>  <SCORE.INTRA.VDW.0>
-0.659551

>  <SCORE.INTRA.norm>
-0.215679

>  <SCORE.RESTR>
0

>  <SCORE.RESTR.CAVITY>
0

>  <SCORE.RESTR.norm>
0

>  <SCORE.SYSTEM>
0

>  <SCORE.SYSTEM.CONST>
0

>  <SCORE.SYSTEM.DIHEDRAL>
0

>  <SCORE.SYSTEM.SOLV>
0

>  <SCORE.SYSTEM.norm>
0

>  <SCORE.heavy>
10

>  <SCORE.norm>
-0.407644

>  <RMSD>
15.086

$$$$
ligand
 OpenBabel11021811473D
libRbt.so/2013.1/901 2013/11/27
 10  9  0  0  0  0  0  0  0  0999 V2000
   19.8621   13.5713   12.3445 N   0  0  0  0  0  0  0  0  0  0  0  0
   20.5234   14.3334   11.2485 C   0  0  2  0  0  0  0  0  0  0  0  0
   19.6876   14.3447    9.9685 C   0  0  0  0  0  0  0  0  0  0  0  0
   18.6194   13.7306    9.8801 O   0  0  0  0  0  0  0  0  0  0  0  0
   21.9316   13.7942   10.9835 C   0  0  0  0  0  0  0  0  0  0  0  0
   22.7783   14.6761   10.0755 C   0  0  0  0  0  0  0  0  0  0  0  0
   24.0940   13.9888    9.7113 C   0  0  0  0  0  0  0  0  0  0  0  0
   24.9044   14.8092    8.7140 C   0  0  0  0  0  0  0  0  0  0  0  0
   26.1695   14.1326    8.3029 N   0  0  0  0  0  0  0  0  0  0  0  0
   20.0522   14.9941    8.9906 O   0  0  0  0  0  0  0  0  0  0  0  0
  2  1  1  1  0  0  0
  2  3  1  0  0  0  0
  2  5  1  0  0  0  0
  3  4  1  0  0  0  0
  3 10  1  0  0  0  0
  5  6  1  0  0  0  0
  6  7  1  0  0  0  0
  7  8  1  0  0  0  0
  8  9  1  0  0  0  0
M  END
>  <CHROM.1>
-2.87314300,-168.70454493,-172.57779751,175.43666992,-177.77695800,21.83192076
14.23888472,9.99746311,-2.83922230,0.03662929,-1.27772366

>  <Name>
ligand

>  <RI>
0

>  <Rbt.Current_Directory>
/home/itssahil/PROJECTS/Mol_Feturizer/New_Systems/rnas/3DJ2

>  <Rbt.Executable>
rbdock ($Id: //depot/dev/client3/rdock/2013.1/src/exe/rbdock.cxx#4 $)

>  <Rbt.Library>
libRbt.so (2013.1, Build901 2013/11/27)

>  <Rbt.Parameter_File>
/export/apps/rDock/src/rDock_2013.1_src/data/scripts/dock_solv.prm

>  <Rbt.Receptor>
prm/blind_docking_40.prm

>  <SCORE>
-5.35603

>  <SCORE.INTER>
-3.8285

>  <SCORE.INTER.CONST>
1

>  <SCORE.INTER.POLAR>
0

>  <SCORE.INTER.ROT>
5

>  <SCORE.INTER.SOLV>
4.67884

>  <SCORE.INTER.VDW>
-11.0453

>  <SCORE.INTER.norm>
-0.38285

>  <SCORE.INTRA>
-1.52752

>  <SCORE.INTRA.DIHEDRAL>
-1.95556

>  <SCORE.INTRA.DIHEDRAL.0>
4.28128

>  <SCORE.INTRA.POLAR>
0

>  <SCORE.INTRA.POLAR.0>
0

>  <SCORE.INTRA.REPUL>
0

>  <SCORE.INTRA.REPUL.0>
0

>  <SCORE.INTRA.SOLV>
-1.32259

>  <SCORE.INTRA.SOLV.lig_0>
-32.3374

>  <SCORE.INTRA.VDW>
0.111551

>  <SCORE.INTRA.VDW.0>
-0.659551

>  <SCORE.INTRA.norm>
-0.152752

>  <SCORE.RESTR>
0

>  <SCORE.RESTR.CAVITY>
0

>  <SCORE.RESTR.norm>
0

>  <SCORE.SYSTEM>
0

>  <SCORE.SYSTEM.CONST>
0

>  <SCORE.SYSTEM.DIHEDRAL>
0

>  <SCORE.SYSTEM.SOLV>
0

>  <SCORE.SYSTEM.norm>
0

>  <SCORE.heavy>
10

>  <SCORE.norm>
-0.535603

>  <RMSD>
15.086

$$$$
ligand
 OpenBabel11021811473D
libRbt.so/2013.1/901 2013/11/27
 10  9  0  0  0  0  0  0  0  0999 V2000
   28.6494   12.7530    4.9052 N   0  0  0  0  0  0  0  0  0  0  0  0
   27.9079   12.5302    6.1780 C   0  0  2  0  0  0  0  0  0  0  0  0
   27.3570   11.1079    6.2828 C   0  0  0  0  0  0  0  0  0  0  0  0
   27.5642   10.3982    7.2724 O   0  0  0  0  0  0  0  0  0  0  0  0
   26.7947   13.5673    6.3481 C   0  0  0  0  0  0  0  0  0  0  0  0
   26.0235   13.4482    7.6559 C   0  0  0  0  0  0  0  0  0  0  0  0
   25.0951   14.6453    7.8586 C   0  0  0  0  0  0  0  0  0  0  0  0
   24.2476   14.4978    9.1173 C   0  0  0  0  0  0  0  0  0  0  0  0
   25.0691   14.2833   10.3446 N   0  0  0  0  0  0  0  0  0  0  0  0
   26.6649   10.6386    5.3819 O   0  0  0  0  0  0  0  0  0  0  0  0
  2  1  1  6  0  0  0
  2  3  1  0  0  0  0
  2  5  1  0  0  0  0
  3  4  1  0  0  0  0
  3 10  1  0  0  0  0
  5  6  1  0  0  0  0
  6  7  1  0  0  0  0
  7  8  1  0  0  0  0
  8  9  1  0  0  0  0
M  END
>  <CHROM.1>
128.32723725,-177.50117130,170.56444809,176.23069790,55.78049226,26.53189582
12.74916338,7.13074375,-0.37782374,0.96582858,-0.27787482

>  <Name>
ligand

>  <RI>
0

>  <Rbt.Current_Directory>
/home/itssahil/PROJECTS/Mol_Feturizer/New_Systems/rnas/3DJ2

>  <Rbt.Executable>
rbdock ($Id: //depot/dev/client3/rdock/2013.1/src/exe/rbdock.cxx#4 $)

>  <Rbt.Library>
libRbt.so (2013.1, Build901 2013/11/27)

>  <Rbt.Parameter_File>
/export/apps/rDock/src/rDock_2013.1_src/data/scripts/dock_solv.prm

>  <Rbt.Receptor>
prm/blind_docking_100.prm

>  <SCORE>
-3.74878

>  <SCORE.INTER>
-2.49502

>  <SCORE.INTER.CONST>
1

>  <SCORE.INTER.POLAR>
0

>  <SCORE.INTER.ROT>
5

>  <SCORE.INTER.SOLV>
5.91357

>  <SCORE.INTER.VDW>
-10.5679

>  <SCORE.INTER.norm>
-0.249502

>  <SCORE.INTRA>
-1.2719

>  <SCORE.INTRA.DIHEDRAL>
-2.26418

>  <SCORE.INTRA.DIHEDRAL.0>
4.28128

>  <SCORE.INTRA.POLAR>
0

>  <SCORE.INTRA.POLAR.0>
0

>  <SCORE.INTRA.REPUL>
0

>  <SCORE.INTRA.REPUL.0>
0

>  <SCORE.INTRA.SOLV>
-0.362404

>  <SCORE.INTRA.SOLV.lig_0>
-32.3374

>  <SCORE.INTRA.VDW>
0.0413945

>  <SCORE.INTRA.VDW.0>
-0.659551

>  <SCORE.INTRA.norm>
-0.12719

>  <SCORE.RESTR>
0.0181414

>  <SCORE.RESTR.CAVITY>
0.0181414

>  <SCORE.RESTR.norm>
0.00181414

>  <SCORE.SYSTEM>
0

>  <SCORE.SYSTEM.CONST>
0

>  <SCORE.SYSTEM.DIHEDRAL>
0

>  <SCORE.SYSTEM.SOLV>
0

>  <SCORE.SYSTEM.norm>
0

>  <SCORE.heavy>
10

>  <SCORE.norm>
-0.374878

>  <RMSD>
15.234

$$$$
ligand
 OpenBabel11021811473D
libRbt.so/2013.1/901 2013/11/27
 10  9  0  0  0  0  0  0  0  0999 V2000
   18.4428   14.0730   11.8900 N   0  0  0  0  0  0  0  0  0  0  0  0
   19.5696   14.5287   11.0286 C   0  0  2  0  0  0  0  0  0  0  0  0
   19.2073   14.5020    9.5436 C   0  0  0  0  0  0  0  0  0  0  0  0
   18.1149   14.0854    9.1449 O   0  0  0  0  0  0  0  0  0  0  0  0
   20.8318   13.7073   11.3037 C   0  0  0  0  0  0  0  0  0  0  0  0
   22.1085   14.3132   10.7361 C   0  0  0  0  0  0  0  0  0  0  0  0
   23.3154   13.4188   11.0184 C   0  0  0  0  0  0  0  0  0  0  0  0
   24.6183   14.0648   10.5607 C   0  0  0  0  0  0  0  0  0  0  0  0
   24.6715   14.2737    9.0839 N   0  0  0  0  0  0  0  0  0  0  0  0
   19.9969   14.9227    8.7007 O   0  0  0  0  0  0  0  0  0  0  0  0
  2  1  1  1  0  0  0
  2  3  1  0  0  0  0
  2  5  1  0  0  0  0
  3  4  1  0  0  0  0
  3 10  1  0  0  0  0
  5  6  1  0  0  0  0
  6  7  1  0  0  0  0
  7  8  1  0  0  0  0
  8  9  1  0  0  0  0
M  END
>  <CHROM.1>
-3.02100972,-165.55981839,-178.45805116,-175.20801267,-63.64328658,21.06845951
14.19088439,10.26808951,3.12062806,0.04998694,-1.33476215

>  <Name>
ligand

>  <RI>
0

>  <Rbt.Current_Directory>
/home/itssahil/PROJECTS/Mol_Feturizer/New_Systems/rnas/3DJ2

>  <Rbt.Executable>
rbdock ($Id: //depot/dev/client3/rdock/2013.1/src/exe/rbdock.cxx#4 $)

>  <Rbt.Library>
libRbt.so (2013.1, Build901 2013/11/27)

>  <Rbt.Parameter_File>
/export/apps/rDock/src/rDock_2013.1_src/data/scripts/dock_solv.prm

>  <Rbt.Receptor>
prm/blind_docking_60.prm

>  <SCORE>
-4.88255

>  <SCORE.INTER>
-3.85842

>  <SCORE.INTER.CONST>
1

>  <SCORE.INTER.POLAR>
0

>  <SCORE.INTER.ROT>
5

>  <SCORE.INTER.SOLV>
5.4299

>  <SCORE.INTER.VDW>
-11.3156

>  <SCORE.INTER.norm>
-0.385842

>  <SCORE.INTRA>
-1.02413

>  <SCORE.INTRA.DIHEDRAL>
-1.84654

>  <SCORE.INTRA.DIHEDRAL.0>
4.28128

>  <SCORE.INTRA.POLAR>
0

>  <SCORE.INTRA.POLAR.0>
0

>  <SCORE.INTRA.REPUL>
0

>  <SCORE.INTRA.REPUL.0>
0

>  <SCORE.INTRA.SOLV>
-0.444604

>  <SCORE.INTRA.SOLV.lig_0>
-32.3374

>  <SCORE.INTRA.VDW>
0.121445

>  <SCORE.INTRA.VDW.0>
-0.659551

>  <SCORE.INTRA.norm>
-0.102413

>  <SCORE.RESTR>
0

>  <SCORE.RESTR.CAVITY>
0

>  <SCORE.RESTR.norm>
0

>  <SCORE.SYSTEM>
0

>  <SCORE.SYSTEM.CONST>
0

>  <SCORE.SYSTEM.DIHEDRAL>
0

>  <SCORE.SYSTEM.SOLV>
0

>  <SCORE.SYSTEM.norm>
0

>  <SCORE.heavy>
10

>  <SCORE.norm>
-0.488255

>  <RMSD>
15.332

$$$$
ligand
 OpenBabel11021811473D
libRbt.so/2013.1/901 2013/11/27
 10  9  0  0  0  0  0  0  0  0999 V2000
   18.0625   15.5646   11.7507 N   0  0  0  0  0  0  0  0  0  0  0  0
   18.4135   14.7239   10.5720 C   0  0  2  0  0  0  0  0  0  0  0  0
   17.1799   14.0928    9.9262 C   0  0  0  0  0  0  0  0  0  0  0  0
   16.0742   14.1077   10.4769 O   0  0  0  0  0  0  0  0  0  0  0  0
   19.4444   13.6576   10.9516 C   0  0  0  0  0  0  0  0  0  0  0  0
   20.8349   14.2071   11.2414 C   0  0  0  0  0  0  0  0  0  0  0  0
   21.7729   13.1028   11.7279 C   0  0  0  0  0  0  0  0  0  0  0  0
   23.1882   13.6218   11.9560 C   0  0  0  0  0  0  0  0  0  0  0  0
   23.8761   13.9998   10.6867 N   0  0  0  0  0  0  0  0  0  0  0  0
   17.2551   13.5688    8.8168 O   0  0  0  0  0  0  0  0  0  0  0  0
  2  1  1  1  0  0  0
  2  3  1  0  0  0  0
  2  5  1  0  0  0  0
  3  4  1  0  0  0  0
  3 10  1  0  0  0  0
  5  6  1  0  0  0  0
  6  7  1  0  0  0  0
  7  8  1  0  0  0  0
  8  9  1  0  0  0  0
M  END
>  <CHROM.1>
-11.63405569,-70.45835267,175.11413620,177.14317476,-68.45477159,19.57069878
14.05305416,10.79231390,3.00451818,0.18358523,-2.13036474

>  <Name>
ligand

>  <RI>
0

>  <Rbt.Current_Directory>
/home/itssahil/PROJECTS/Mol_Feturizer/New_Systems/rnas/3DJ2

>  <Rbt.Executable>
rbdock ($Id: //depot/dev/client3/rdock/2013.1/src/exe/rbdock.cxx#4 $)

>  <Rbt.Library>
libRbt.so (2013.1, Build901 2013/11/27)

>  <Rbt.Parameter_File>
/export/apps/rDock/src/rDock_2013.1_src/data/scripts/dock_solv.prm

>  <Rbt.Receptor>
prm/blind_docking_40.prm

>  <SCORE>
-4.31499

>  <SCORE.INTER>
-3.41137

>  <SCORE.INTER.CONST>
1

>  <SCORE.INTER.POLAR>
0

>  <SCORE.INTER.ROT>
5

>  <SCORE.INTER.SOLV>
8.02641

>  <SCORE.INTER.VDW>
-11.8831

>  <SCORE.INTER.norm>
-0.341137

>  <SCORE.INTRA>
-0.906209

>  <SCORE.INTRA.DIHEDRAL>
-1.88282

>  <SCORE.INTRA.DIHEDRAL.0>
4.28128

>  <SCORE.INTRA.POLAR>
0

>  <SCORE.INTRA.POLAR.0>
0

>  <SCORE.INTRA.REPUL>
0

>  <SCORE.INTRA.REPUL.0>
0

>  <SCORE.INTRA.SOLV>
0.296901

>  <SCORE.INTRA.SOLV.lig_0>
-32.3374

>  <SCORE.INTRA.VDW>
-0.113252

>  <SCORE.INTRA.VDW.0>
-0.659551

>  <SCORE.INTRA.norm>
-0.0906209

>  <SCORE.RESTR>
0.00259659

>  <SCORE.RESTR.CAVITY>
0.00259659

>  <SCORE.RESTR.norm>
0.000259659

>  <SCORE.SYSTEM>
0

>  <SCORE.SYSTEM.CONST>
0

>  <SCORE.SYSTEM.DIHEDRAL>
0

>  <SCORE.SYSTEM.SOLV>
0

>  <SCORE.SYSTEM.norm>
0

>  <SCORE.heavy>
10

>  <SCORE.norm>
-0.431499

>  <RMSD>
16.068

$$$$
ligand
 OpenBabel11021811473D
libRbt.so/2013.1/901 2013/11/27
 10  9  0  0  0  0  0  0  0  0999 V2000
   16.4131   18.9903   16.8444 N   0  0  0  0  0  0  0  0  0  0  0  0
   16.4129   20.0399   15.7871 C   0  0  2  0  0  0  0  0  0  0  0  0
   17.1382   19.5830   14.5212 C   0  0  0  0  0  0  0  0  0  0  0  0
   16.7496   19.9042   13.3935 O   0  0  0  0  0  0  0  0  0  0  0  0
   17.0026   21.3486   16.3193 C   0  0  0  0  0  0  0  0  0  0  0  0
   17.1278   22.4490   15.2739 C   0  0  0  0  0  0  0  0  0  0  0  0
   15.7588   22.8362   14.7154 C   0  0  0  0  0  0  0  0  0  0  0  0
   15.8692   23.9128   13.6416 C   0  0  0  0  0  0  0  0  0  0  0  0
   14.5430   24.3111   13.0849 N   0  0  0  0  0  0  0  0  0  0  0  0
   18.1539   18.8949   14.5976 O   0  0  0  0  0  0  0  0  0  0  0  0
  2  1  1  1  0  0  0
  2  3  1  0  0  0  0
  2  5  1  0  0  0  0
  3  4  1  0  0  0  0
  3 10  1  0  0  0  0
  5  6  1  0  0  0  0
  6  7  1  0  0  0  0
  7  8  1  0  0  0  0
  8  9  1  0  0  0  0
M  END
>  <CHROM.1>
143.47472069,176.03779110,61.68970323,-178.57084474,-179.76973493,16.53520328
21.20774923,14.79218310,0.35731798,-1.19043206,1.60052650

>  <Name>
ligand

>  <RI>
0

>  <Rbt.Current_Directory>
/home/itssahil/PROJECTS/Mol_Feturizer/New_Systems/rnas/3DJ2

>  <Rbt.Executable>
rbdock ($Id: //depot/dev/client3/rdock/2013.1/src/exe/rbdock.cxx#4 $)

>  <Rbt.Library>
libRbt.so (2013.1, Build901 2013/11/27)

>  <Rbt.Parameter_File>
/export/apps/rDock/src/rDock_2013.1_src/data/scripts/dock_solv.prm

>  <Rbt.Receptor>
prm/blind_docking_40.prm

>  <SCORE>
-2.61568

>  <SCORE.INTER>
-0.917672

>  <SCORE.INTER.CONST>
1

>  <SCORE.INTER.POLAR>
0

>  <SCORE.INTER.ROT>
5

>  <SCORE.INTER.SOLV>
3.70201

>  <SCORE.INTER.VDW>
-8.77912

>  <SCORE.INTER.norm>
-0.0917672

>  <SCORE.INTRA>
-1.69801

>  <SCORE.INTRA.DIHEDRAL>
-2.70938

>  <SCORE.INTRA.DIHEDRAL.0>
4.28128

>  <SCORE.INTRA.POLAR>
0

>  <SCORE.INTRA.POLAR.0>
0

>  <SCORE.INTRA.REPUL>
0

>  <SCORE.INTRA.REPUL.0>
0

>  <SCORE.INTRA.SOLV>
-1.11348

>  <SCORE.INTRA.SOLV.lig_0>
-32.3374

>  <SCORE.INTRA.VDW>
0.213415

>  <SCORE.INTRA.VDW.0>
-0.659551

>  <SCORE.INTRA.norm>
-0.169801

>  <SCORE.RESTR>
0

>  <SCORE.RESTR.CAVITY>
0

>  <SCORE.RESTR.norm>
0

>  <SCORE.SYSTEM>
0

>  <SCORE.SYSTEM.CONST>
0

>  <SCORE.SYSTEM.DIHEDRAL>
0

>  <SCORE.SYSTEM.SOLV>
0

>  <SCORE.SYSTEM.norm>
0

>  <SCORE.heavy>
10

>  <SCORE.norm>
-0.261568

>  <RMSD>
16.727

$$$$
ligand
 OpenBabel11021811473D
libRbt.so/2013.1/901 2013/11/27
 10  9  0  0  0  0  0  0  0  0999 V2000
   16.2904   19.9911   14.4226 N   0  0  0  0  0  0  0  0  0  0  0  0
   15.6787   21.3480   14.3613 C   0  0  2  0  0  0  0  0  0  0  0  0
   15.3771   21.7802   12.9262 C   0  0  0  0  0  0  0  0  0  0  0  0
   16.0537   21.3881   11.9699 O   0  0  0  0  0  0  0  0  0  0  0  0
   16.5620   22.3759   15.0733 C   0  0  0  0  0  0  0  0  0  0  0  0
   16.7807   22.0939   16.5538 C   0  0  0  0  0  0  0  0  0  0  0  0
   15.4589   22.1218   17.3208 C   0  0  0  0  0  0  0  0  0  0  0  0
   14.9101   23.5382   17.4518 C   0  0  0  0  0  0  0  0  0  0  0  0
   13.6459   23.5966   18.2428 N   0  0  0  0  0  0  0  0  0  0  0  0
   14.4258   22.5199   12.6838 O   0  0  0  0  0  0  0  0  0  0  0  0
  2  1  1  6  0  0  0
  2  3  1  0  0  0  0
  2  5  1  0  0  0  0
  3  4  1  0  0  0  0
  3 10  1  0  0  0  0
  5  6  1  0  0  0  0
  6  7  1  0  0  0  0
  7  8  1  0  0  0  0
  8  9  1  0  0  0  0
M  END
>  <CHROM.1>
-29.86663164,-60.96309536,-61.85165990,-71.55522142,-177.79224498,15.51157546
22.08146825,15.05907230,-1.36455157,-0.69676137,1.38781676

>  <Name>
ligand

>  <RI>
0

>  <Rbt.Current_Directory>
/home/itssahil/PROJECTS/Mol_Feturizer/New_Systems/rnas/3DJ2

>  <Rbt.Executable>
rbdock ($Id: //depot/dev/client3/rdock/2013.1/src/exe/rbdock.cxx#4 $)

>  <Rbt.Library>
libRbt.so (2013.1, Build901 2013/11/27)

>  <Rbt.Parameter_File>
/export/apps/rDock/src/rDock_2013.1_src/data/scripts/dock_solv.prm

>  <Rbt.Receptor>
prm/blind_docking_40.prm

>  <SCORE>
-0.0443938

>  <SCORE.INTER>
0.333309

>  <SCORE.INTER.CONST>
1

>  <SCORE.INTER.POLAR>
0

>  <SCORE.INTER.ROT>
5

>  <SCORE.INTER.SOLV>
3.80959

>  <SCORE.INTER.VDW>
-7.98099

>  <SCORE.INTER.norm>
0.0333309

>  <SCORE.INTRA>
-0.377703

>  <SCORE.INTRA.DIHEDRAL>
-2.12657

>  <SCORE.INTRA.DIHEDRAL.0>
4.28128

>  <SCORE.INTRA.POLAR>
0

>  <SCORE.INTRA.POLAR.0>
0

>  <SCORE.INTRA.REPUL>
0

>  <SCORE.INTRA.REPUL.0>
0

>  <SCORE.INTRA.SOLV>
0.319879

>  <SCORE.INTRA.SOLV.lig_0>
-32.3374

>  <SCORE.INTRA.VDW>
0.525641

>  <SCORE.INTRA.VDW.0>
-0.659551

>  <SCORE.INTRA.norm>
-0.0377703

>  <SCORE.RESTR>
0

>  <SCORE.RESTR.CAVITY>
0

>  <SCORE.RESTR.norm>
0

>  <SCORE.SYSTEM>
0

>  <SCORE.SYSTEM.CONST>
0

>  <SCORE.SYSTEM.DIHEDRAL>
0

>  <SCORE.SYSTEM.SOLV>
0

>  <SCORE.SYSTEM.norm>
0

>  <SCORE.heavy>
10

>  <SCORE.norm>
-0.00443938

>  <RMSD>
17.806

$$$$
ligand
 OpenBabel11021811473D
libRbt.so/2013.1/901 2013/11/27
 10  9  0  0  0  0  0  0  0  0999 V2000
   15.3013   28.0301   19.3628 N   0  0  0  0  0  0  0  0  0  0  0  0
   16.1426   26.8634   18.9751 C   0  0  2  0  0  0  0  0  0  0  0  0
   15.4178   25.5342   19.1875 C   0  0  0  0  0  0  0  0  0  0  0  0
   14.6263   25.3633   20.1203 O   0  0  0  0  0  0  0  0  0  0  0  0
   17.4813   26.8870   19.7176 C   0  0  0  0  0  0  0  0  0  0  0  0
   18.3696   28.0736   19.3678 C   0  0  0  0  0  0  0  0  0  0  0  0
   19.6780   28.0333   20.1568 C   0  0  0  0  0  0  0  0  0  0  0  0
   19.4403   28.1819   21.6554 C   0  0  0  0  0  0  0  0  0  0  0  0
   20.7068   28.1687   22.4449 N   0  0  0  0  0  0  0  0  0  0  0  0
   15.5901   24.5980   18.4098 O   0  0  0  0  0  0  0  0  0  0  0  0
  2  1  1  1  0  0  0
  2  3  1  0  0  0  0
  2  5  1  0  0  0  0
  3  4  1  0  0  0  0
  3 10  1  0  0  0  0
  5  6  1  0  0  0  0
  6  7  1  0  0  0  0
  7  8  1  0  0  0  0
  8  9  1  0  0  0  0
M  END
>  <CHROM.1>
-34.27904702,-64.48790868,179.47506430,-64.38204577,-179.02515726,17.24924832
26.93866181,19.93829606,2.90225876,0.58339065,2.70104721

>  <Name>
ligand

>  <RI>
0

>  <Rbt.Current_Directory>
/home/itssahil/PROJECTS/Mol_Feturizer/New_Systems/rnas/3DJ2

>  <Rbt.Executable>
rbdock ($Id: //depot/dev/client3/rdock/2013.1/src/exe/rbdock.cxx#4 $)

>  <Rbt.Library>
libRbt.so (2013.1, Build901 2013/11/27)

>  <Rbt.Parameter_File>
/export/apps/rDock/src/rDock_2013.1_src/data/scripts/dock_solv.prm

>  <Rbt.Receptor>
prm/blind_docking_80.prm

>  <SCORE>
-1.77521

>  <SCORE.INTER>
-0.900566

>  <SCORE.INTER.CONST>
1

>  <SCORE.INTER.POLAR>
0

>  <SCORE.INTER.ROT>
5

>  <SCORE.INTER.SOLV>
6.77613

>  <SCORE.INTER.VDW>
-9.79242

>  <SCORE.INTER.norm>
-0.0900566

>  <SCORE.INTRA>
-0.874642

>  <SCORE.INTRA.DIHEDRAL>
-2.53561

>  <SCORE.INTRA.DIHEDRAL.0>
4.28128

>  <SCORE.INTRA.POLAR>
0

>  <SCORE.INTRA.POLAR.0>
0

>  <SCORE.INTRA.REPUL>
0

>  <SCORE.INTRA.REPUL.0>
0

>  <SCORE.INTRA.SOLV>
-0.253209

>  <SCORE.INTRA.SOLV.lig_0>
-32.3374

>  <SCORE.INTRA.VDW>
0.519768

>  <SCORE.INTRA.VDW.0>
-0.659551

>  <SCORE.INTRA.norm>
-0.0874642

>  <SCORE.RESTR>
0

>  <SCORE.RESTR.CAVITY>
0

>  <SCORE.RESTR.norm>
0

>  <SCORE.SYSTEM>
0

>  <SCORE.SYSTEM.CONST>
0

>  <SCORE.SYSTEM.DIHEDRAL>
0

>  <SCORE.SYSTEM.SOLV>
0

>  <SCORE.SYSTEM.norm>
0

>  <SCORE.heavy>
10

>  <SCORE.norm>
-0.177521

>  <RMSD>
18.114

$$$$
ligand
 OpenBabel11021811473D
libRbt.so/2013.1/901 2013/11/27
 10  9  0  0  0  0  0  0  0  0999 V2000
   16.2980   22.2522   14.9241 N   0  0  0  0  0  0  0  0  0  0  0  0
   15.6457   21.4628   13.8421 C   0  0  2  0  0  0  0  0  0  0  0  0
   16.4363   20.2021   13.4916 C   0  0  0  0  0  0  0  0  0  0  0  0
   17.5198   19.9410   14.0243 O   0  0  0  0  0  0  0  0  0  0  0  0
   15.4105   22.3294   12.6022 C   0  0  0  0  0  0  0  0  0  0  0  0
   14.4755   23.5094   12.8321 C   0  0  0  0  0  0  0  0  0  0  0  0
   14.2419   24.2872   11.5373 C   0  0  0  0  0  0  0  0  0  0  0  0
   13.2826   25.4541   11.7430 C   0  0  0  0  0  0  0  0  0  0  0  0
   11.9183   25.0137   12.1579 N   0  0  0  0  0  0  0  0  0  0  0  0
   15.9946   19.3946   12.6768 O   0  0  0  0  0  0  0  0  0  0  0  0
  2  1  1  1  0  0  0
  2  3  1  0  0  0  0
  2  5  1  0  0  0  0
  3  4  1  0  0  0  0
  3 10  1  0  0  0  0
  5  6  1  0  0  0  0
  6  7  1  0  0  0  0
  7  8  1  0  0  0  0
  8  9  1  0  0  0  0
M  END
>  <CHROM.1>
-3.23145667,-62.20533977,-177.45659502,178.71645791,-62.93268018,15.14581175
22.34609362,12.97983465,-0.48313750,-0.85786916,0.61308836

>  <Name>
ligand

>  <RI>
0

>  <Rbt.Current_Directory>
/home/itssahil/PROJECTS/Mol_Feturizer/New_Systems/rnas/3DJ2

>  <Rbt.Executable>
rbdock ($Id: //depot/dev/client3/rdock/2013.1/src/exe/rbdock.cxx#4 $)

>  <Rbt.Library>
libRbt.so (2013.1, Build901 2013/11/27)

>  <Rbt.Parameter_File>
/export/apps/rDock/src/rDock_2013.1_src/data/scripts/dock_solv.prm

>  <Rbt.Receptor>
prm/blind_docking_40.prm

>  <SCORE>
-1.16208

>  <SCORE.INTER>
-0.120128

>  <SCORE.INTER.CONST>
1

>  <SCORE.INTER.POLAR>
0

>  <SCORE.INTER.ROT>
5

>  <SCORE.INTER.SOLV>
4.85519

>  <SCORE.INTER.VDW>
-8.63182

>  <SCORE.INTER.norm>
-0.0120128

>  <SCORE.INTRA>
-1.04196

>  <SCORE.INTRA.DIHEDRAL>
-2.65416

>  <SCORE.INTRA.DIHEDRAL.0>
4.28128

>  <SCORE.INTRA.POLAR>
0

>  <SCORE.INTRA.POLAR.0>
0

>  <SCORE.INTRA.REPUL>
0

>  <SCORE.INTRA.REPUL.0>
0

>  <SCORE.INTRA.SOLV>
0.432541

>  <SCORE.INTRA.SOLV.lig_0>
-32.3374

>  <SCORE.INTRA.VDW>
0.0688531

>  <SCORE.INTRA.VDW.0>
-0.659551

>  <SCORE.INTRA.norm>
-0.104196

>  <SCORE.RESTR>
0

>  <SCORE.RESTR.CAVITY>
0

>  <SCORE.RESTR.norm>
0

>  <SCORE.SYSTEM>
0

>  <SCORE.SYSTEM.CONST>
0

>  <SCORE.SYSTEM.DIHEDRAL>
0

>  <SCORE.SYSTEM.SOLV>
0

>  <SCORE.SYSTEM.norm>
0

>  <SCORE.heavy>
10

>  <SCORE.norm>
-0.116208

>  <RMSD>
18.941

$$$$
ligand
 OpenBabel11021811473D
libRbt.so/2013.1/901 2013/11/27
 10  9  0  0  0  0  0  0  0  0999 V2000
   16.5304   36.4992   20.4694 N   0  0  0  0  0  0  0  0  0  0  0  0
   17.0794   35.1145   20.4489 C   0  0  2  0  0  0  0  0  0  0  0  0
   18.1695   34.9109   21.5012 C   0  0  0  0  0  0  0  0  0  0  0  0
   18.4591   33.7907   21.9339 O   0  0  0  0  0  0  0  0  0  0  0  0
   17.5867   34.7507   19.0510 C   0  0  0  0  0  0  0  0  0  0  0  0
   16.5135   34.7733   17.9707 C   0  0  0  0  0  0  0  0  0  0  0  0
   17.0644   34.2702   16.6367 C   0  0  0  0  0  0  0  0  0  0  0  0
   15.9827   34.2099   15.5640 C   0  0  0  0  0  0  0  0  0  0  0  0
   16.4713   33.6180   14.2841 N   0  0  0  0  0  0  0  0  0  0  0  0
   18.8094   35.8687   21.9306 O   0  0  0  0  0  0  0  0  0  0  0  0
  2  1  1  6  0  0  0
  2  3  1  0  0  0  0
  2  5  1  0  0  0  0
  3  4  1  0  0  0  0
  3 10  1  0  0  0  0
  5  6  1  0  0  0  0
  6  7  1  0  0  0  0
  7  8  1  0  0  0  0
  8  9  1  0  0  0  0
M  END
>  <CHROM.1>
157.28795493,-61.26479625,-174.48836674,176.69857876,-175.36880003,17.29353353
34.77765875,19.01552724,1.11393507,-0.91994009,1.02048960

>  <Name>
ligand

>  <RI>
0

>  <Rbt.Current_Directory>
/home/itssahil/PROJECTS/Mol_Feturizer/New_Systems/rnas/3DJ2

>  <Rbt.Executable>
rbdock ($Id: //depot/dev/client3/rdock/2013.1/src/exe/rbdock.cxx#4 $)

>  <Rbt.Library>
libRbt.so (2013.1, Build901 2013/11/27)

>  <Rbt.Parameter_File>
/export/apps/rDock/src/rDock_2013.1_src/data/scripts/dock_solv.prm

>  <Rbt.Receptor>
prm/blind_docking_100.prm

>  <SCORE>
-2.775

>  <SCORE.INTER>
-1.12639

>  <SCORE.INTER.CONST>
1

>  <SCORE.INTER.POLAR>
0

>  <SCORE.INTER.ROT>
5

>  <SCORE.INTER.SOLV>
7.64738

>  <SCORE.INTER.VDW>
-10.2334

>  <SCORE.INTER.norm>
-0.112639

>  <SCORE.INTRA>
-1.64861

>  <SCORE.INTRA.DIHEDRAL>
-2.54116

>  <SCORE.INTRA.DIHEDRAL.0>
4.28128

>  <SCORE.INTRA.POLAR>
0

>  <SCORE.INTRA.POLAR.0>
0

>  <SCORE.INTRA.REPUL>
0

>  <SCORE.INTRA.REPUL.0>
0

>  <SCORE.INTRA.SOLV>
-0.478669

>  <SCORE.INTRA.SOLV.lig_0>
-32.3374

>  <SCORE.INTRA.VDW>
-0.138695

>  <SCORE.INTRA.VDW.0>
-0.659551

>  <SCORE.INTRA.norm>
-0.164861

>  <SCORE.RESTR>
0

>  <SCORE.RESTR.CAVITY>
0

>  <SCORE.RESTR.norm>
0

>  <SCORE.SYSTEM>
0

>  <SCORE.SYSTEM.CONST>
0

>  <SCORE.SYSTEM.DIHEDRAL>
0

>  <SCORE.SYSTEM.SOLV>
0

>  <SCORE.SYSTEM.norm>
0

>  <SCORE.heavy>
10

>  <SCORE.norm>
-0.2775

>  <RMSD>
23.315

$$$$
ligand
 OpenBabel11021811473D
libRbt.so/2013.1/901 2013/11/27
 10  9  0  0  0  0  0  0  0  0999 V2000
   16.4504   35.4093   19.5615 N   0  0  0  0  0  0  0  0  0  0  0  0
   16.5427   36.2553   20.7842 C   0  0  2  0  0  0  0  0  0  0  0  0
   16.2543   37.7275   20.4898 C   0  0  0  0  0  0  0  0  0  0  0  0
   16.1525   38.5663   21.3909 O   0  0  0  0  0  0  0  0  0  0  0  0
   17.9043   36.0844   21.4628 C   0  0  0  0  0  0  0  0  0  0  0  0
   18.3082   34.6350   21.6984 C   0  0  0  0  0  0  0  0  0  0  0  0
   17.3467   33.9458   22.6661 C   0  0  0  0  0  0  0  0  0  0  0  0
   17.7795   32.5164   22.9725 C   0  0  0  0  0  0  0  0  0  0  0  0
   16.8071   31.7928   23.8432 N   0  0  0  0  0  0  0  0  0  0  0  0
   16.1388   38.1214   19.3312 O   0  0  0  0  0  0  0  0  0  0  0  0
  2  1  1  6  0  0  0
  2  3  1  0  0  0  0
  2  5  1  0  0  0  0
  3  4  1  0  0  0  0
  3 10  1  0  0  0  0
  5  6  1  0  0  0  0
  6  7  1  0  0  0  0
  7  8  1  0  0  0  0
  8  9  1  0  0  0  0
M  END
>  <CHROM.1>
172.78188477,-50.41692955,-63.72679727,-176.89168527,-176.15518536,16.95878926
35.54819916,21.40819458,-3.13493499,-1.38043192,1.07017145

>  <Name>
ligand

>  <RI>
0

>  <Rbt.Current_Directory>
/home/itssahil/PROJECTS/Mol_Feturizer/New_Systems/rnas/3DJ2

>  <Rbt.Executable>
rbdock ($Id: //depot/dev/client3/rdock/2013.1/src/exe/rbdock.cxx#4 $)

>  <Rbt.Library>
libRbt.so (2013.1, Build901 2013/11/27)

>  <Rbt.Parameter_File>
/export/apps/rDock/src/rDock_2013.1_src/data/scripts/dock_solv.prm

>  <Rbt.Receptor>
prm/blind_docking_80.prm

>  <SCORE>
-2.74592

>  <SCORE.INTER>
-2.12008

>  <SCORE.INTER.CONST>
1

>  <SCORE.INTER.POLAR>
0

>  <SCORE.INTER.ROT>
5

>  <SCORE.INTER.SOLV>
4.54086

>  <SCORE.INTER.VDW>
-9.86034

>  <SCORE.INTER.norm>
-0.212008

>  <SCORE.INTRA>
-0.629285

>  <SCORE.INTRA.DIHEDRAL>
-2.29653

>  <SCORE.INTRA.DIHEDRAL.0>
4.28128

>  <SCORE.INTRA.POLAR>
0

>  <SCORE.INTRA.POLAR.0>
0

>  <SCORE.INTRA.REPUL>
0

>  <SCORE.INTRA.REPUL.0>
0

>  <SCORE.INTRA.SOLV>
0.335224

>  <SCORE.INTRA.SOLV.lig_0>
-32.3374

>  <SCORE.INTRA.VDW>
0.35137

>  <SCORE.INTRA.VDW.0>
-0.659551

>  <SCORE.INTRA.norm>
-0.0629285

>  <SCORE.RESTR>
0.00344007

>  <SCORE.RESTR.CAVITY>
0.00344007

>  <SCORE.RESTR.norm>
0.000344007

>  <SCORE.SYSTEM>
0

>  <SCORE.SYSTEM.CONST>
0

>  <SCORE.SYSTEM.DIHEDRAL>
0

>  <SCORE.SYSTEM.SOLV>
0

>  <SCORE.SYSTEM.norm>
0

>  <SCORE.heavy>
10

>  <SCORE.norm>
-0.274592

>  <RMSD>
24.097

$$$$
ligand
 OpenBabel11021811473D
libRbt.so/2013.1/901 2013/11/27
 10  9  0  0  0  0  0  0  0  0999 V2000
   10.5692   27.9447   14.3472 N   0  0  0  0  0  0  0  0  0  0  0  0
   11.7684   28.7815   14.6312 C   0  0  2  0  0  0  0  0  0  0  0  0
   11.6120   29.5960   15.9155 C   0  0  0  0  0  0  0  0  0  0  0  0
   10.5085   29.9832   16.3134 O   0  0  0  0  0  0  0  0  0  0  0  0
   12.0953   29.6862   13.4402 C   0  0  0  0  0  0  0  0  0  0  0  0
   13.4702   30.3376   13.5085 C   0  0  0  0  0  0  0  0  0  0  0  0
   13.6901   31.2844   12.3289 C   0  0  0  0  0  0  0  0  0  0  0  0
   15.0907   31.8864   12.3395 C   0  0  0  0  0  0  0  0  0  0  0  0
   15.3526   32.7179   13.5509 N   0  0  0  0  0  0  0  0  0  0  0  0
   12.5923   29.8685   16.6052 O   0  0  0  0  0  0  0  0  0  0  0  0
  2  1  1  6  0  0  0
  2  3  1  0  0  0  0
  2  5  1  0  0  0  0
  3  4  1  0  0  0  0
  3 10  1  0  0  0  0
  5  6  1  0  0  0  0
  6  7  1  0  0  0  0
  7  8  1  0  0  0  0
  8  9  1  0  0  0  0
M  END
>  <CHROM.1>
-29.93922072,-166.77306413,-176.75591519,-176.84418515,-62.17148417,12.66507555
30.21964091,14.33310189,2.76935551,0.75069228,1.30470303

>  <Name>
ligand

>  <RI>
0

>  <Rbt.Current_Directory>
/home/itssahil/PROJECTS/Mol_Feturizer/New_Systems/rnas/3DJ2

>  <Rbt.Executable>
rbdock ($Id: //depot/dev/client3/rdock/2013.1/src/exe/rbdock.cxx#4 $)

>  <Rbt.Library>
libRbt.so (2013.1, Build901 2013/11/27)

>  <Rbt.Parameter_File>
/export/apps/rDock/src/rDock_2013.1_src/data/scripts/dock_solv.prm

>  <Rbt.Receptor>
prm/blind_docking_40.prm

>  <SCORE>
-0.136281

>  <SCORE.INTER>
1.22922

>  <SCORE.INTER.CONST>
1

>  <SCORE.INTER.POLAR>
0

>  <SCORE.INTER.ROT>
5

>  <SCORE.INTER.SOLV>
5.60474

>  <SCORE.INTER.VDW>
-7.9821

>  <SCORE.INTER.norm>
0.122922

>  <SCORE.INTRA>
-1.3655

>  <SCORE.INTRA.DIHEDRAL>
-1.97941

>  <SCORE.INTRA.DIHEDRAL.0>
4.28128

>  <SCORE.INTRA.POLAR>
0

>  <SCORE.INTRA.POLAR.0>
0

>  <SCORE.INTRA.REPUL>
0

>  <SCORE.INTRA.REPUL.0>
0

>  <SCORE.INTRA.SOLV>
-0.422621

>  <SCORE.INTRA.SOLV.lig_0>
-32.3374

>  <SCORE.INTRA.VDW>
-0.164485

>  <SCORE.INTRA.VDW.0>
-0.659551

>  <SCORE.INTRA.norm>
-0.13655

>  <SCORE.RESTR>
0

>  <SCORE.RESTR.CAVITY>
0

>  <SCORE.RESTR.norm>
0

>  <SCORE.SYSTEM>
0

>  <SCORE.SYSTEM.CONST>
0

>  <SCORE.SYSTEM.DIHEDRAL>
0

>  <SCORE.SYSTEM.SOLV>
0

>  <SCORE.SYSTEM.norm>
0

>  <SCORE.heavy>
10

>  <SCORE.norm>
-0.0136281

>  <RMSD>
24.304

$$$$
ligand
 OpenBabel11021811473D
libRbt.so/2013.1/901 2013/11/27
 10  9  0  0  0  0  0  0  0  0999 V2000
   16.0998   36.7953   19.2246 N   0  0  0  0  0  0  0  0  0  0  0  0
   16.1558   37.2020   20.6566 C   0  0  2  0  0  0  0  0  0  0  0  0
   16.1874   38.7213   20.8235 C   0  0  0  0  0  0  0  0  0  0  0  0
   17.0978   39.4115   20.3538 O   0  0  0  0  0  0  0  0  0  0  0  0
   17.3439   36.5442   21.3633 C   0  0  0  0  0  0  0  0  0  0  0  0
   17.2621   35.0255   21.4420 C   0  0  0  0  0  0  0  0  0  0  0  0
   18.3830   34.4581   22.3125 C   0  0  0  0  0  0  0  0  0  0  0  0
   18.3520   32.9343   22.3535 C   0  0  0  0  0  0  0  0  0  0  0  0
   17.1181   32.3993   23.0005 N   0  0  0  0  0  0  0  0  0  0  0  0
   15.2819   39.3031   21.4175 O   0  0  0  0  0  0  0  0  0  0  0  0
  2  1  1  6  0  0  0
  2  3  1  0  0  0  0
  2  5  1  0  0  0  0
  3  4  1  0  0  0  0
  3 10  1  0  0  0  0
  5  6  1  0  0  0  0
  6  7  1  0  0  0  0
  7  8  1  0  0  0  0
  8  9  1  0  0  0  0
M  END
>  <CHROM.1>
-60.68700941,-64.22548049,-172.66672393,-177.54188476,-64.39983714,16.92370596
36.32450465,21.29469277,2.60999408,-1.24953769,0.69750588

>  <Name>
ligand

>  <RI>
0

>  <Rbt.Current_Directory>
/home/itssahil/PROJECTS/Mol_Feturizer/New_Systems/rnas/3DJ2

>  <Rbt.Executable>
rbdock ($Id: //depot/dev/client3/rdock/2013.1/src/exe/rbdock.cxx#4 $)

>  <Rbt.Library>
libRbt.so (2013.1, Build901 2013/11/27)

>  <Rbt.Parameter_File>
/export/apps/rDock/src/rDock_2013.1_src/data/scripts/dock_solv.prm

>  <Rbt.Receptor>
prm/blind_docking_80.prm

>  <SCORE>
-4.04301

>  <SCORE.INTER>
-2.91455

>  <SCORE.INTER.CONST>
1

>  <SCORE.INTER.POLAR>
0

>  <SCORE.INTER.ROT>
5

>  <SCORE.INTER.SOLV>
6.40868

>  <SCORE.INTER.VDW>
-11.0126

>  <SCORE.INTER.norm>
-0.291455

>  <SCORE.INTRA>
-1.12845

>  <SCORE.INTRA.DIHEDRAL>
-2.36097

>  <SCORE.INTRA.DIHEDRAL.0>
4.28128

>  <SCORE.INTRA.POLAR>
0

>  <SCORE.INTRA.POLAR.0>
0

>  <SCORE.INTRA.REPUL>
0

>  <SCORE.INTRA.REPUL.0>
0

>  <SCORE.INTRA.SOLV>
0.332711

>  <SCORE.INTRA.SOLV.lig_0>
-32.3374

>  <SCORE.INTRA.VDW>
-0.114325

>  <SCORE.INTRA.VDW.0>
-0.659551

>  <SCORE.INTRA.norm>
-0.112845

>  <SCORE.RESTR>
0

>  <SCORE.RESTR.CAVITY>
0

>  <SCORE.RESTR.norm>
0

>  <SCORE.SYSTEM>
0

>  <SCORE.SYSTEM.CONST>
0

>  <SCORE.SYSTEM.DIHEDRAL>
0

>  <SCORE.SYSTEM.SOLV>
0

>  <SCORE.SYSTEM.norm>
0

>  <SCORE.heavy>
10

>  <SCORE.norm>
-0.404301

>  <RMSD>
24.751

$$$$
ligand
 OpenBabel11021811473D
libRbt.so/2013.1/901 2013/11/27
 10  9  0  0  0  0  0  0  0  0999 V2000
   14.0200   37.0191   20.4424 N   0  0  0  0  0  0  0  0  0  0  0  0
   15.3712   37.6070   20.2230 C   0  0  2  0  0  0  0  0  0  0  0  0
   15.4776   39.0289   20.7744 C   0  0  0  0  0  0  0  0  0  0  0  0
   16.5650   39.6013   20.9003 O   0  0  0  0  0  0  0  0  0  0  0  0
   15.7510   37.5599   18.7407 C   0  0  0  0  0  0  0  0  0  0  0  0
   15.9037   36.1528   18.1786 C   0  0  0  0  0  0  0  0  0  0  0  0
   17.0692   35.4187   18.8411 C   0  0  0  0  0  0  0  0  0  0  0  0
   17.3086   34.0512   18.2109 C   0  0  0  0  0  0  0  0  0  0  0  0
   16.1871   33.0978   18.4571 N   0  0  0  0  0  0  0  0  0  0  0  0
   14.4668   39.6542   21.0879 O   0  0  0  0  0  0  0  0  0  0  0  0
  2  1  1  6  0  0  0
  2  3  1  0  0  0  0
  2  5  1  0  0  0  0
  3  4  1  0  0  0  0
  3 10  1  0  0  0  0
  5  6  1  0  0  0  0
  6  7  1  0  0  0  0
  7  8  1  0  0  0  0
  8  9  1  0  0  0  0
M  END
>  <CHROM.1>
167.30130684,-64.61484827,-64.68862742,-175.32380278,-66.72328295,15.81186500
36.96028487,19.60352204,1.82808160,0.30400552,0.37753345

>  <Name>
ligand

>  <RI>
0

>  <Rbt.Current_Directory>
/home/itssahil/PROJECTS/Mol_Feturizer/New_Systems/rnas/3DJ2

>  <Rbt.Executable>
rbdock ($Id: //depot/dev/client3/rdock/2013.1/src/exe/rbdock.cxx#4 $)

>  <Rbt.Library>
libRbt.so (2013.1, Build901 2013/11/27)

>  <Rbt.Parameter_File>
/export/apps/rDock/src/rDock_2013.1_src/data/scripts/dock_solv.prm

>  <Rbt.Receptor>
prm/blind_docking_100.prm

>  <SCORE>
-2.59883

>  <SCORE.INTER>
-2.01498

>  <SCORE.INTER.CONST>
1

>  <SCORE.INTER.POLAR>
0

>  <SCORE.INTER.ROT>
5

>  <SCORE.INTER.SOLV>
7.08899

>  <SCORE.INTER.VDW>
-10.6396

>  <SCORE.INTER.norm>
-0.201498

>  <SCORE.INTRA>
-0.583854

>  <SCORE.INTRA.DIHEDRAL>
-2.34279

>  <SCORE.INTRA.DIHEDRAL.0>
4.28128

>  <SCORE.INTRA.POLAR>
0

>  <SCORE.INTRA.POLAR.0>
0

>  <SCORE.INTRA.REPUL>
0

>  <SCORE.INTRA.REPUL.0>
0

>  <SCORE.INTRA.SOLV>
0.846404

>  <SCORE.INTRA.SOLV.lig_0>
-32.3374

>  <SCORE.INTRA.VDW>
0.164338

>  <SCORE.INTRA.VDW.0>
-0.659551

>  <SCORE.INTRA.norm>
-0.0583854

>  <SCORE.RESTR>
0

>  <SCORE.RESTR.CAVITY>
0

>  <SCORE.RESTR.norm>
0

>  <SCORE.SYSTEM>
0

>  <SCORE.SYSTEM.CONST>
0

>  <SCORE.SYSTEM.DIHEDRAL>
0

>  <SCORE.SYSTEM.SOLV>
0

>  <SCORE.SYSTEM.norm>
0

>  <SCORE.heavy>
10

>  <SCORE.norm>
-0.259883

>  <RMSD>
25.895

$$$$
ligand
 OpenBabel11021811473D
libRbt.so/2013.1/901 2013/11/27
 10  9  0  0  0  0  0  0  0  0999 V2000
    9.8587   39.1413   18.5574 N   0  0  0  0  0  0  0  0  0  0  0  0
   11.3249   39.0055   18.7833 C   0  0  2  0  0  0  0  0  0  0  0  0
   11.8706   37.6818   18.2473 C   0  0  0  0  0  0  0  0  0  0  0  0
   12.6479   37.6359   17.2883 O   0  0  0  0  0  0  0  0  0  0  0  0
   11.6662   39.1838   20.2651 C   0  0  0  0  0  0  0  0  0  0  0  0
   13.1469   39.4059   20.5435 C   0  0  0  0  0  0  0  0  0  0  0  0
   13.9387   38.1090   20.3785 C   0  0  0  0  0  0  0  0  0  0  0  0
   15.4336   38.3286   20.5822 C   0  0  0  0  0  0  0  0  0  0  0  0
   16.2307   37.0802   20.3990 N   0  0  0  0  0  0  0  0  0  0  0  0
   11.5631   36.6180   18.7808 O   0  0  0  0  0  0  0  0  0  0  0  0
  2  1  1  1  0  0  0
  2  3  1  0  0  0  0
  2  5  1  0  0  0  0
  3  4  1  0  0  0  0
  3 10  1  0  0  0  0
  5  6  1  0  0  0  0
  6  7  1  0  0  0  0
  7  8  1  0  0  0  0
  8  9  1  0  0  0  0
M  END
>  <CHROM.1>
112.86974607,-165.57865209,-73.90805253,177.01132664,-178.85589135,12.77265894
38.19054866,19.36534147,2.93214856,0.37805352,-2.33357903

>  <Name>
ligand

>  <RI>
0

>  <Rbt.Current_Directory>
/home/itssahil/PROJECTS/Mol_Feturizer/New_Systems/rnas/3DJ2

>  <Rbt.Executable>
rbdock ($Id: //depot/dev/client3/rdock/2013.1/src/exe/rbdock.cxx#4 $)

>  <Rbt.Library>
libRbt.so (2013.1, Build901 2013/11/27)

>  <Rbt.Parameter_File>
/export/apps/rDock/src/rDock_2013.1_src/data/scripts/dock_solv.prm

>  <Rbt.Receptor>
prm/blind_docking_100.prm

>  <SCORE>
-3.46004

>  <SCORE.INTER>
-2.29822

>  <SCORE.INTER.CONST>
1

>  <SCORE.INTER.POLAR>
0

>  <SCORE.INTER.ROT>
5

>  <SCORE.INTER.SOLV>
6.56292

>  <SCORE.INTER.VDW>
-10.6531

>  <SCORE.INTER.norm>
-0.229822

>  <SCORE.INTRA>
-1.16182

>  <SCORE.INTRA.DIHEDRAL>
-1.17595

>  <SCORE.INTRA.DIHEDRAL.0>
4.28128

>  <SCORE.INTRA.POLAR>
0

>  <SCORE.INTRA.POLAR.0>
0

>  <SCORE.INTRA.REPUL>
0

>  <SCORE.INTRA.REPUL.0>
0

>  <SCORE.INTRA.SOLV>
-1.23617

>  <SCORE.INTRA.SOLV.lig_0>
-32.3374

>  <SCORE.INTRA.VDW>
0.0442434

>  <SCORE.INTRA.VDW.0>
-0.659551

>  <SCORE.INTRA.norm>
-0.116182

>  <SCORE.RESTR>
0

>  <SCORE.RESTR.CAVITY>
0

>  <SCORE.RESTR.norm>
0

>  <SCORE.SYSTEM>
0

>  <SCORE.SYSTEM.CONST>
0

>  <SCORE.SYSTEM.DIHEDRAL>
0

>  <SCORE.SYSTEM.SOLV>
0

>  <SCORE.SYSTEM.norm>
0

>  <SCORE.heavy>
10

>  <SCORE.norm>
-0.346004

>  <RMSD>
28.932

$$$$
ligand
 OpenBabel11021811473D
libRbt.so/2013.1/901 2013/11/27
 10  9  0  0  0  0  0  0  0  0999 V2000
   -1.0393   41.1468   10.4745 N   0  0  0  0  0  0  0  0  0  0  0  0
   -0.0019   40.7162    9.4958 C   0  0  2  0  0  0  0  0  0  0  0  0
    1.0108   41.8238    9.2045 C   0  0  0  0  0  0  0  0  0  0  0  0
    2.2287   41.6327    9.2827 O   0  0  0  0  0  0  0  0  0  0  0  0
   -0.6492   40.2066    8.2055 C   0  0  0  0  0  0  0  0  0  0  0  0
   -1.6126   39.0442    8.4057 C   0  0  0  0  0  0  0  0  0  0  0  0
   -2.2329   38.6083    7.0786 C   0  0  0  0  0  0  0  0  0  0  0  0
   -3.2687   37.5064    7.2726 C   0  0  0  0  0  0  0  0  0  0  0  0
   -3.8351   37.0131    5.9829 N   0  0  0  0  0  0  0  0  0  0  0  0
    0.6320   42.9404    8.8573 O   0  0  0  0  0  0  0  0  0  0  0  0
  2  1  1  1  0  0  0
  2  3  1  0  0  0  0
  2  5  1  0  0  0  0
  3  4  1  0  0  0  0
  3 10  1  0  0  0  0
  5  6  1  0  0  0  0
  6  7  1  0  0  0  0
  7  8  1  0  0  0  0
  8  9  1  0  0  0  0
M  END
>  <CHROM.1>
128.58071251,-57.95069896,179.08472967,-176.25023171,-176.91016301,-0.84508322
40.09647871,8.42531876,0.71255849,0.56071055,1.08322264

>  <Name>
ligand

>  <RI>
0

>  <Rbt.Current_Directory>
/home/itssahil/PROJECTS/Mol_Feturizer/New_Systems/rnas/3DJ2

>  <Rbt.Executable>
rbdock ($Id: //depot/dev/client3/rdock/2013.1/src/exe/rbdock.cxx#4 $)

>  <Rbt.Library>
libRbt.so (2013.1, Build901 2013/11/27)

>  <Rbt.Parameter_File>
/export/apps/rDock/src/rDock_2013.1_src/data/scripts/dock_solv.prm

>  <Rbt.Receptor>
prm/blind_docking_80.prm

>  <SCORE>
-4.7917

>  <SCORE.INTER>
-3.10476

>  <SCORE.INTER.CONST>
1

>  <SCORE.INTER.POLAR>
0

>  <SCORE.INTER.ROT>
5

>  <SCORE.INTER.SOLV>
13.2009

>  <SCORE.INTER.VDW>
-13.4035

>  <SCORE.INTER.norm>
-0.310476

>  <SCORE.INTRA>
-1.68694

>  <SCORE.INTRA.DIHEDRAL>
-2.66564

>  <SCORE.INTRA.DIHEDRAL.0>
4.28128

>  <SCORE.INTRA.POLAR>
0

>  <SCORE.INTRA.POLAR.0>
0

>  <SCORE.INTRA.REPUL>
0

>  <SCORE.INTRA.REPUL.0>
0

>  <SCORE.INTRA.SOLV>
-0.425568

>  <SCORE.INTRA.SOLV.lig_0>
-32.3374

>  <SCORE.INTRA.VDW>
-0.141333

>  <SCORE.INTRA.VDW.0>
-0.659551

>  <SCORE.INTRA.norm>
-0.168694

>  <SCORE.RESTR>
0

>  <SCORE.RESTR.CAVITY>
0

>  <SCORE.RESTR.norm>
0

>  <SCORE.SYSTEM>
0

>  <SCORE.SYSTEM.CONST>
0

>  <SCORE.SYSTEM.DIHEDRAL>
0

>  <SCORE.SYSTEM.SOLV>
0

>  <SCORE.SYSTEM.norm>
0

>  <SCORE.heavy>
10

>  <SCORE.norm>
-0.47917

>  <RMSD>
41.643

$$$$
ligand
 OpenBabel11021811473D
libRbt.so/2013.1/901 2013/11/27
 10  9  0  0  0  0  0  0  0  0999 V2000
   -1.9738   39.5225    9.5484 N   0  0  0  0  0  0  0  0  0  0  0  0
   -0.9862   40.4817    8.9792 C   0  0  2  0  0  0  0  0  0  0  0  0
   -0.1513   39.8547    7.8625 C   0  0  0  0  0  0  0  0  0  0  0  0
    0.7398   39.0318    8.0962 O   0  0  0  0  0  0  0  0  0  0  0  0
   -0.0919   41.0591   10.0794 C   0  0  0  0  0  0  0  0  0  0  0  0
    0.9076   42.0995    9.5913 C   0  0  0  0  0  0  0  0  0  0  0  0
    0.3487   43.5139    9.7436 C   0  0  0  0  0  0  0  0  0  0  0  0
    1.3915   44.5740    9.4074 C   0  0  0  0  0  0  0  0  0  0  0  0
    2.5714   44.5331   10.3204 N   0  0  0  0  0  0  0  0  0  0  0  0
   -0.3661   40.1410    6.6865 O   0  0  0  0  0  0  0  0  0  0  0  0
  2  1  1  1  0  0  0
  2  3  1  0  0  0  0
  2  5  1  0  0  0  0
  3  4  1  0  0  0  0
  3 10  1  0  0  0  0
  5  6  1  0  0  0  0
  6  7  1  0  0  0  0
  7  8  1  0  0  0  0
  8  9  1  0  0  0  0
M  END
>  <CHROM.1>
-73.55940639,-177.35927190,93.98421062,173.60522903,-62.36677466,0.25180838
41.45837998,9.00244932,2.15662223,-0.73065436,-2.36381322

>  <Name>
ligand

>  <RI>
0

>  <Rbt.Current_Directory>
/home/itssahil/PROJECTS/Mol_Feturizer/New_Systems/rnas/3DJ2

>  <Rbt.Executable>
rbdock ($Id: //depot/dev/client3/rdock/2013.1/src/exe/rbdock.cxx#4 $)

>  <Rbt.Library>
libRbt.so (2013.1, Build901 2013/11/27)

>  <Rbt.Parameter_File>
/export/apps/rDock/src/rDock_2013.1_src/data/scripts/dock_solv.prm

>  <Rbt.Receptor>
prm/blind_docking_100.prm

>  <SCORE>
-3.87877

>  <SCORE.INTER>
-4.30956

>  <SCORE.INTER.CONST>
1

>  <SCORE.INTER.POLAR>
0

>  <SCORE.INTER.ROT>
5

>  <SCORE.INTER.SOLV>
15.5269

>  <SCORE.INTER.VDW>
-14.982

>  <SCORE.INTER.norm>
-0.430956

>  <SCORE.INTRA>
0.430794

>  <SCORE.INTRA.DIHEDRAL>
1.11347

>  <SCORE.INTRA.DIHEDRAL.0>
4.28128

>  <SCORE.INTRA.POLAR>
0

>  <SCORE.INTRA.POLAR.0>
0

>  <SCORE.INTRA.REPUL>
0

>  <SCORE.INTRA.REPUL.0>
0

>  <SCORE.INTRA.SOLV>
-0.322411

>  <SCORE.INTRA.SOLV.lig_0>
-32.3374

>  <SCORE.INTRA.VDW>
0.0352655

>  <SCORE.INTRA.VDW.0>
-0.659551

>  <SCORE.INTRA.norm>
0.0430794

>  <SCORE.RESTR>
0

>  <SCORE.RESTR.CAVITY>
0

>  <SCORE.RESTR.norm>
0

>  <SCORE.SYSTEM>
0

>  <SCORE.SYSTEM.CONST>
0

>  <SCORE.SYSTEM.DIHEDRAL>
0

>  <SCORE.SYSTEM.SOLV>
0

>  <SCORE.SYSTEM.norm>
0

>  <SCORE.heavy>
10

>  <SCORE.norm>
-0.387877

>  <RMSD>
41.710

$$$$
ligand
 OpenBabel11021811473D
libRbt.so/2013.1/901 2013/11/27
 10  9  0  0  0  0  0  0  0  0999 V2000
   -0.0595   40.0548    8.9374 N   0  0  0  0  0  0  0  0  0  0  0  0
   -0.2590   41.4273    9.4811 C   0  0  2  0  0  0  0  0  0  0  0  0
    1.0328   42.2449    9.4708 C   0  0  0  0  0  0  0  0  0  0  0  0
    2.1450   41.7090    9.4335 O   0  0  0  0  0  0  0  0  0  0  0  0
   -0.8670   41.3735   10.8851 C   0  0  0  0  0  0  0  0  0  0  0  0
   -2.2113   40.6614   10.9576 C   0  0  0  0  0  0  0  0  0  0  0  0
   -2.7338   40.6165   12.3933 C   0  0  0  0  0  0  0  0  0  0  0  0
   -4.1069   39.9590   12.4757 C   0  0  0  0  0  0  0  0  0  0  0  0
   -4.0793   38.5153   12.0984 N   0  0  0  0  0  0  0  0  0  0  0  0
    0.9940   43.4735    9.4753 O   0  0  0  0  0  0  0  0  0  0  0  0
  2  1  1  1  0  0  0
  2  3  1  0  0  0  0
  2  5  1  0  0  0  0
  3  4  1  0  0  0  0
  3 10  1  0  0  0  0
  5  6  1  0  0  0  0
  6  7  1  0  0  0  0
  7  8  1  0  0  0  0
  8  9  1  0  0  0  0
M  END
>  <CHROM.1>
-21.58783068,-58.82140348,178.48927008,177.58215154,65.20482787,-0.97659398
41.02764406,10.55318856,-0.19994623,-0.63691556,-2.72753495

>  <Name>
ligand

>  <RI>
0

>  <Rbt.Current_Directory>
/home/itssahil/PROJECTS/Mol_Feturizer/New_Systems/rnas/3DJ2

>  <Rbt.Executable>
rbdock ($Id: //depot/dev/client3/rdock/2013.1/src/exe/rbdock.cxx#4 $)

>  <Rbt.Library>
libRbt.so (2013.1, Build901 2013/11/27)

>  <Rbt.Parameter_File>
/export/apps/rDock/src/rDock_2013.1_src/data/scripts/dock_solv.prm

>  <Rbt.Receptor>
prm/blind_docking_100.prm

>  <SCORE>
-5.36977

>  <SCORE.INTER>
-4.24597

>  <SCORE.INTER.CONST>
1

>  <SCORE.INTER.POLAR>
0

>  <SCORE.INTER.ROT>
5

>  <SCORE.INTER.SOLV>
8.82317

>  <SCORE.INTER.VDW>
-12.705

>  <SCORE.INTER.norm>
-0.424597

>  <SCORE.INTRA>
-1.1238

>  <SCORE.INTRA.DIHEDRAL>
-2.57356

>  <SCORE.INTRA.DIHEDRAL.0>
4.28128

>  <SCORE.INTRA.POLAR>
0

>  <SCORE.INTRA.POLAR.0>
0

>  <SCORE.INTRA.REPUL>
0

>  <SCORE.INTRA.REPUL.0>
0

>  <SCORE.INTRA.SOLV>
0.442113

>  <SCORE.INTRA.SOLV.lig_0>
-32.3374

>  <SCORE.INTRA.VDW>
-0.0580761

>  <SCORE.INTRA.VDW.0>
-0.659551

>  <SCORE.INTRA.norm>
-0.11238

>  <SCORE.RESTR>
0

>  <SCORE.RESTR.CAVITY>
0

>  <SCORE.RESTR.norm>
0

>  <SCORE.SYSTEM>
0

>  <SCORE.SYSTEM.CONST>
0

>  <SCORE.SYSTEM.DIHEDRAL>
0

>  <SCORE.SYSTEM.SOLV>
0

>  <SCORE.SYSTEM.norm>
0

>  <SCORE.heavy>
10

>  <SCORE.norm>
-0.536977

>  <RMSD>
41.716

$$$$
ligand
 OpenBabel11021811473D
libRbt.so/2013.1/901 2013/11/27
 10  9  0  0  0  0  0  0  0  0999 V2000
    0.1974   40.1437    8.8032 N   0  0  0  0  0  0  0  0  0  0  0  0
   -0.0720   41.4967    9.3654 C   0  0  2  0  0  0  0  0  0  0  0  0
    1.1959   42.3462    9.4559 C   0  0  0  0  0  0  0  0  0  0  0  0
    1.1547   43.5804    9.4865 O   0  0  0  0  0  0  0  0  0  0  0  0
   -0.7650   41.3925   10.7265 C   0  0  0  0  0  0  0  0  0  0  0  0
   -2.0523   40.5790   10.7122 C   0  0  0  0  0  0  0  0  0  0  0  0
   -2.7350   40.6044   12.0795 C   0  0  0  0  0  0  0  0  0  0  0  0
   -4.0379   39.8128   12.0767 C   0  0  0  0  0  0  0  0  0  0  0  0
   -4.7549   39.8765   13.3840 N   0  0  0  0  0  0  0  0  0  0  0  0
    2.3011   41.8127    9.5254 O   0  0  0  0  0  0  0  0  0  0  0  0
  2  1  1  1  0  0  0
  2  3  1  0  0  0  0
  2  5  1  0  0  0  0
  3  4  1  0  0  0  0
  3 10  1  0  0  0  0
  5  6  1  0  0  0  0
  6  7  1  0  0  0  0
  7  8  1  0  0  0  0
  8  9  1  0  0  0  0
M  END
>  <CHROM.1>
156.97279979,-55.56675282,-175.94567011,179.07990495,-177.30726518,-0.91844013
41.18840091,10.55618894,-0.05557460,-0.62343152,-2.63257397

>  <Name>
ligand

>  <RI>
0

>  <Rbt.Current_Directory>
/home/itssahil/PROJECTS/Mol_Feturizer/New_Systems/rnas/3DJ2

>  <Rbt.Executable>
rbdock ($Id: //depot/dev/client3/rdock/2013.1/src/exe/rbdock.cxx#4 $)

>  <Rbt.Library>
libRbt.so (2013.1, Build901 2013/11/27)

>  <Rbt.Parameter_File>
/export/apps/rDock/src/rDock_2013.1_src/data/scripts/dock_solv.prm

>  <Rbt.Receptor>
prm/blind_docking_80.prm

>  <SCORE>
-5.62679

>  <SCORE.INTER>
-4.02807

>  <SCORE.INTER.CONST>
1

>  <SCORE.INTER.POLAR>
0

>  <SCORE.INTER.ROT>
5

>  <SCORE.INTER.SOLV>
9.18093

>  <SCORE.INTER.VDW>
-12.679

>  <SCORE.INTER.norm>
-0.402807

>  <SCORE.INTRA>
-1.59871

>  <SCORE.INTRA.DIHEDRAL>
-2.63926

>  <SCORE.INTRA.DIHEDRAL.0>
4.28128

>  <SCORE.INTRA.POLAR>
0

>  <SCORE.INTRA.POLAR.0>
0

>  <SCORE.INTRA.REPUL>
0

>  <SCORE.INTRA.REPUL.0>
0

>  <SCORE.INTRA.SOLV>
-0.402536

>  <SCORE.INTRA.SOLV.lig_0>
-32.3374

>  <SCORE.INTRA.VDW>
-0.0778159

>  <SCORE.INTRA.VDW.0>
-0.659551

>  <SCORE.INTRA.norm>
-0.159871

>  <SCORE.RESTR>
0

>  <SCORE.RESTR.CAVITY>
0

>  <SCORE.RESTR.norm>
0

>  <SCORE.SYSTEM>
0

>  <SCORE.SYSTEM.CONST>
0

>  <SCORE.SYSTEM.DIHEDRAL>
0

>  <SCORE.SYSTEM.SOLV>
0

>  <SCORE.SYSTEM.norm>
0

>  <SCORE.heavy>
10

>  <SCORE.norm>
-0.562679

>  <RMSD>
41.775

$$$$
ligand
 OpenBabel11021811473D
libRbt.so/2013.1/901 2013/11/27
 10  9  0  0  0  0  0  0  0  0999 V2000
    0.2425   40.1449    8.8204 N   0  0  0  0  0  0  0  0  0  0  0  0
   -0.0666   41.4964    9.3653 C   0  0  2  0  0  0  0  0  0  0  0  0
    1.1763   42.3829    9.4476 C   0  0  0  0  0  0  0  0  0  0  0  0
    2.3077   41.9097    9.5951 O   0  0  0  0  0  0  0  0  0  0  0  0
   -0.7592   41.3892   10.7264 C   0  0  0  0  0  0  0  0  0  0  0  0
   -2.0477   40.5775   10.7102 C   0  0  0  0  0  0  0  0  0  0  0  0
   -2.7310   40.6019   12.0772 C   0  0  0  0  0  0  0  0  0  0  0  0
   -4.0383   39.8174   12.0708 C   0  0  0  0  0  0  0  0  0  0  0  0
   -4.7728   39.9089   13.3667 N   0  0  0  0  0  0  0  0  0  0  0  0
    1.0802   43.6039    9.3435 O   0  0  0  0  0  0  0  0  0  0  0  0
  2  1  1  1  0  0  0
  2  3  1  0  0  0  0
  2  5  1  0  0  0  0
  3  4  1  0  0  0  0
  3 10  1  0  0  0  0
  5  6  1  0  0  0  0
  6  7  1  0  0  0  0
  7  8  1  0  0  0  0
  8  9  1  0  0  0  0
M  END
>  <CHROM.1>
-28.10032360,-57.49866803,-175.84510456,178.82042576,-175.84920842,-0.92322568
41.20820990,10.54615312,-0.08774601,-0.62453923,-2.68184590

>  <Name>
ligand

>  <RI>
0

>  <Rbt.Current_Directory>
/home/itssahil/PROJECTS/Mol_Feturizer/New_Systems/rnas/3DJ2

>  <Rbt.Executable>
rbdock ($Id: //depot/dev/client3/rdock/2013.1/src/exe/rbdock.cxx#4 $)

>  <Rbt.Library>
libRbt.so (2013.1, Build901 2013/11/27)

>  <Rbt.Parameter_File>
/export/apps/rDock/src/rDock_2013.1_src/data/scripts/dock_solv.prm

>  <Rbt.Receptor>
prm/blind_docking_100.prm

>  <SCORE>
-5.60619

>  <SCORE.INTER>
-3.97939

>  <SCORE.INTER.CONST>
1

>  <SCORE.INTER.POLAR>
0

>  <SCORE.INTER.ROT>
5

>  <SCORE.INTER.SOLV>
9.23106

>  <SCORE.INTER.VDW>
-12.6633

>  <SCORE.INTER.norm>
-0.397939

>  <SCORE.INTRA>
-1.6268

>  <SCORE.INTRA.DIHEDRAL>
-2.54786

>  <SCORE.INTRA.DIHEDRAL.0>
4.28128

>  <SCORE.INTRA.POLAR>
0

>  <SCORE.INTRA.POLAR.0>
0

>  <SCORE.INTRA.REPUL>
0

>  <SCORE.INTRA.REPUL.0>
0

>  <SCORE.INTRA.SOLV>
-0.429692

>  <SCORE.INTRA.SOLV.lig_0>
-32.3374

>  <SCORE.INTRA.VDW>
-0.138027

>  <SCORE.INTRA.VDW.0>
-0.659551

>  <SCORE.INTRA.norm>
-0.16268

>  <SCORE.RESTR>
0

>  <SCORE.RESTR.CAVITY>
0

>  <SCORE.RESTR.norm>
0

>  <SCORE.SYSTEM>
0

>  <SCORE.SYSTEM.CONST>
0

>  <SCORE.SYSTEM.DIHEDRAL>
0

>  <SCORE.SYSTEM.SOLV>
0

>  <SCORE.SYSTEM.norm>
0

>  <SCORE.heavy>
10

>  <SCORE.norm>
-0.560619

>  <RMSD>
41.792

$$$$
ligand
 OpenBabel11021811473D
libRbt.so/2013.1/901 2013/11/27
 10  9  0  0  0  0  0  0  0  0999 V2000
    0.1075   40.0658    8.8866 N   0  0  0  0  0  0  0  0  0  0  0  0
   -0.1171   41.4333    9.4331 C   0  0  2  0  0  0  0  0  0  0  0  0
    1.1764   42.2451    9.5050 C   0  0  0  0  0  0  0  0  0  0  0  0
    2.2872   41.7150    9.4001 O   0  0  0  0  0  0  0  0  0  0  0  0
   -0.8042   41.3673   10.7996 C   0  0  0  0  0  0  0  0  0  0  0  0
   -2.1378   40.6320   10.7943 C   0  0  0  0  0  0  0  0  0  0  0  0
   -2.8066   40.6948   12.1672 C   0  0  0  0  0  0  0  0  0  0  0  0
   -4.1853   40.0440   12.1557 C   0  0  0  0  0  0  0  0  0  0  0  0
   -4.8950   40.1720   13.4623 N   0  0  0  0  0  0  0  0  0  0  0  0
    1.1404   43.4655    9.6472 O   0  0  0  0  0  0  0  0  0  0  0  0
  2  1  1  1  0  0  0
  2  3  1  0  0  0  0
  2  5  1  0  0  0  0
  3  4  1  0  0  0  0
  3 10  1  0  0  0  0
  5  6  1  0  0  0  0
  6  7  1  0  0  0  0
  7  8  1  0  0  0  0
  8  9  1  0  0  0  0
M  END
>  <CHROM.1>
-14.72690496,-57.45626856,-175.95007283,176.19069990,-176.24266483,-0.98445188
41.20616733,10.61866145,0.00514253,-0.59860073,-2.61384216

>  <Name>
ligand

>  <RI>
0

>  <Rbt.Current_Directory>
/home/itssahil/PROJECTS/Mol_Feturizer/New_Systems/rnas/3DJ2

>  <Rbt.Executable>
rbdock ($Id: //depot/dev/client3/rdock/2013.1/src/exe/rbdock.cxx#4 $)

>  <Rbt.Library>
libRbt.so (2013.1, Build901 2013/11/27)

>  <Rbt.Parameter_File>
/export/apps/rDock/src/rDock_2013.1_src/data/scripts/dock_solv.prm

>  <Rbt.Receptor>
prm/blind_docking_80.prm

>  <SCORE>
-5.57918

>  <SCORE.INTER>
-4.04373

>  <SCORE.INTER.CONST>
1

>  <SCORE.INTER.POLAR>
0

>  <SCORE.INTER.ROT>
5

>  <SCORE.INTER.SOLV>
9.22697

>  <SCORE.INTER.VDW>
-12.7048

>  <SCORE.INTER.norm>
-0.404373

>  <SCORE.INTRA>
-1.53545

>  <SCORE.INTRA.DIHEDRAL>
-2.51976

>  <SCORE.INTRA.DIHEDRAL.0>
4.28128

>  <SCORE.INTRA.POLAR>
0

>  <SCORE.INTRA.POLAR.0>
0

>  <SCORE.INTRA.REPUL>
0

>  <SCORE.INTRA.REPUL.0>
0

>  <SCORE.INTRA.SOLV>
-0.426177

>  <SCORE.INTRA.SOLV.lig_0>
-32.3374

>  <SCORE.INTRA.VDW>
-0.0624748

>  <SCORE.INTRA.VDW.0>
-0.659551

>  <SCORE.INTRA.norm>
-0.153545

>  <SCORE.RESTR>
0

>  <SCORE.RESTR.CAVITY>
0

>  <SCORE.RESTR.norm>
0

>  <SCORE.SYSTEM>
0

>  <SCORE.SYSTEM.CONST>
0

>  <SCORE.SYSTEM.DIHEDRAL>
0

>  <SCORE.SYSTEM.SOLV>
0

>  <SCORE.SYSTEM.norm>
0

>  <SCORE.heavy>
10

>  <SCORE.norm>
-0.557918

>  <RMSD>
41.823

$$$$
ligand
 OpenBabel11021811473D
libRbt.so/2013.1/901 2013/11/27
 10  9  0  0  0  0  0  0  0  0999 V2000
   -1.1126   38.4944    7.4259 N   0  0  0  0  0  0  0  0  0  0  0  0
   -0.8844   39.3590    8.6174 C   0  0  2  0  0  0  0  0  0  0  0  0
   -2.1830   39.6682    9.3625 C   0  0  0  0  0  0  0  0  0  0  0  0
   -3.2843   39.6163    8.8054 O   0  0  0  0  0  0  0  0  0  0  0  0
   -0.1536   40.6456    8.2244 C   0  0  0  0  0  0  0  0  0  0  0  0
    0.2204   41.5368    9.4013 C   0  0  0  0  0  0  0  0  0  0  0  0
    0.7607   42.8839    8.9220 C   0  0  0  0  0  0  0  0  0  0  0  0
    0.8970   43.8796   10.0685 C   0  0  0  0  0  0  0  0  0  0  0  0
    1.4724   45.1860    9.6331 N   0  0  0  0  0  0  0  0  0  0  0  0
   -2.1637   39.9568   10.5572 O   0  0  0  0  0  0  0  0  0  0  0  0
  2  1  1  6  0  0  0
  2  3  1  0  0  0  0
  2  5  1  0  0  0  0
  3  4  1  0  0  0  0
  3 10  1  0  0  0  0
  5  6  1  0  0  0  0
  6  7  1  0  0  0  0
  7  8  1  0  0  0  0
  8  9  1  0  0  0  0
M  END
>  <CHROM.1>
-23.43413862,-175.30265619,-171.83165796,169.44989026,177.79996061,-0.67780205
41.11846765,9.11788203,-2.30563528,0.62041935,0.65310839

>  <Name>
ligand

>  <RI>
0

>  <Rbt.Current_Directory>
/home/itssahil/PROJECTS/Mol_Feturizer/New_Systems/rnas/3DJ2

>  <Rbt.Executable>
rbdock ($Id: //depot/dev/client3/rdock/2013.1/src/exe/rbdock.cxx#4 $)

>  <Rbt.Library>
libRbt.so (2013.1, Build901 2013/11/27)

>  <Rbt.Parameter_File>
/export/apps/rDock/src/rDock_2013.1_src/data/scripts/dock_solv.prm

>  <Rbt.Receptor>
prm/blind_docking_80.prm

>  <SCORE>
-5.82041

>  <SCORE.INTER>
-4.12757

>  <SCORE.INTER.CONST>
1

>  <SCORE.INTER.POLAR>
0

>  <SCORE.INTER.ROT>
5

>  <SCORE.INTER.SOLV>
15.6566

>  <SCORE.INTER.VDW>
-14.9039

>  <SCORE.INTER.norm>
-0.412757

>  <SCORE.INTRA>
-1.69284

>  <SCORE.INTRA.DIHEDRAL>
-1.88762

>  <SCORE.INTRA.DIHEDRAL.0>
4.28128

>  <SCORE.INTRA.POLAR>
0

>  <SCORE.INTRA.POLAR.0>
0

>  <SCORE.INTRA.REPUL>
0

>  <SCORE.INTRA.REPUL.0>
0

>  <SCORE.INTRA.SOLV>
-1.33136

>  <SCORE.INTRA.SOLV.lig_0>
-32.3374

>  <SCORE.INTRA.VDW>
-0.0833507

>  <SCORE.INTRA.VDW.0>
-0.659551

>  <SCORE.INTRA.norm>
-0.169284

>  <SCORE.RESTR>
0

>  <SCORE.RESTR.CAVITY>
0

>  <SCORE.RESTR.norm>
0

>  <SCORE.SYSTEM>
0

>  <SCORE.SYSTEM.CONST>
0

>  <SCORE.SYSTEM.DIHEDRAL>
0

>  <SCORE.SYSTEM.SOLV>
0

>  <SCORE.SYSTEM.norm>
0

>  <SCORE.heavy>
10

>  <SCORE.norm>
-0.582041

>  <RMSD>
42.139

$$$$
ligand
 OpenBabel11021811473D
libRbt.so/2013.1/901 2013/11/27
 10  9  0  0  0  0  0  0  0  0999 V2000
   -3.3964   38.3148    8.5031 N   0  0  0  0  0  0  0  0  0  0  0  0
   -2.4646   39.4697    8.6349 C   0  0  2  0  0  0  0  0  0  0  0  0
   -1.1345   39.2214    7.9233 C   0  0  0  0  0  0  0  0  0  0  0  0
   -0.6841   38.0830    7.7585 O   0  0  0  0  0  0  0  0  0  0  0  0
   -2.2447   39.8263   10.1074 C   0  0  0  0  0  0  0  0  0  0  0  0
   -3.4884   40.3435   10.8181 C   0  0  0  0  0  0  0  0  0  0  0  0
   -3.1903   40.6718   12.2808 C   0  0  0  0  0  0  0  0  0  0  0  0
   -4.3890   41.3103   12.9735 C   0  0  0  0  0  0  0  0  0  0  0  0
   -5.5630   40.3928   13.0582 N   0  0  0  0  0  0  0  0  0  0  0  0
   -0.4838   40.1609    7.4706 O   0  0  0  0  0  0  0  0  0  0  0  0
  2  1  1  1  0  0  0
  2  3  1  0  0  0  0
  2  5  1  0  0  0  0
  3  4  1  0  0  0  0
  3 10  1  0  0  0  0
  5  6  1  0  0  0  0
  6  7  1  0  0  0  0
  7  8  1  0  0  0  0
  8  9  1  0  0  0  0
M  END
>  <CHROM.1>
-27.42854165,-65.58841626,179.79004200,174.76993196,64.04054547,-2.66824851
39.77137383,9.92562194,0.87791658,-0.53170424,-2.30617386

>  <Name>
ligand

>  <RI>
0

>  <Rbt.Current_Directory>
/home/itssahil/PROJECTS/Mol_Feturizer/New_Systems/rnas/3DJ2

>  <Rbt.Executable>
rbdock ($Id: //depot/dev/client3/rdock/2013.1/src/exe/rbdock.cxx#4 $)

>  <Rbt.Library>
libRbt.so (2013.1, Build901 2013/11/27)

>  <Rbt.Parameter_File>
/export/apps/rDock/src/rDock_2013.1_src/data/scripts/dock_solv.prm

>  <Rbt.Receptor>
prm/blind_docking_80.prm

>  <SCORE>
-2.51064

>  <SCORE.INTER>
-1.35041

>  <SCORE.INTER.CONST>
1

>  <SCORE.INTER.POLAR>
0

>  <SCORE.INTER.ROT>
5

>  <SCORE.INTER.SOLV>
2.71497

>  <SCORE.INTER.VDW>
-8.7386

>  <SCORE.INTER.norm>
-0.135041

>  <SCORE.INTRA>
-1.16023

>  <SCORE.INTRA.DIHEDRAL>
-2.39702

>  <SCORE.INTRA.DIHEDRAL.0>
4.28128

>  <SCORE.INTRA.POLAR>
0

>  <SCORE.INTRA.POLAR.0>
0

>  <SCORE.INTRA.REPUL>
0

>  <SCORE.INTRA.REPUL.0>
0

>  <SCORE.INTRA.SOLV>
0.352266

>  <SCORE.INTRA.SOLV.lig_0>
-32.3374

>  <SCORE.INTRA.VDW>
-0.137852

>  <SCORE.INTRA.VDW.0>
-0.659551

>  <SCORE.INTRA.norm>
-0.116023

>  <SCORE.RESTR>
0

>  <SCORE.RESTR.CAVITY>
0

>  <SCORE.RESTR.norm>
0

>  <SCORE.SYSTEM>
0

>  <SCORE.SYSTEM.CONST>
0

>  <SCORE.SYSTEM.DIHEDRAL>
0

>  <SCORE.SYSTEM.SOLV>
0

>  <SCORE.SYSTEM.norm>
0

>  <SCORE.heavy>
10

>  <SCORE.norm>
-0.251064

>  <RMSD>
42.571

$$$$
ligand
 OpenBabel11021811473D
libRbt.so/2013.1/901 2013/11/27
 10  9  0  0  0  0  0  0  0  0999 V2000
   -4.7301   38.2177    8.1185 N   0  0  0  0  0  0  0  0  0  0  0  0
   -3.9644   37.9978    6.8597 C   0  0  2  0  0  0  0  0  0  0  0  0
   -4.3894   36.7161    6.1429 C   0  0  0  0  0  0  0  0  0  0  0  0
   -4.2464   36.5706    4.9246 O   0  0  0  0  0  0  0  0  0  0  0  0
   -2.4577   38.0050    7.1308 C   0  0  0  0  0  0  0  0  0  0  0  0
   -1.9483   39.2759    7.7977 C   0  0  0  0  0  0  0  0  0  0  0  0
   -0.4498   39.1846    8.0846 C   0  0  0  0  0  0  0  0  0  0  0  0
    0.0423   40.3698    8.9077 C   0  0  0  0  0  0  0  0  0  0  0  0
    0.0053   41.6545    8.1492 N   0  0  0  0  0  0  0  0  0  0  0  0
   -4.8686   35.7770    6.7748 O   0  0  0  0  0  0  0  0  0  0  0  0
  2  1  1  1  0  0  0
  2  3  1  0  0  0  0
  2  5  1  0  0  0  0
  3  4  1  0  0  0  0
  3 10  1  0  0  0  0
  5  6  1  0  0  0  0
  6  7  1  0  0  0  0
  7  8  1  0  0  0  0
  8  9  1  0  0  0  0
M  END
>  <CHROM.1>
154.73561745,-56.74826146,177.76219039,-172.79906235,-68.42739119,-2.71958227
38.34130061,7.26800661,2.45558374,-0.45818766,-2.14845586

>  <Name>
ligand

>  <RI>
0

>  <Rbt.Current_Directory>
/home/itssahil/PROJECTS/Mol_Feturizer/New_Systems/rnas/3DJ2

>  <Rbt.Executable>
rbdock ($Id: //depot/dev/client3/rdock/2013.1/src/exe/rbdock.cxx#4 $)

>  <Rbt.Library>
libRbt.so (2013.1, Build901 2013/11/27)

>  <Rbt.Parameter_File>
/export/apps/rDock/src/rDock_2013.1_src/data/scripts/dock_solv.prm

>  <Rbt.Receptor>
prm/blind_docking_80.prm

>  <SCORE>
-4.0695

>  <SCORE.INTER>
-3.07267

>  <SCORE.INTER.CONST>
1

>  <SCORE.INTER.POLAR>
0

>  <SCORE.INTER.ROT>
5

>  <SCORE.INTER.SOLV>
9.25296

>  <SCORE.INTER.VDW>
-12.0661

>  <SCORE.INTER.norm>
-0.307267

>  <SCORE.INTRA>
-0.996837

>  <SCORE.INTRA.DIHEDRAL>
-2.27215

>  <SCORE.INTRA.DIHEDRAL.0>
4.28128

>  <SCORE.INTRA.POLAR>
0

>  <SCORE.INTRA.POLAR.0>
0

>  <SCORE.INTRA.REPUL>
0

>  <SCORE.INTRA.REPUL.0>
0

>  <SCORE.INTRA.SOLV>
0.404357

>  <SCORE.INTRA.SOLV.lig_0>
-32.3374

>  <SCORE.INTRA.VDW>
-0.0629394

>  <SCORE.INTRA.VDW.0>
-0.659551

>  <SCORE.INTRA.norm>
-0.0996837

>  <SCORE.RESTR>
0

>  <SCORE.RESTR.CAVITY>
0

>  <SCORE.RESTR.norm>
0

>  <SCORE.SYSTEM>
0

>  <SCORE.SYSTEM.CONST>
0

>  <SCORE.SYSTEM.DIHEDRAL>
0

>  <SCORE.SYSTEM.SOLV>
0

>  <SCORE.SYSTEM.norm>
0

>  <SCORE.heavy>
10

>  <SCORE.norm>
-0.40695

>  <RMSD>
42.776

$$$$
ligand
 OpenBabel11021811473D
libRbt.so/2013.1/901 2013/11/27
 10  9  0  0  0  0  0  0  0  0999 V2000
   -4.5269   39.1630   11.5313 N   0  0  0  0  0  0  0  0  0  0  0  0
   -4.4104   40.6394   11.6932 C   0  0  2  0  0  0  0  0  0  0  0  0
   -5.0963   41.3997   10.5581 C   0  0  0  0  0  0  0  0  0  0  0  0
   -5.4545   42.5754   10.6819 O   0  0  0  0  0  0  0  0  0  0  0  0
   -2.9443   41.0578   11.8310 C   0  0  0  0  0  0  0  0  0  0  0  0
   -2.0561   40.6146   10.6760 C   0  0  0  0  0  0  0  0  0  0  0  0
   -0.7303   41.3750   10.6777 C   0  0  0  0  0  0  0  0  0  0  0  0
    0.1156   41.0409    9.4540 C   0  0  0  0  0  0  0  0  0  0  0  0
    1.3716   41.8439    9.3838 N   0  0  0  0  0  0  0  0  0  0  0  0
   -5.2891   40.8585    9.4713 O   0  0  0  0  0  0  0  0  0  0  0  0
  2  1  1  6  0  0  0
  2  3  1  0  0  0  0
  2  5  1  0  0  0  0
  3  4  1  0  0  0  0
  3 10  1  0  0  0  0
  5  6  1  0  0  0  0
  6  7  1  0  0  0  0
  7  8  1  0  0  0  0
  8  9  1  0  0  0  0
M  END
>  <CHROM.1>
158.63613122,56.42711047,164.31561540,-174.56838928,175.91732521,-2.92937234
41.07351987,10.57406762,-2.98163495,0.09669569,-0.67912830

>  <Name>
ligand

>  <RI>
0

>  <Rbt.Current_Directory>
/home/itssahil/PROJECTS/Mol_Feturizer/New_Systems/rnas/3DJ2

>  <Rbt.Executable>
rbdock ($Id: //depot/dev/client3/rdock/2013.1/src/exe/rbdock.cxx#4 $)

>  <Rbt.Library>
libRbt.so (2013.1, Build901 2013/11/27)

>  <Rbt.Parameter_File>
/export/apps/rDock/src/rDock_2013.1_src/data/scripts/dock_solv.prm

>  <Rbt.Receptor>
prm/blind_docking_100.prm

>  <SCORE>
-4.42398

>  <SCORE.INTER>
-3.25855

>  <SCORE.INTER.CONST>
1

>  <SCORE.INTER.POLAR>
0

>  <SCORE.INTER.ROT>
5

>  <SCORE.INTER.SOLV>
7.93488

>  <SCORE.INTER.VDW>
-11.7507

>  <SCORE.INTER.norm>
-0.325855

>  <SCORE.INTRA>
-1.16543

>  <SCORE.INTRA.DIHEDRAL>
-1.5824

>  <SCORE.INTRA.DIHEDRAL.0>
4.28128

>  <SCORE.INTRA.POLAR>
0

>  <SCORE.INTRA.POLAR.0>
0

>  <SCORE.INTRA.REPUL>
0

>  <SCORE.INTRA.REPUL.0>
0

>  <SCORE.INTRA.SOLV>
-0.453204

>  <SCORE.INTRA.SOLV.lig_0>
-32.3374

>  <SCORE.INTRA.VDW>
-0.147628

>  <SCORE.INTRA.VDW.0>
-0.659551

>  <SCORE.INTRA.norm>
-0.116543

>  <SCORE.RESTR>
0

>  <SCORE.RESTR.CAVITY>
0

>  <SCORE.RESTR.norm>
0

>  <SCORE.SYSTEM>
0

>  <SCORE.SYSTEM.CONST>
0

>  <SCORE.SYSTEM.DIHEDRAL>
0

>  <SCORE.SYSTEM.SOLV>
0

>  <SCORE.SYSTEM.norm>
0

>  <SCORE.heavy>
10

>  <SCORE.norm>
-0.442398

>  <RMSD>
43.438

$$$$
ligand
 OpenBabel11021811473D
libRbt.so/2013.1/901 2013/11/27
 10  9  0  0  0  0  0  0  0  0999 V2000
   -4.7086   42.9900   12.8892 N   0  0  0  0  0  0  0  0  0  0  0  0
   -4.3703   41.8957   11.9366 C   0  0  2  0  0  0  0  0  0  0  0  0
   -5.2978   41.8822   10.7213 C   0  0  0  0  0  0  0  0  0  0  0  0
   -5.1299   41.1003    9.7799 O   0  0  0  0  0  0  0  0  0  0  0  0
   -4.3688   40.5386   12.6450 C   0  0  0  0  0  0  0  0  0  0  0  0
   -3.7689   39.4050   11.8237 C   0  0  0  0  0  0  0  0  0  0  0  0
   -3.9085   38.0665   12.5481 C   0  0  0  0  0  0  0  0  0  0  0  0
   -3.4445   36.9019   11.6804 C   0  0  0  0  0  0  0  0  0  0  0  0
   -3.6211   35.5787   12.3476 N   0  0  0  0  0  0  0  0  0  0  0  0
   -6.2606   42.6441   10.6623 O   0  0  0  0  0  0  0  0  0  0  0  0
  2  1  1  1  0  0  0
  2  3  1  0  0  0  0
  2  5  1  0  0  0  0
  3  4  1  0  0  0  0
  3 10  1  0  0  0  0
  5  6  1  0  0  0  0
  6  7  1  0  0  0  0
  7  8  1  0  0  0  0
  8  9  1  0  0  0  0
M  END
>  <CHROM.1>
175.62423778,-168.46795046,-175.27205254,174.10777275,-177.77380433,-4.51101641
40.11180495,11.67406996,-2.30228746,1.12602121,-2.61912613

>  <Name>
ligand

>  <RI>
0

>  <Rbt.Current_Directory>
/home/itssahil/PROJECTS/Mol_Feturizer/New_Systems/rnas/3DJ2

>  <Rbt.Executable>
rbdock ($Id: //depot/dev/client3/rdock/2013.1/src/exe/rbdock.cxx#4 $)

>  <Rbt.Library>
libRbt.so (2013.1, Build901 2013/11/27)

>  <Rbt.Parameter_File>
/export/apps/rDock/src/rDock_2013.1_src/data/scripts/dock_solv.prm

>  <Rbt.Receptor>
prm/blind_docking_80.prm

>  <SCORE>
-1.48381

>  <SCORE.INTER>
0.132858

>  <SCORE.INTER.CONST>
1

>  <SCORE.INTER.POLAR>
0

>  <SCORE.INTER.ROT>
5

>  <SCORE.INTER.SOLV>
6.02187

>  <SCORE.INTER.VDW>
-8.85205

>  <SCORE.INTER.norm>
0.0132858

>  <SCORE.INTRA>
-1.61667

>  <SCORE.INTRA.DIHEDRAL>
-2.03898

>  <SCORE.INTRA.DIHEDRAL.0>
4.28128

>  <SCORE.INTRA.POLAR>
0

>  <SCORE.INTRA.POLAR.0>
0

>  <SCORE.INTRA.REPUL>
0

>  <SCORE.INTRA.REPUL.0>
0

>  <SCORE.INTRA.SOLV>
-1.31488

>  <SCORE.INTRA.SOLV.lig_0>
-32.3374

>  <SCORE.INTRA.VDW>
0.0602621

>  <SCORE.INTRA.VDW.0>
-0.659551

>  <SCORE.INTRA.norm>
-0.161667

>  <SCORE.RESTR>
0

>  <SCORE.RESTR.CAVITY>
0

>  <SCORE.RESTR.norm>
0

>  <SCORE.SYSTEM>
0

>  <SCORE.SYSTEM.CONST>
0

>  <SCORE.SYSTEM.DIHEDRAL>
0

>  <SCORE.SYSTEM.SOLV>
0

>  <SCORE.SYSTEM.norm>
0

>  <SCORE.heavy>
10

>  <SCORE.norm>
-0.148381

>  <RMSD>
43.791

$$$$
ligand
 OpenBabel11021811473D
libRbt.so/2013.1/901 2013/11/27
 10  9  0  0  0  0  0  0  0  0999 V2000
   -5.1081   39.2687   12.9600 N   0  0  0  0  0  0  0  0  0  0  0  0
   -4.7645   40.6964   12.7095 C   0  0  2  0  0  0  0  0  0  0  0  0
   -3.3035   40.8737   12.2957 C   0  0  0  0  0  0  0  0  0  0  0  0
   -2.9802   41.5462   11.3112 O   0  0  0  0  0  0  0  0  0  0  0  0
   -5.1016   41.5593   13.9283 C   0  0  0  0  0  0  0  0  0  0  0  0
   -4.8450   43.0475   13.7314 C   0  0  0  0  0  0  0  0  0  0  0  0
   -5.0618   43.8205   15.0320 C   0  0  0  0  0  0  0  0  0  0  0  0
   -4.8636   45.3198   14.8393 C   0  0  0  0  0  0  0  0  0  0  0  0
   -5.0943   46.0982   16.0916 N   0  0  0  0  0  0  0  0  0  0  0  0
   -2.4013   40.3633   12.9563 O   0  0  0  0  0  0  0  0  0  0  0  0
  2  1  1  1  0  0  0
  2  3  1  0  0  0  0
  2  5  1  0  0  0  0
  3  4  1  0  0  0  0
  3 10  1  0  0  0  0
  5  6  1  0  0  0  0
  6  7  1  0  0  0  0
  7  8  1  0  0  0  0
  8  9  1  0  0  0  0
M  END
>  <CHROM.1>
131.09598495,-177.11842689,-173.94100320,-177.70599622,178.97193692,-4.31776904
42.25371674,13.56935748,1.27886633,-0.61144950,-2.76765232

>  <Name>
ligand

>  <RI>
0

>  <Rbt.Current_Directory>
/home/itssahil/PROJECTS/Mol_Feturizer/New_Systems/rnas/3DJ2

>  <Rbt.Executable>
rbdock ($Id: //depot/dev/client3/rdock/2013.1/src/exe/rbdock.cxx#4 $)

>  <Rbt.Library>
libRbt.so (2013.1, Build901 2013/11/27)

>  <Rbt.Parameter_File>
/export/apps/rDock/src/rDock_2013.1_src/data/scripts/dock_solv.prm

>  <Rbt.Receptor>
prm/blind_docking_80.prm

>  <SCORE>
-4.66373

>  <SCORE.INTER>
-2.53473

>  <SCORE.INTER.CONST>
1

>  <SCORE.INTER.POLAR>
0

>  <SCORE.INTER.ROT>
5

>  <SCORE.INTER.SOLV>
5.90255

>  <SCORE.INTER.VDW>
-10.5907

>  <SCORE.INTER.norm>
-0.253473

>  <SCORE.INTRA>
-2.129

>  <SCORE.INTRA.DIHEDRAL>
-2.57719

>  <SCORE.INTRA.DIHEDRAL.0>
4.28128

>  <SCORE.INTRA.POLAR>
0

>  <SCORE.INTRA.POLAR.0>
0

>  <SCORE.INTRA.REPUL>
0

>  <SCORE.INTRA.REPUL.0>
0

>  <SCORE.INTRA.SOLV>
-1.34573

>  <SCORE.INTRA.SOLV.lig_0>
-32.3374

>  <SCORE.INTRA.VDW>
-0.167535

>  <SCORE.INTRA.VDW.0>
-0.659551

>  <SCORE.INTRA.norm>
-0.2129

>  <SCORE.RESTR>
0

>  <SCORE.RESTR.CAVITY>
0

>  <SCORE.RESTR.norm>
0

>  <SCORE.SYSTEM>
0

>  <SCORE.SYSTEM.CONST>
0

>  <SCORE.SYSTEM.DIHEDRAL>
0

>  <SCORE.SYSTEM.SOLV>
0

>  <SCORE.SYSTEM.norm>
0

>  <SCORE.heavy>
10

>  <SCORE.norm>
-0.466373

>  <RMSD>
44.570

$$$$
ligand
 OpenBabel11021811473D
libRbt.so/2013.1/901 2013/11/27
 10  9  0  0  0  0  0  0  0  0999 V2000
   -4.6775   40.1576   11.3229 N   0  0  0  0  0  0  0  0  0  0  0  0
   -4.9288   40.9779   10.1051 C   0  0  2  0  0  0  0  0  0  0  0  0
   -5.8224   42.1836   10.3965 C   0  0  0  0  0  0  0  0  0  0  0  0
   -5.9854   43.0903    9.5735 O   0  0  0  0  0  0  0  0  0  0  0  0
   -5.5113   40.1180    8.9803 C   0  0  0  0  0  0  0  0  0  0  0  0
   -4.5539   39.0649    8.4383 C   0  0  0  0  0  0  0  0  0  0  0  0
   -5.2190   38.2251    7.3481 C   0  0  0  0  0  0  0  0  0  0  0  0
   -4.2421   37.2385    6.7183 C   0  0  0  0  0  0  0  0  0  0  0  0
   -3.7559   36.2108    7.6852 N   0  0  0  0  0  0  0  0  0  0  0  0
   -6.4276   42.2689   11.4630 O   0  0  0  0  0  0  0  0  0  0  0  0
  2  1  1  1  0  0  0
  2  3  1  0  0  0  0
  2  5  1  0  0  0  0
  3  4  1  0  0  0  0
  3 10  1  0  0  0  0
  5  6  1  0  0  0  0
  6  7  1  0  0  0  0
  7  8  1  0  0  0  0
  8  9  1  0  0  0  0
M  END
>  <CHROM.1>
169.02394767,-66.34820659,178.46982528,175.54146858,64.45828793,-5.13439152
39.99110333,9.21631653,-2.25285961,1.14511862,-1.92702232

>  <Name>
ligand

>  <RI>
0

>  <Rbt.Current_Directory>
/home/itssahil/PROJECTS/Mol_Feturizer/New_Systems/rnas/3DJ2

>  <Rbt.Executable>
rbdock ($Id: //depot/dev/client3/rdock/2013.1/src/exe/rbdock.cxx#4 $)

>  <Rbt.Library>
libRbt.so (2013.1, Build901 2013/11/27)

>  <Rbt.Parameter_File>
/export/apps/rDock/src/rDock_2013.1_src/data/scripts/dock_solv.prm

>  <Rbt.Receptor>
prm/blind_docking_80.prm

>  <SCORE>
-4.35514

>  <SCORE.INTER>
-3.27394

>  <SCORE.INTER.CONST>
1

>  <SCORE.INTER.POLAR>
0

>  <SCORE.INTER.ROT>
5

>  <SCORE.INTER.SOLV>
2.37329

>  <SCORE.INTER.VDW>
-9.90706

>  <SCORE.INTER.norm>
-0.327394

>  <SCORE.INTRA>
-1.0812

>  <SCORE.INTRA.DIHEDRAL>
-2.44627

>  <SCORE.INTRA.DIHEDRAL.0>
4.28128

>  <SCORE.INTRA.POLAR>
0

>  <SCORE.INTRA.POLAR.0>
0

>  <SCORE.INTRA.REPUL>
0

>  <SCORE.INTRA.REPUL.0>
0

>  <SCORE.INTRA.SOLV>
0.355086

>  <SCORE.INTRA.SOLV.lig_0>
-32.3374

>  <SCORE.INTRA.VDW>
-0.0356094

>  <SCORE.INTRA.VDW.0>
-0.659551

>  <SCORE.INTRA.norm>
-0.10812

>  <SCORE.RESTR>
0

>  <SCORE.RESTR.CAVITY>
0

>  <SCORE.RESTR.norm>
0

>  <SCORE.SYSTEM>
0

>  <SCORE.SYSTEM.CONST>
0

>  <SCORE.SYSTEM.DIHEDRAL>
0

>  <SCORE.SYSTEM.SOLV>
0

>  <SCORE.SYSTEM.norm>
0

>  <SCORE.heavy>
10

>  <SCORE.norm>
-0.435514

>  <RMSD>
44.776

$$$$
ligand
 OpenBabel11021811473D
libRbt.so/2013.1/901 2013/11/27
 10  9  0  0  0  0  0  0  0  0999 V2000
   -5.4801   42.9435   16.1306 N   0  0  0  0  0  0  0  0  0  0  0  0
   -4.7658   43.5440   14.9694 C   0  0  2  0  0  0  0  0  0  0  0  0
   -5.1189   45.0187   14.7752 C   0  0  0  0  0  0  0  0  0  0  0  0
   -4.4550   45.7585   14.0418 O   0  0  0  0  0  0  0  0  0  0  0  0
   -5.0296   42.7405   13.6933 C   0  0  0  0  0  0  0  0  0  0  0  0
   -4.4193   41.3452   13.6954 C   0  0  0  0  0  0  0  0  0  0  0  0
   -4.5949   40.6654   12.3377 C   0  0  0  0  0  0  0  0  0  0  0  0
   -3.9204   39.2987   12.2974 C   0  0  0  0  0  0  0  0  0  0  0  0
   -4.0598   38.6250   10.9730 N   0  0  0  0  0  0  0  0  0  0  0  0
   -6.1002   45.5044   15.3338 O   0  0  0  0  0  0  0  0  0  0  0  0
  2  1  1  1  0  0  0
  2  3  1  0  0  0  0
  2  5  1  0  0  0  0
  3  4  1  0  0  0  0
  3 10  1  0  0  0  0
  5  6  1  0  0  0  0
  6  7  1  0  0  0  0
  7  8  1  0  0  0  0
  8  9  1  0  0  0  0
M  END
>  <CHROM.1>
165.93574938,-67.64195402,-173.87202112,176.76398201,-179.06622203,-4.80349762
42.58871127,13.82722053,2.13460687,1.23494402,-0.02904697

>  <Name>
ligand

>  <RI>
0

>  <Rbt.Current_Directory>
/home/itssahil/PROJECTS/Mol_Feturizer/New_Systems/rnas/3DJ2

>  <Rbt.Executable>
rbdock ($Id: //depot/dev/client3/rdock/2013.1/src/exe/rbdock.cxx#4 $)

>  <Rbt.Library>
libRbt.so (2013.1, Build901 2013/11/27)

>  <Rbt.Parameter_File>
/export/apps/rDock/src/rDock_2013.1_src/data/scripts/dock_solv.prm

>  <Rbt.Receptor>
prm/blind_docking_80.prm

>  <SCORE>
-4.18395

>  <SCORE.INTER>
-2.59356

>  <SCORE.INTER.CONST>
1

>  <SCORE.INTER.POLAR>
0

>  <SCORE.INTER.ROT>
5

>  <SCORE.INTER.SOLV>
4.96728

>  <SCORE.INTER.VDW>
-10.3181

>  <SCORE.INTER.norm>
-0.259356

>  <SCORE.INTRA>
-1.59039

>  <SCORE.INTRA.DIHEDRAL>
-2.34406

>  <SCORE.INTRA.DIHEDRAL.0>
4.28128

>  <SCORE.INTRA.POLAR>
0

>  <SCORE.INTRA.POLAR.0>
0

>  <SCORE.INTRA.REPUL>
0

>  <SCORE.INTRA.REPUL.0>
0

>  <SCORE.INTRA.SOLV>
-0.562018

>  <SCORE.INTRA.SOLV.lig_0>
-32.3374

>  <SCORE.INTRA.VDW>
-0.137351

>  <SCORE.INTRA.VDW.0>
-0.659551

>  <SCORE.INTRA.norm>
-0.159039

>  <SCORE.RESTR>
0

>  <SCORE.RESTR.CAVITY>
0

>  <SCORE.RESTR.norm>
0

>  <SCORE.SYSTEM>
0

>  <SCORE.SYSTEM.CONST>
0

>  <SCORE.SYSTEM.DIHEDRAL>
0

>  <SCORE.SYSTEM.SOLV>
0

>  <SCORE.SYSTEM.norm>
0

>  <SCORE.heavy>
10

>  <SCORE.norm>
-0.418395

>  <RMSD>
44.998

$$$$
ligand
 OpenBabel11021811473D
libRbt.so/2013.1/901 2013/11/27
 10  9  0  0  0  0  0  0  0  0999 V2000
   -4.9427   38.6328   10.2834 N   0  0  0  0  0  0  0  0  0  0  0  0
   -5.8263   39.4965    9.4511 C   0  0  2  0  0  0  0  0  0  0  0  0
   -6.0241   38.9325    8.0440 C   0  0  0  0  0  0  0  0  0  0  0  0
   -7.0362   39.1757    7.3789 O   0  0  0  0  0  0  0  0  0  0  0  0
   -5.2944   40.9312    9.4011 C   0  0  0  0  0  0  0  0  0  0  0  0
   -5.6130   41.7598   10.6385 C   0  0  0  0  0  0  0  0  0  0  0  0
   -4.8620   41.2341   11.8615 C   0  0  0  0  0  0  0  0  0  0  0  0
   -5.2360   41.9977   13.1270 C   0  0  0  0  0  0  0  0  0  0  0  0
   -4.5747   41.4506   14.3480 N   0  0  0  0  0  0  0  0  0  0  0  0
   -5.1573   38.2328    7.5244 O   0  0  0  0  0  0  0  0  0  0  0  0
  2  1  1  1  0  0  0
  2  3  1  0  0  0  0
  2  5  1  0  0  0  0
  3  4  1  0  0  0  0
  3 10  1  0  0  0  0
  5  6  1  0  0  0  0
  6  7  1  0  0  0  0
  7  8  1  0  0  0  0
  8  9  1  0  0  0  0
M  END
>  <CHROM.1>
153.18312784,-79.14973252,67.48211907,-176.44167934,176.67539696,-5.46401887
40.16581067,10.16446543,-1.93140057,-1.05126031,0.76970038

>  <Name>
ligand

>  <RI>
0

>  <Rbt.Current_Directory>
/home/itssahil/PROJECTS/Mol_Feturizer/New_Systems/rnas/3DJ2

>  <Rbt.Executable>
rbdock ($Id: //depot/dev/client3/rdock/2013.1/src/exe/rbdock.cxx#4 $)

>  <Rbt.Library>
libRbt.so (2013.1, Build901 2013/11/27)

>  <Rbt.Parameter_File>
/export/apps/rDock/src/rDock_2013.1_src/data/scripts/dock_solv.prm

>  <Rbt.Receptor>
prm/blind_docking_80.prm

>  <SCORE>
-2.20617

>  <SCORE.INTER>
-2.00664

>  <SCORE.INTER.CONST>
1

>  <SCORE.INTER.POLAR>
0

>  <SCORE.INTER.ROT>
5

>  <SCORE.INTER.SOLV>
5.09987

>  <SCORE.INTER.VDW>
-9.97105

>  <SCORE.INTER.norm>
-0.200664

>  <SCORE.INTRA>
-0.199534

>  <SCORE.INTRA.DIHEDRAL>
-1.11739

>  <SCORE.INTRA.DIHEDRAL.0>
4.28128

>  <SCORE.INTRA.POLAR>
0

>  <SCORE.INTRA.POLAR.0>
0

>  <SCORE.INTRA.REPUL>
0

>  <SCORE.INTRA.REPUL.0>
0

>  <SCORE.INTRA.SOLV>
0.658507

>  <SCORE.INTRA.SOLV.lig_0>
-32.3374

>  <SCORE.INTRA.VDW>
0.0299105

>  <SCORE.INTRA.VDW.0>
-0.659551

>  <SCORE.INTRA.norm>
-0.0199534

>  <SCORE.RESTR>
0

>  <SCORE.RESTR.CAVITY>
0

>  <SCORE.RESTR.norm>
0

>  <SCORE.SYSTEM>
0

>  <SCORE.SYSTEM.CONST>
0

>  <SCORE.SYSTEM.DIHEDRAL>
0

>  <SCORE.SYSTEM.SOLV>
0

>  <SCORE.SYSTEM.norm>
0

>  <SCORE.heavy>
10

>  <SCORE.norm>
-0.220617

>  <RMSD>
45.025

$$$$
ligand
 OpenBabel11021811473D
libRbt.so/2013.1/901 2013/11/27
 10  9  0  0  0  0  0  0  0  0999 V2000
   -5.6106   40.0515   10.8375 N   0  0  0  0  0  0  0  0  0  0  0  0
   -5.3994   40.8447    9.5944 C   0  0  2  0  0  0  0  0  0  0  0  0
   -5.8325   42.3015    9.7596 C   0  0  0  0  0  0  0  0  0  0  0  0
   -5.2892   43.0567   10.5723 O   0  0  0  0  0  0  0  0  0  0  0  0
   -6.1061   40.1903    8.4044 C   0  0  0  0  0  0  0  0  0  0  0  0
   -5.5768   38.8081    8.0456 C   0  0  0  0  0  0  0  0  0  0  0  0
   -4.1614   38.8916    7.4747 C   0  0  0  0  0  0  0  0  0  0  0  0
   -3.6735   37.5381    6.9704 C   0  0  0  0  0  0  0  0  0  0  0  0
   -2.3080   37.6032    6.3717 N   0  0  0  0  0  0  0  0  0  0  0  0
   -6.7289   42.7694    9.0607 O   0  0  0  0  0  0  0  0  0  0  0  0
  2  1  1  1  0  0  0
  2  3  1  0  0  0  0
  2  5  1  0  0  0  0
  3  4  1  0  0  0  0
  3 10  1  0  0  0  0
  5  6  1  0  0  0  0
  6  7  1  0  0  0  0
  7  8  1  0  0  0  0
  8  9  1  0  0  0  0
M  END
>  <CHROM.1>
62.68935989,-63.26481805,-68.73809924,-173.82157560,178.32649537,-5.08198681
40.24709680,8.71878503,2.40995521,0.97184996,-0.14539140

>  <Name>
ligand

>  <RI>
0

>  <Rbt.Current_Directory>
/home/itssahil/PROJECTS/Mol_Feturizer/New_Systems/rnas/3DJ2

>  <Rbt.Executable>
rbdock ($Id: //depot/dev/client3/rdock/2013.1/src/exe/rbdock.cxx#4 $)

>  <Rbt.Library>
libRbt.so (2013.1, Build901 2013/11/27)

>  <Rbt.Parameter_File>
/export/apps/rDock/src/rDock_2013.1_src/data/scripts/dock_solv.prm

>  <Rbt.Receptor>
prm/blind_docking_60.prm

>  <SCORE>
-4.93088

>  <SCORE.INTER>
-4.58516

>  <SCORE.INTER.CONST>
1

>  <SCORE.INTER.POLAR>
0

>  <SCORE.INTER.ROT>
5

>  <SCORE.INTER.SOLV>
6.5018

>  <SCORE.INTER.VDW>
-12.1574

>  <SCORE.INTER.norm>
-0.458516

>  <SCORE.INTRA>
-0.345721

>  <SCORE.INTRA.DIHEDRAL>
-2.21985

>  <SCORE.INTRA.DIHEDRAL.0>
4.28128

>  <SCORE.INTRA.POLAR>
0

>  <SCORE.INTRA.POLAR.0>
0

>  <SCORE.INTRA.REPUL>
0

>  <SCORE.INTRA.REPUL.0>
0

>  <SCORE.INTRA.SOLV>
-0.0357364

>  <SCORE.INTRA.SOLV.lig_0>
-32.3374

>  <SCORE.INTRA.VDW>
0.782074

>  <SCORE.INTRA.VDW.0>
-0.659551

>  <SCORE.INTRA.norm>
-0.0345721

>  <SCORE.RESTR>
0

>  <SCORE.RESTR.CAVITY>
0

>  <SCORE.RESTR.norm>
0

>  <SCORE.SYSTEM>
0

>  <SCORE.SYSTEM.CONST>
0

>  <SCORE.SYSTEM.DIHEDRAL>
0

>  <SCORE.SYSTEM.SOLV>
0

>  <SCORE.SYSTEM.norm>
0

>  <SCORE.heavy>
10

>  <SCORE.norm>
-0.493088

>  <RMSD>
45.033

$$$$
ligand
 OpenBabel11021811473D
libRbt.so/2013.1/901 2013/11/27
 10  9  0  0  0  0  0  0  0  0999 V2000
   -5.2603   39.9845   10.6760 N   0  0  0  0  0  0  0  0  0  0  0  0
   -5.3232   40.7985    9.4300 C   0  0  2  0  0  0  0  0  0  0  0  0
   -5.9144   42.1865    9.6773 C   0  0  0  0  0  0  0  0  0  0  0  0
   -5.8647   42.7299   10.7855 O   0  0  0  0  0  0  0  0  0  0  0  0
   -6.0938   40.0576    8.3341 C   0  0  0  0  0  0  0  0  0  0  0  0
   -5.4934   38.7124    7.9476 C   0  0  0  0  0  0  0  0  0  0  0  0
   -4.0807   38.8802    7.3888 C   0  0  0  0  0  0  0  0  0  0  0  0
   -3.4512   37.5391    7.0288 C   0  0  0  0  0  0  0  0  0  0  0  0
   -4.1439   36.8625    5.8932 N   0  0  0  0  0  0  0  0  0  0  0  0
   -6.4397   42.8138    8.7600 O   0  0  0  0  0  0  0  0  0  0  0  0
  2  1  1  1  0  0  0
  2  3  1  0  0  0  0
  2  5  1  0  0  0  0
  3  4  1  0  0  0  0
  3 10  1  0  0  0  0
  5  6  1  0  0  0  0
  6  7  1  0  0  0  0
  7  8  1  0  0  0  0
  8  9  1  0  0  0  0
M  END
>  <CHROM.1>
25.18811204,-59.46481410,-61.59447833,178.58448186,66.29557602,-5.22215565
40.09717125,8.60374592,-2.31157062,1.08190563,-1.86022168

>  <Name>
ligand

>  <RI>
0

>  <Rbt.Current_Directory>
/home/itssahil/PROJECTS/Mol_Feturizer/New_Systems/rnas/3DJ2

>  <Rbt.Executable>
rbdock ($Id: //depot/dev/client3/rdock/2013.1/src/exe/rbdock.cxx#4 $)

>  <Rbt.Library>
libRbt.so (2013.1, Build901 2013/11/27)

>  <Rbt.Parameter_File>
/export/apps/rDock/src/rDock_2013.1_src/data/scripts/dock_solv.prm

>  <Rbt.Receptor>
prm/blind_docking_80.prm

>  <SCORE>
-4.84877

>  <SCORE.INTER>
-4.76723

>  <SCORE.INTER.CONST>
1

>  <SCORE.INTER.POLAR>
0

>  <SCORE.INTER.ROT>
5

>  <SCORE.INTER.SOLV>
7.20125

>  <SCORE.INTER.VDW>
-12.5119

>  <SCORE.INTER.norm>
-0.476723

>  <SCORE.INTRA>
-0.081547

>  <SCORE.INTRA.DIHEDRAL>
-2.63596

>  <SCORE.INTRA.DIHEDRAL.0>
4.28128

>  <SCORE.INTRA.POLAR>
0

>  <SCORE.INTRA.POLAR.0>
0

>  <SCORE.INTRA.REPUL>
0

>  <SCORE.INTRA.REPUL.0>
0

>  <SCORE.INTRA.SOLV>
0.999464

>  <SCORE.INTRA.SOLV.lig_0>
-32.3374

>  <SCORE.INTRA.VDW>
0.7367

>  <SCORE.INTRA.VDW.0>
-0.659551

>  <SCORE.INTRA.norm>
-0.0081547

>  <SCORE.RESTR>
0

>  <SCORE.RESTR.CAVITY>
0

>  <SCORE.RESTR.norm>
0

>  <SCORE.SYSTEM>
0

>  <SCORE.SYSTEM.CONST>
0

>  <SCORE.SYSTEM.DIHEDRAL>
0

>  <SCORE.SYSTEM.SOLV>
0

>  <SCORE.SYSTEM.norm>
0

>  <SCORE.heavy>
10

>  <SCORE.norm>
-0.484877

>  <RMSD>
45.076

$$$$
ligand
 OpenBabel11021811473D
libRbt.so/2013.1/901 2013/11/27
 10  9  0  0  0  0  0  0  0  0999 V2000
   -5.7282   41.1791   11.2188 N   0  0  0  0  0  0  0  0  0  0  0  0
   -5.5344   41.7284    9.8477 C   0  0  2  0  0  0  0  0  0  0  0  0
   -6.4127   42.9524    9.5876 C   0  0  0  0  0  0  0  0  0  0  0  0
   -7.5743   42.8486    9.1805 O   0  0  0  0  0  0  0  0  0  0  0  0
   -5.7678   40.6467    8.7899 C   0  0  0  0  0  0  0  0  0  0  0  0
   -4.7216   39.5400    8.7856 C   0  0  0  0  0  0  0  0  0  0  0  0
   -4.9482   38.5725    7.6242 C   0  0  0  0  0  0  0  0  0  0  0  0
   -3.8412   37.5282    7.5330 C   0  0  0  0  0  0  0  0  0  0  0  0
   -4.0239   36.5920    6.3852 N   0  0  0  0  0  0  0  0  0  0  0  0
   -5.9853   44.0846    9.8033 O   0  0  0  0  0  0  0  0  0  0  0  0
  2  1  1  1  0  0  0
  2  3  1  0  0  0  0
  2  5  1  0  0  0  0
  3  4  1  0  0  0  0
  3 10  1  0  0  0  0
  5  6  1  0  0  0  0
  6  7  1  0  0  0  0
  7  8  1  0  0  0  0
  8  9  1  0  0  0  0
M  END
>  <CHROM.1>
-86.39092869,-67.79808349,-174.72711942,175.08009073,-178.60678803,-5.47671322
40.60642154,8.87571034,-2.23896190,0.98512233,-2.11475585

>  <Name>
ligand

>  <RI>
0

>  <Rbt.Current_Directory>
/home/itssahil/PROJECTS/Mol_Feturizer/New_Systems/rnas/3DJ2

>  <Rbt.Executable>
rbdock ($Id: //depot/dev/client3/rdock/2013.1/src/exe/rbdock.cxx#4 $)

>  <Rbt.Library>
libRbt.so (2013.1, Build901 2013/11/27)

>  <Rbt.Parameter_File>
/export/apps/rDock/src/rDock_2013.1_src/data/scripts/dock_solv.prm

>  <Rbt.Receptor>
prm/blind_docking_60.prm

>  <SCORE>
-6.46784

>  <SCORE.INTER>
-5.0598

>  <SCORE.INTER.CONST>
1

>  <SCORE.INTER.POLAR>
0

>  <SCORE.INTER.ROT>
5

>  <SCORE.INTER.SOLV>
6.58107

>  <SCORE.INTER.VDW>
-12.5002

>  <SCORE.INTER.norm>
-0.50598

>  <SCORE.INTRA>
-1.40804

>  <SCORE.INTRA.DIHEDRAL>
-2.32661

>  <SCORE.INTRA.DIHEDRAL.0>
4.28128

>  <SCORE.INTRA.POLAR>
0

>  <SCORE.INTRA.POLAR.0>
0

>  <SCORE.INTRA.REPUL>
0

>  <SCORE.INTRA.REPUL.0>
0

>  <SCORE.INTRA.SOLV>
-0.582679

>  <SCORE.INTRA.SOLV.lig_0>
-32.3374

>  <SCORE.INTRA.VDW>
0.0466084

>  <SCORE.INTRA.VDW.0>
-0.659551

>  <SCORE.INTRA.norm>
-0.140804

>  <SCORE.RESTR>
0

>  <SCORE.RESTR.CAVITY>
0

>  <SCORE.RESTR.norm>
0

>  <SCORE.SYSTEM>
0

>  <SCORE.SYSTEM.CONST>
0

>  <SCORE.SYSTEM.DIHEDRAL>
0

>  <SCORE.SYSTEM.SOLV>
0

>  <SCORE.SYSTEM.norm>
0

>  <SCORE.heavy>
10

>  <SCORE.norm>
-0.646784

>  <RMSD>
45.490

$$$$
ligand
 OpenBabel11021811473D
libRbt.so/2013.1/901 2013/11/27
 10  9  0  0  0  0  0  0  0  0999 V2000
    2.1529   46.2217    1.5864 N   0  0  0  0  0  0  0  0  0  0  0  0
    1.1850   47.0546    2.3537 C   0  0  2  0  0  0  0  0  0  0  0  0
    1.4348   46.9879    3.8605 C   0  0  0  0  0  0  0  0  0  0  0  0
    1.2878   47.9728    4.5914 O   0  0  0  0  0  0  0  0  0  0  0  0
   -0.2563   46.6648    2.0153 C   0  0  0  0  0  0  0  0  0  0  0  0
   -0.7378   47.1654    0.6600 C   0  0  0  0  0  0  0  0  0  0  0  0
   -2.2142   46.8343    0.4435 C   0  0  0  0  0  0  0  0  0  0  0  0
   -2.7889   47.5709   -0.7612 C   0  0  0  0  0  0  0  0  0  0  0  0
   -2.7749   49.0536   -0.5920 N   0  0  0  0  0  0  0  0  0  0  0  0
    1.7698   45.9312    4.3916 O   0  0  0  0  0  0  0  0  0  0  0  0
  2  1  1  6  0  0  0
  2  3  1  0  0  0  0
  2  5  1  0  0  0  0
  3  4  1  0  0  0  0
  3 10  1  0  0  0  0
  5  6  1  0  0  0  0
  6  7  1  0  0  0  0
  7  8  1  0  0  0  0
  8  9  1  0  0  0  0
M  END
>  <CHROM.1>
143.07701552,-75.37606981,-175.45047120,168.08145427,-63.35099091,-0.07972626
47.14307346,1.89681729,-0.53145157,0.64473127,-2.11172667

>  <Name>
ligand

>  <RI>
0

>  <Rbt.Current_Directory>
/home/itssahil/PROJECTS/Mol_Feturizer/New_Systems/rnas/3DJ2

>  <Rbt.Executable>
rbdock ($Id: //depot/dev/client3/rdock/2013.1/src/exe/rbdock.cxx#4 $)

>  <Rbt.Library>
libRbt.so (2013.1, Build901 2013/11/27)

>  <Rbt.Parameter_File>
/export/apps/rDock/src/rDock_2013.1_src/data/scripts/dock_solv.prm

>  <Rbt.Receptor>
prm/blind_docking_60.prm

>  <SCORE>
-4.72193

>  <SCORE.INTER>
-4.07378

>  <SCORE.INTER.CONST>
1

>  <SCORE.INTER.POLAR>
0

>  <SCORE.INTER.ROT>
5

>  <SCORE.INTER.SOLV>
10.9375

>  <SCORE.INTER.VDW>
-13.295

>  <SCORE.INTER.norm>
-0.407378

>  <SCORE.INTRA>
-0.648149

>  <SCORE.INTRA.DIHEDRAL>
-1.18278

>  <SCORE.INTRA.DIHEDRAL.0>
4.28128

>  <SCORE.INTRA.POLAR>
0

>  <SCORE.INTRA.POLAR.0>
0

>  <SCORE.INTRA.REPUL>
0

>  <SCORE.INTRA.REPUL.0>
0

>  <SCORE.INTRA.SOLV>
0.303968

>  <SCORE.INTRA.SOLV.lig_0>
-32.3374

>  <SCORE.INTRA.VDW>
-0.208742

>  <SCORE.INTRA.VDW.0>
-0.659551

>  <SCORE.INTRA.norm>
-0.0648149

>  <SCORE.RESTR>
0

>  <SCORE.RESTR.CAVITY>
0

>  <SCORE.RESTR.norm>
0

>  <SCORE.SYSTEM>
0

>  <SCORE.SYSTEM.CONST>
0

>  <SCORE.SYSTEM.DIHEDRAL>
0

>  <SCORE.SYSTEM.SOLV>
0

>  <SCORE.SYSTEM.norm>
0

>  <SCORE.heavy>
10

>  <SCORE.norm>
-0.472193

>  <RMSD>
47.790

$$$$
ligand
 OpenBabel11021811473D
libRbt.so/2013.1/901 2013/11/27
 10  9  0  0  0  0  0  0  0  0999 V2000
    1.6751   48.2633    2.6558 N   0  0  0  0  0  0  0  0  0  0  0  0
    0.6662   47.2220    2.9983 C   0  0  2  0  0  0  0  0  0  0  0  0
    1.2716   46.0785    3.8126 C   0  0  0  0  0  0  0  0  0  0  0  0
    2.1113   46.2787    4.6962 O   0  0  0  0  0  0  0  0  0  0  0  0
   -0.0234   46.6965    1.7365 C   0  0  0  0  0  0  0  0  0  0  0  0
   -1.0499   47.6510    1.1411 C   0  0  0  0  0  0  0  0  0  0  0  0
   -1.8429   46.9781    0.0211 C   0  0  0  0  0  0  0  0  0  0  0  0
   -2.9126   47.9024   -0.5497 C   0  0  0  0  0  0  0  0  0  0  0  0
   -3.9630   48.2560    0.4498 N   0  0  0  0  0  0  0  0  0  0  0  0
    0.9144   44.9181    3.6206 O   0  0  0  0  0  0  0  0  0  0  0  0
  2  1  1  6  0  0  0
  2  3  1  0  0  0  0
  2  5  1  0  0  0  0
  3  4  1  0  0  0  0
  3 10  1  0  0  0  0
  5  6  1  0  0  0  0
  6  7  1  0  0  0  0
  7  8  1  0  0  0  0
  8  9  1  0  0  0  0
M  END
>  <CHROM.1>
39.25496662,-75.21556422,-171.32999580,177.77144116,-64.13023221,-0.29364490
46.99635037,2.08531243,-0.49579825,-0.59196438,-0.37951234

>  <Name>
ligand

>  <RI>
0

>  <Rbt.Current_Directory>
/home/itssahil/PROJECTS/Mol_Feturizer/New_Systems/rnas/3DJ2

>  <Rbt.Executable>
rbdock ($Id: //depot/dev/client3/rdock/2013.1/src/exe/rbdock.cxx#4 $)

>  <Rbt.Library>
libRbt.so (2013.1, Build901 2013/11/27)

>  <Rbt.Parameter_File>
/export/apps/rDock/src/rDock_2013.1_src/data/scripts/dock_solv.prm

>  <Rbt.Receptor>
prm/blind_docking_80.prm

>  <SCORE>
-6.29019

>  <SCORE.INTER>
-6.15041

>  <SCORE.INTER.CONST>
1

>  <SCORE.INTER.POLAR>
0

>  <SCORE.INTER.ROT>
5

>  <SCORE.INTER.SOLV>
6.41891

>  <SCORE.INTER.VDW>
-13.1732

>  <SCORE.INTER.norm>
-0.615041

>  <SCORE.INTRA>
-0.139785

>  <SCORE.INTRA.DIHEDRAL>
-1.51142

>  <SCORE.INTRA.DIHEDRAL.0>
4.28128

>  <SCORE.INTRA.POLAR>
0

>  <SCORE.INTRA.POLAR.0>
0

>  <SCORE.INTRA.REPUL>
0

>  <SCORE.INTRA.REPUL.0>
0

>  <SCORE.INTRA.SOLV>
0.208515

>  <SCORE.INTRA.SOLV.lig_0>
-32.3374

>  <SCORE.INTRA.VDW>
0.511668

>  <SCORE.INTRA.VDW.0>
-0.659551

>  <SCORE.INTRA.norm>
-0.0139785

>  <SCORE.RESTR>
0

>  <SCORE.RESTR.CAVITY>
0

>  <SCORE.RESTR.norm>
0

>  <SCORE.SYSTEM>
0

>  <SCORE.SYSTEM.CONST>
0

>  <SCORE.SYSTEM.DIHEDRAL>
0

>  <SCORE.SYSTEM.SOLV>
0

>  <SCORE.SYSTEM.norm>
0

>  <SCORE.heavy>
10

>  <SCORE.norm>
-0.629019

>  <RMSD>
47.790

$$$$
ligand
 OpenBabel11021811473D
libRbt.so/2013.1/901 2013/11/27
 10  9  0  0  0  0  0  0  0  0999 V2000
    1.7253   46.2041    4.0412 N   0  0  0  0  0  0  0  0  0  0  0  0
    1.5610   47.0144    2.8019 C   0  0  2  0  0  0  0  0  0  0  0  0
    1.6017   48.5161    3.0854 C   0  0  0  0  0  0  0  0  0  0  0  0
    2.1161   49.3162    2.2972 O   0  0  0  0  0  0  0  0  0  0  0  0
    0.2769   46.6264    2.0642 C   0  0  0  0  0  0  0  0  0  0  0  0
    0.1630   47.2052    0.6601 C   0  0  0  0  0  0  0  0  0  0  0  0
   -1.0438   46.6262   -0.0779 C   0  0  0  0  0  0  0  0  0  0  0  0
   -2.3583   47.1603    0.4799 C   0  0  0  0  0  0  0  0  0  0  0  0
   -2.4942   48.6382    0.3223 N   0  0  0  0  0  0  0  0  0  0  0  0
    1.0951   48.9722    4.1082 O   0  0  0  0  0  0  0  0  0  0  0  0
  2  1  1  1  0  0  0
  2  3  1  0  0  0  0
  2  5  1  0  0  0  0
  3  4  1  0  0  0  0
  3 10  1  0  0  0  0
  5  6  1  0  0  0  0
  6  7  1  0  0  0  0
  7  8  1  0  0  0  0
  8  9  1  0  0  0  0
M  END
>  <CHROM.1>
144.22707828,-168.76439526,172.34339032,71.59113692,62.46236394,0.27360735
47.66207322,1.99071761,-0.15730517,0.72995077,-3.09194326

>  <Name>
ligand

>  <RI>
0

>  <Rbt.Current_Directory>
/home/itssahil/PROJECTS/Mol_Feturizer/New_Systems/rnas/3DJ2

>  <Rbt.Executable>
rbdock ($Id: //depot/dev/client3/rdock/2013.1/src/exe/rbdock.cxx#4 $)

>  <Rbt.Library>
libRbt.so (2013.1, Build901 2013/11/27)

>  <Rbt.Parameter_File>
/export/apps/rDock/src/rDock_2013.1_src/data/scripts/dock_solv.prm

>  <Rbt.Receptor>
prm/blind_docking_80.prm

>  <SCORE>
-5.58462

>  <SCORE.INTER>
-5.12638

>  <SCORE.INTER.CONST>
1

>  <SCORE.INTER.POLAR>
0

>  <SCORE.INTER.ROT>
5

>  <SCORE.INTER.SOLV>
10.4034

>  <SCORE.INTER.VDW>
-13.8187

>  <SCORE.INTER.norm>
-0.512638

>  <SCORE.INTRA>
-0.45824

>  <SCORE.INTRA.DIHEDRAL>
-1.53832

>  <SCORE.INTRA.DIHEDRAL.0>
4.28128

>  <SCORE.INTRA.POLAR>
0

>  <SCORE.INTRA.POLAR.0>
0

>  <SCORE.INTRA.REPUL>
0

>  <SCORE.INTRA.REPUL.0>
0

>  <SCORE.INTRA.SOLV>
0.0511218

>  <SCORE.INTRA.SOLV.lig_0>
-32.3374

>  <SCORE.INTRA.VDW>
0.285359

>  <SCORE.INTRA.VDW.0>
-0.659551

>  <SCORE.INTRA.norm>
-0.045824

>  <SCORE.RESTR>
0

>  <SCORE.RESTR.CAVITY>
0

>  <SCORE.RESTR.norm>
0

>  <SCORE.SYSTEM>
0

>  <SCORE.SYSTEM.CONST>
0

>  <SCORE.SYSTEM.DIHEDRAL>
0

>  <SCORE.SYSTEM.SOLV>
0

>  <SCORE.SYSTEM.norm>
0

>  <SCORE.heavy>
10

>  <SCORE.norm>
-0.558462

>  <RMSD>
47.822

$$$$
ligand
 OpenBabel11021811473D
libRbt.so/2013.1/901 2013/11/27
 10  9  0  0  0  0  0  0  0  0999 V2000
    1.7979   48.1756    2.6270 N   0  0  0  0  0  0  0  0  0  0  0  0
    0.7137   47.2546    3.0694 C   0  0  2  0  0  0  0  0  0  0  0  0
    1.2569   46.0572    3.8492 C   0  0  0  0  0  0  0  0  0  0  0  0
    0.9019   44.9003    3.6012 O   0  0  0  0  0  0  0  0  0  0  0  0
   -0.1335   46.7993    1.8782 C   0  0  0  0  0  0  0  0  0  0  0  0
   -0.9706   47.9042    1.2474 C   0  0  0  0  0  0  0  0  0  0  0  0
   -1.9241   47.3397    0.1947 C   0  0  0  0  0  0  0  0  0  0  0  0
   -2.8431   48.4160   -0.3722 C   0  0  0  0  0  0  0  0  0  0  0  0
   -3.8257   47.8760   -1.3571 N   0  0  0  0  0  0  0  0  0  0  0  0
    2.0899   46.2175    4.7388 O   0  0  0  0  0  0  0  0  0  0  0  0
  2  1  1  6  0  0  0
  2  3  1  0  0  0  0
  2  5  1  0  0  0  0
  3  4  1  0  0  0  0
  3 10  1  0  0  0  0
  5  6  1  0  0  0  0
  6  7  1  0  0  0  0
  7  8  1  0  0  0  0
  8  9  1  0  0  0  0
M  END
>  <CHROM.1>
-132.30163330,-68.12994956,-172.35401716,175.70761418,-177.37030759,-0.27277894
47.06451905,1.97499025,-0.54264163,-0.65110243,-0.41155990

>  <Name>
ligand

>  <RI>
0

>  <Rbt.Current_Directory>
/home/itssahil/PROJECTS/Mol_Feturizer/New_Systems/rnas/3DJ2

>  <Rbt.Executable>
rbdock ($Id: //depot/dev/client3/rdock/2013.1/src/exe/rbdock.cxx#4 $)

>  <Rbt.Library>
libRbt.so (2013.1, Build901 2013/11/27)

>  <Rbt.Parameter_File>
/export/apps/rDock/src/rDock_2013.1_src/data/scripts/dock_solv.prm

>  <Rbt.Receptor>
prm/blind_docking_80.prm

>  <SCORE>
-6.30495

>  <SCORE.INTER>
-5.3911

>  <SCORE.INTER.CONST>
1

>  <SCORE.INTER.POLAR>
0

>  <SCORE.INTER.ROT>
5

>  <SCORE.INTER.SOLV>
7.6403

>  <SCORE.INTER.VDW>
-13.0742

>  <SCORE.INTER.norm>
-0.53911

>  <SCORE.INTRA>
-0.913858

>  <SCORE.INTRA.DIHEDRAL>
-2.10445

>  <SCORE.INTRA.DIHEDRAL.0>
4.28128

>  <SCORE.INTRA.POLAR>
0

>  <SCORE.INTRA.POLAR.0>
0

>  <SCORE.INTRA.REPUL>
0

>  <SCORE.INTRA.REPUL.0>
0

>  <SCORE.INTRA.SOLV>
-0.582591

>  <SCORE.INTRA.SOLV.lig_0>
-32.3374

>  <SCORE.INTRA.VDW>
0.429663

>  <SCORE.INTRA.VDW.0>
-0.659551

>  <SCORE.INTRA.norm>
-0.0913858

>  <SCORE.RESTR>
0

>  <SCORE.RESTR.CAVITY>
0

>  <SCORE.RESTR.norm>
0

>  <SCORE.SYSTEM>
0

>  <SCORE.SYSTEM.CONST>
0

>  <SCORE.SYSTEM.DIHEDRAL>
0

>  <SCORE.SYSTEM.SOLV>
0

>  <SCORE.SYSTEM.norm>
0

>  <SCORE.heavy>
10

>  <SCORE.norm>
-0.630495

>  <RMSD>
47.868

$$$$
ligand
 OpenBabel11021811473D
libRbt.so/2013.1/901 2013/11/27
 10  9  0  0  0  0  0  0  0  0999 V2000
    1.4799   49.1968    3.1072 N   0  0  0  0  0  0  0  0  0  0  0  0
    0.7280   47.9210    2.9451 C   0  0  2  0  0  0  0  0  0  0  0  0
    1.6328   46.6968    3.0857 C   0  0  0  0  0  0  0  0  0  0  0  0
    2.6087   46.5176    2.3499 O   0  0  0  0  0  0  0  0  0  0  0  0
   -0.0268   47.8996    1.6133 C   0  0  0  0  0  0  0  0  0  0  0  0
   -0.8047   46.6159    1.3559 C   0  0  0  0  0  0  0  0  0  0  0  0
   -1.5098   46.6617    0.0006 C   0  0  0  0  0  0  0  0  0  0  0  0
   -2.7712   47.5167    0.0472 C   0  0  0  0  0  0  0  0  0  0  0  0
   -2.4788   48.9666    0.2463 N   0  0  0  0  0  0  0  0  0  0  0  0
    1.4214   45.8617    3.9625 O   0  0  0  0  0  0  0  0  0  0  0  0
  2  1  1  6  0  0  0
  2  3  1  0  0  0  0
  2  5  1  0  0  0  0
  3  4  1  0  0  0  0
  3 10  1  0  0  0  0
  5  6  1  0  0  0  0
  6  7  1  0  0  0  0
  7  8  1  0  0  0  0
  8  9  1  0  0  0  0
M  END
>  <CHROM.1>
-58.63335415,178.97257174,-179.04352753,-77.39372346,67.82238240,0.05573807
47.35753116,1.88232819,-0.09803553,-0.64965316,0.11823963

>  <Name>
ligand

>  <RI>
0

>  <Rbt.Current_Directory>
/home/itssahil/PROJECTS/Mol_Feturizer/New_Systems/rnas/3DJ2

>  <Rbt.Executable>
rbdock ($Id: //depot/dev/client3/rdock/2013.1/src/exe/rbdock.cxx#4 $)

>  <Rbt.Library>
libRbt.so (2013.1, Build901 2013/11/27)

>  <Rbt.Parameter_File>
/export/apps/rDock/src/rDock_2013.1_src/data/scripts/dock_solv.prm

>  <Rbt.Receptor>
prm/blind_docking_80.prm

>  <SCORE>
-6.65904

>  <SCORE.INTER>
-6.83558

>  <SCORE.INTER.CONST>
1

>  <SCORE.INTER.POLAR>
0

>  <SCORE.INTER.ROT>
5

>  <SCORE.INTER.SOLV>
5.76966

>  <SCORE.INTER.VDW>
-13.4136

>  <SCORE.INTER.norm>
-0.683558

>  <SCORE.INTRA>
0.176539

>  <SCORE.INTRA.DIHEDRAL>
-1.33479

>  <SCORE.INTRA.DIHEDRAL.0>
4.28128

>  <SCORE.INTRA.POLAR>
0

>  <SCORE.INTRA.POLAR.0>
0

>  <SCORE.INTRA.REPUL>
0

>  <SCORE.INTRA.REPUL.0>
0

>  <SCORE.INTRA.SOLV>
0.853986

>  <SCORE.INTRA.SOLV.lig_0>
-32.3374

>  <SCORE.INTRA.VDW>
0.416943

>  <SCORE.INTRA.VDW.0>
-0.659551

>  <SCORE.INTRA.norm>
0.0176539

>  <SCORE.RESTR>
0

>  <SCORE.RESTR.CAVITY>
0

>  <SCORE.RESTR.norm>
0

>  <SCORE.SYSTEM>
0

>  <SCORE.SYSTEM.CONST>
0

>  <SCORE.SYSTEM.DIHEDRAL>
0

>  <SCORE.SYSTEM.SOLV>
0

>  <SCORE.SYSTEM.norm>
0

>  <SCORE.heavy>
10

>  <SCORE.norm>
-0.665904

>  <RMSD>
47.870

$$$$
ligand
 OpenBabel11021811473D
libRbt.so/2013.1/901 2013/11/27
 10  9  0  0  0  0  0  0  0  0999 V2000
    2.1981   46.2046    3.8954 N   0  0  0  0  0  0  0  0  0  0  0  0
    1.6172   47.0683    2.8296 C   0  0  2  0  0  0  0  0  0  0  0  0
    1.4576   48.5186    3.2860 C   0  0  0  0  0  0  0  0  0  0  0  0
    1.4430   49.4581    2.4842 O   0  0  0  0  0  0  0  0  0  0  0  0
    0.2873   46.4970    2.3308 C   0  0  0  0  0  0  0  0  0  0  0  0
   -0.3301   47.2694    1.1725 C   0  0  0  0  0  0  0  0  0  0  0  0
   -1.6037   46.5879    0.6729 C   0  0  0  0  0  0  0  0  0  0  0  0
   -2.3632   47.4634   -0.3176 C   0  0  0  0  0  0  0  0  0  0  0  0
   -2.8661   48.7272    0.2967 N   0  0  0  0  0  0  0  0  0  0  0  0
    1.3141   48.7860    4.4772 O   0  0  0  0  0  0  0  0  0  0  0  0
  2  1  1  1  0  0  0
  2  3  1  0  0  0  0
  2  5  1  0  0  0  0
  3  4  1  0  0  0  0
  3 10  1  0  0  0  0
  5  6  1  0  0  0  0
  6  7  1  0  0  0  0
  7  8  1  0  0  0  0
  8  9  1  0  0  0  0
M  END
>  <CHROM.1>
154.67761409,-176.08370518,176.29332055,170.19718822,-64.03043943,0.12096791
47.69095309,2.12912703,-0.13537321,0.71252335,-2.99909072

>  <Name>
ligand

>  <RI>
0

>  <Rbt.Current_Directory>
/home/itssahil/PROJECTS/Mol_Feturizer/New_Systems/rnas/3DJ2

>  <Rbt.Executable>
rbdock ($Id: //depot/dev/client3/rdock/2013.1/src/exe/rbdock.cxx#4 $)

>  <Rbt.Library>
libRbt.so (2013.1, Build901 2013/11/27)

>  <Rbt.Parameter_File>
/export/apps/rDock/src/rDock_2013.1_src/data/scripts/dock_solv.prm

>  <Rbt.Receptor>
prm/blind_docking_80.prm

>  <SCORE>
-5.4602

>  <SCORE.INTER>
-4.15389

>  <SCORE.INTER.CONST>
1

>  <SCORE.INTER.POLAR>
0

>  <SCORE.INTER.ROT>
5

>  <SCORE.INTER.SOLV>
9.32143

>  <SCORE.INTER.VDW>
-12.8097

>  <SCORE.INTER.norm>
-0.415389

>  <SCORE.INTRA>
-1.30776

>  <SCORE.INTRA.DIHEDRAL>
-2.24266

>  <SCORE.INTRA.DIHEDRAL.0>
4.28128

>  <SCORE.INTRA.POLAR>
0

>  <SCORE.INTRA.POLAR.0>
0

>  <SCORE.INTRA.REPUL>
0

>  <SCORE.INTRA.REPUL.0>
0

>  <SCORE.INTRA.SOLV>
-0.38116

>  <SCORE.INTRA.SOLV.lig_0>
-32.3374

>  <SCORE.INTRA.VDW>
0.00414718

>  <SCORE.INTRA.VDW.0>
-0.659551

>  <SCORE.INTRA.norm>
-0.130776

>  <SCORE.RESTR>
0.00145488

>  <SCORE.RESTR.CAVITY>
0.00145488

>  <SCORE.RESTR.norm>
0.000145488

>  <SCORE.SYSTEM>
0

>  <SCORE.SYSTEM.CONST>
0

>  <SCORE.SYSTEM.DIHEDRAL>
0

>  <SCORE.SYSTEM.SOLV>
0

>  <SCORE.SYSTEM.norm>
0

>  <SCORE.heavy>
10

>  <SCORE.norm>
-0.54602

>  <RMSD>
47.882

$$$$
ligand
 OpenBabel11021811473D
libRbt.so/2013.1/901 2013/11/27
 10  9  0  0  0  0  0  0  0  0999 V2000
    0.9750   48.8861    2.6429 N   0  0  0  0  0  0  0  0  0  0  0  0
    0.6697   47.4326    2.7595 C   0  0  2  0  0  0  0  0  0  0  0  0
    1.9008   46.6144    3.1494 C   0  0  0  0  0  0  0  0  0  0  0  0
    1.9518   45.9724    4.2034 O   0  0  0  0  0  0  0  0  0  0  0  0
    0.0413   46.9031    1.4678 C   0  0  0  0  0  0  0  0  0  0  0  0
   -1.3370   47.4747    1.1627 C   0  0  0  0  0  0  0  0  0  0  0  0
   -1.9288   46.8424   -0.0967 C   0  0  0  0  0  0  0  0  0  0  0  0
   -3.3492   47.3293   -0.3609 C   0  0  0  0  0  0  0  0  0  0  0  0
   -3.4151   48.7944   -0.6375 N   0  0  0  0  0  0  0  0  0  0  0  0
    2.8742   46.5561    2.4010 O   0  0  0  0  0  0  0  0  0  0  0  0
  2  1  1  6  0  0  0
  2  3  1  0  0  0  0
  2  5  1  0  0  0  0
  3  4  1  0  0  0  0
  3 10  1  0  0  0  0
  5  6  1  0  0  0  0
  6  7  1  0  0  0  0
  7  8  1  0  0  0  0
  8  9  1  0  0  0  0
M  END
>  <CHROM.1>
117.75187771,-66.31520889,-176.87029510,175.90538366,63.65837778,-0.12483998
47.26013305,1.68607171,-0.11564833,-0.62892927,0.11307143

>  <Name>
ligand

>  <RI>
0

>  <Rbt.Current_Directory>
/home/itssahil/PROJECTS/Mol_Feturizer/New_Systems/rnas/3DJ2

>  <Rbt.Executable>
rbdock ($Id: //depot/dev/client3/rdock/2013.1/src/exe/rbdock.cxx#4 $)

>  <Rbt.Library>
libRbt.so (2013.1, Build901 2013/11/27)

>  <Rbt.Parameter_File>
/export/apps/rDock/src/rDock_2013.1_src/data/scripts/dock_solv.prm

>  <Rbt.Receptor>
prm/blind_docking_60.prm

>  <SCORE>
-7.79549

>  <SCORE.INTER>
-6.6706

>  <SCORE.INTER.CONST>
1

>  <SCORE.INTER.POLAR>
0

>  <SCORE.INTER.ROT>
5

>  <SCORE.INTER.SOLV>
5.32415

>  <SCORE.INTER.VDW>
-13.1551

>  <SCORE.INTER.norm>
-0.66706

>  <SCORE.INTRA>
-1.12489

>  <SCORE.INTRA.DIHEDRAL>
-2.41529

>  <SCORE.INTRA.DIHEDRAL.0>
4.28128

>  <SCORE.INTRA.POLAR>
0

>  <SCORE.INTRA.POLAR.0>
0

>  <SCORE.INTRA.REPUL>
0

>  <SCORE.INTRA.REPUL.0>
0

>  <SCORE.INTRA.SOLV>
0.318196

>  <SCORE.INTRA.SOLV.lig_0>
-32.3374

>  <SCORE.INTRA.VDW>
-0.0763448

>  <SCORE.INTRA.VDW.0>
-0.659551

>  <SCORE.INTRA.norm>
-0.112489

>  <SCORE.RESTR>
0

>  <SCORE.RESTR.CAVITY>
0

>  <SCORE.RESTR.norm>
0

>  <SCORE.SYSTEM>
0

>  <SCORE.SYSTEM.CONST>
0

>  <SCORE.SYSTEM.DIHEDRAL>
0

>  <SCORE.SYSTEM.SOLV>
0

>  <SCORE.SYSTEM.norm>
0

>  <SCORE.heavy>
10

>  <SCORE.norm>
-0.779549

>  <RMSD>
47.998

$$$$
ligand
 OpenBabel11021811473D
libRbt.so/2013.1/901 2013/11/27
 10  9  0  0  0  0  0  0  0  0999 V2000
    0.9301   48.8481    2.6192 N   0  0  0  0  0  0  0  0  0  0  0  0
    0.6014   47.4015    2.7557 C   0  0  2  0  0  0  0  0  0  0  0  0
    1.8298   46.5620    3.1072 C   0  0  0  0  0  0  0  0  0  0  0  0
    2.8259   46.5240    2.3776 O   0  0  0  0  0  0  0  0  0  0  0  0
   -0.0822   46.8769    1.4904 C   0  0  0  0  0  0  0  0  0  0  0  0
   -1.4092   47.5523    1.1706 C   0  0  0  0  0  0  0  0  0  0  0  0
   -2.0649   46.9236   -0.0586 C   0  0  0  0  0  0  0  0  0  0  0  0
   -3.4299   47.5376   -0.3485 C   0  0  0  0  0  0  0  0  0  0  0  0
   -4.0406   47.0188   -1.6076 N   0  0  0  0  0  0  0  0  0  0  0  0
    1.8652   45.9140    4.1511 O   0  0  0  0  0  0  0  0  0  0  0  0
  2  1  1  6  0  0  0
  2  3  1  0  0  0  0
  2  5  1  0  0  0  0
  3  4  1  0  0  0  0
  3 10  1  0  0  0  0
  5  6  1  0  0  0  0
  6  7  1  0  0  0  0
  7  8  1  0  0  0  0
  8  9  1  0  0  0  0
M  END
>  <CHROM.1>
-59.26434525,-61.72436984,-176.87267988,176.92459808,175.30726399,-0.25999462
47.09644946,1.58298030,0.05988474,-0.64014383,0.23282617

>  <Name>
ligand

>  <RI>
0

>  <Rbt.Current_Directory>
/home/itssahil/PROJECTS/Mol_Feturizer/New_Systems/rnas/3DJ2

>  <Rbt.Executable>
rbdock ($Id: //depot/dev/client3/rdock/2013.1/src/exe/rbdock.cxx#4 $)

>  <Rbt.Library>
libRbt.so (2013.1, Build901 2013/11/27)

>  <Rbt.Parameter_File>
/export/apps/rDock/src/rDock_2013.1_src/data/scripts/dock_solv.prm

>  <Rbt.Receptor>
prm/blind_docking_80.prm

>  <SCORE>
-7.40434

>  <SCORE.INTER>
-5.69781

>  <SCORE.INTER.CONST>
1

>  <SCORE.INTER.POLAR>
0

>  <SCORE.INTER.ROT>
5

>  <SCORE.INTER.SOLV>
9.86953

>  <SCORE.INTER.VDW>
-14.0217

>  <SCORE.INTER.norm>
-0.569781

>  <SCORE.INTRA>
-1.70653

>  <SCORE.INTRA.DIHEDRAL>
-2.57948

>  <SCORE.INTRA.DIHEDRAL.0>
4.28128

>  <SCORE.INTRA.POLAR>
0

>  <SCORE.INTRA.POLAR.0>
0

>  <SCORE.INTRA.REPUL>
0

>  <SCORE.INTRA.REPUL.0>
0

>  <SCORE.INTRA.SOLV>
-0.488695

>  <SCORE.INTRA.SOLV.lig_0>
-32.3374

>  <SCORE.INTRA.VDW>
-0.172441

>  <SCORE.INTRA.VDW.0>
-0.659551

>  <SCORE.INTRA.norm>
-0.170653

>  <SCORE.RESTR>
0

>  <SCORE.RESTR.CAVITY>
0

>  <SCORE.RESTR.norm>
0

>  <SCORE.SYSTEM>
0

>  <SCORE.SYSTEM.CONST>
0

>  <SCORE.SYSTEM.DIHEDRAL>
0

>  <SCORE.SYSTEM.SOLV>
0

>  <SCORE.SYSTEM.norm>
0

>  <SCORE.heavy>
10

>  <SCORE.norm>
-0.740434

>  <RMSD>
48.014

$$$$
ligand
 OpenBabel11021811473D
libRbt.so/2013.1/901 2013/11/27
 10  9  0  0  0  0  0  0  0  0999 V2000
    1.1511   48.8547    2.1908 N   0  0  0  0  0  0  0  0  0  0  0  0
    0.6911   47.4976    2.5983 C   0  0  2  0  0  0  0  0  0  0  0  0
    1.8448   46.6194    3.0830 C   0  0  0  0  0  0  0  0  0  0  0  0
    2.9103   46.5394    2.4631 O   0  0  0  0  0  0  0  0  0  0  0  0
   -0.0789   46.8199    1.4619 C   0  0  0  0  0  0  0  0  0  0  0  0
   -1.2834   47.6085    0.9652 C   0  0  0  0  0  0  0  0  0  0  0  0
   -2.0522   46.8268   -0.0998 C   0  0  0  0  0  0  0  0  0  0  0  0
   -3.2542   47.6083   -0.6182 C   0  0  0  0  0  0  0  0  0  0  0  0
   -4.2140   47.9760    0.4638 N   0  0  0  0  0  0  0  0  0  0  0  0
    1.7467   45.9812    4.1290 O   0  0  0  0  0  0  0  0  0  0  0  0
  2  1  1  6  0  0  0
  2  3  1  0  0  0  0
  2  5  1  0  0  0  0
  3  4  1  0  0  0  0
  3 10  1  0  0  0  0
  5  6  1  0  0  0  0
  6  7  1  0  0  0  0
  7  8  1  0  0  0  0
  8  9  1  0  0  0  0
M  END
>  <CHROM.1>
-46.19555785,-57.11174059,-176.16649673,-179.43770321,-58.18639886,-0.21804400
47.21251217,1.68249494,-0.31376953,-0.46312868,-0.34878993

>  <Name>
ligand

>  <RI>
0

>  <Rbt.Current_Directory>
/home/itssahil/PROJECTS/Mol_Feturizer/New_Systems/rnas/3DJ2

>  <Rbt.Executable>
rbdock ($Id: //depot/dev/client3/rdock/2013.1/src/exe/rbdock.cxx#4 $)

>  <Rbt.Library>
libRbt.so (2013.1, Build901 2013/11/27)

>  <Rbt.Parameter_File>
/export/apps/rDock/src/rDock_2013.1_src/data/scripts/dock_solv.prm

>  <Rbt.Receptor>
prm/blind_docking_80.prm

>  <SCORE>
-7.47277

>  <SCORE.INTER>
-6.39694

>  <SCORE.INTER.CONST>
1

>  <SCORE.INTER.POLAR>
0

>  <SCORE.INTER.ROT>
5

>  <SCORE.INTER.SOLV>
5.61538

>  <SCORE.INTER.VDW>
-13.0698

>  <SCORE.INTER.norm>
-0.639694

>  <SCORE.INTRA>
-1.07583

>  <SCORE.INTRA.DIHEDRAL>
-2.62773

>  <SCORE.INTRA.DIHEDRAL.0>
4.28128

>  <SCORE.INTRA.POLAR>
0

>  <SCORE.INTRA.POLAR.0>
0

>  <SCORE.INTRA.REPUL>
0

>  <SCORE.INTRA.REPUL.0>
0

>  <SCORE.INTRA.SOLV>
0.536776

>  <SCORE.INTRA.SOLV.lig_0>
-32.3374

>  <SCORE.INTRA.VDW>
-0.0303511

>  <SCORE.INTRA.VDW.0>
-0.659551

>  <SCORE.INTRA.norm>
-0.107583

>  <SCORE.RESTR>
0

>  <SCORE.RESTR.CAVITY>
0

>  <SCORE.RESTR.norm>
0

>  <SCORE.SYSTEM>
0

>  <SCORE.SYSTEM.CONST>
0

>  <SCORE.SYSTEM.DIHEDRAL>
0

>  <SCORE.SYSTEM.SOLV>
0

>  <SCORE.SYSTEM.norm>
0

>  <SCORE.heavy>
10

>  <SCORE.norm>
-0.747277

>  <RMSD>
48.022

$$$$
ligand
 OpenBabel11021811473D
libRbt.so/2013.1/901 2013/11/27
 10  9  0  0  0  0  0  0  0  0999 V2000
    1.0337   48.8883    2.3812 N   0  0  0  0  0  0  0  0  0  0  0  0
    0.6790   47.4667    2.6507 C   0  0  2  0  0  0  0  0  0  0  0  0
    1.8862   46.6482    3.1089 C   0  0  0  0  0  0  0  0  0  0  0  0
    2.9290   46.5961    2.4488 O   0  0  0  0  0  0  0  0  0  0  0  0
    0.0129   46.8307    1.4277 C   0  0  0  0  0  0  0  0  0  0  0  0
   -1.2905   47.4973    1.0080 C   0  0  0  0  0  0  0  0  0  0  0  0
   -1.9495   46.7407   -0.1450 C   0  0  0  0  0  0  0  0  0  0  0  0
   -3.3172   47.3178   -0.4926 C   0  0  0  0  0  0  0  0  0  0  0  0
   -3.2381   48.7106   -1.0230 N   0  0  0  0  0  0  0  0  0  0  0  0
    1.8557   46.0327    4.1725 O   0  0  0  0  0  0  0  0  0  0  0  0
  2  1  1  6  0  0  0
  2  3  1  0  0  0  0
  2  5  1  0  0  0  0
  3  4  1  0  0  0  0
  3 10  1  0  0  0  0
  5  6  1  0  0  0  0
  6  7  1  0  0  0  0
  7  8  1  0  0  0  0
  8  9  1  0  0  0  0
M  END
>  <CHROM.1>
-54.45741475,-61.26408396,-175.45855428,174.73248120,65.11228637,-0.10360360
47.25321454,1.57305268,-0.25155778,-0.62015195,-0.14441400

>  <Name>
ligand

>  <RI>
0

>  <Rbt.Current_Directory>
/home/itssahil/PROJECTS/Mol_Feturizer/New_Systems/rnas/3DJ2

>  <Rbt.Executable>
rbdock ($Id: //depot/dev/client3/rdock/2013.1/src/exe/rbdock.cxx#4 $)

>  <Rbt.Library>
libRbt.so (2013.1, Build901 2013/11/27)

>  <Rbt.Parameter_File>
/export/apps/rDock/src/rDock_2013.1_src/data/scripts/dock_solv.prm

>  <Rbt.Receptor>
prm/blind_docking_80.prm

>  <SCORE>
-7.72104

>  <SCORE.INTER>
-6.56017

>  <SCORE.INTER.CONST>
1

>  <SCORE.INTER.POLAR>
0

>  <SCORE.INTER.ROT>
5

>  <SCORE.INTER.SOLV>
5.07875

>  <SCORE.INTER.VDW>
-12.9997

>  <SCORE.INTER.norm>
-0.656017

>  <SCORE.INTRA>
-1.16087

>  <SCORE.INTRA.DIHEDRAL>
-2.43728

>  <SCORE.INTRA.DIHEDRAL.0>
4.28128

>  <SCORE.INTRA.POLAR>
0

>  <SCORE.INTRA.POLAR.0>
0

>  <SCORE.INTRA.REPUL>
0

>  <SCORE.INTRA.REPUL.0>
0

>  <SCORE.INTRA.SOLV>
0.361247

>  <SCORE.INTRA.SOLV.lig_0>
-32.3374

>  <SCORE.INTRA.VDW>
-0.122857

>  <SCORE.INTRA.VDW.0>
-0.659551

>  <SCORE.INTRA.norm>
-0.116087

>  <SCORE.RESTR>
0

>  <SCORE.RESTR.CAVITY>
0

>  <SCORE.RESTR.norm>
0

>  <SCORE.SYSTEM>
0

>  <SCORE.SYSTEM.CONST>
0

>  <SCORE.SYSTEM.DIHEDRAL>
0

>  <SCORE.SYSTEM.SOLV>
0

>  <SCORE.SYSTEM.norm>
0

>  <SCORE.heavy>
10

>  <SCORE.norm>
-0.772104

>  <RMSD>
48.024

$$$$
ligand
 OpenBabel11021811473D
libRbt.so/2013.1/901 2013/11/27
 10  9  0  0  0  0  0  0  0  0999 V2000
    1.1074   48.8843    2.3544 N   0  0  0  0  0  0  0  0  0  0  0  0
    0.6926   47.4784    2.6205 C   0  0  2  0  0  0  0  0  0  0  0  0
    1.8579   46.6155    3.1048 C   0  0  0  0  0  0  0  0  0  0  0  0
    1.8102   45.9909    4.1695 O   0  0  0  0  0  0  0  0  0  0  0  0
    0.0267   46.8645    1.3863 C   0  0  0  0  0  0  0  0  0  0  0  0
   -1.2936   47.5169    0.9984 C   0  0  0  0  0  0  0  0  0  0  0  0
   -1.9342   46.7994   -0.1895 C   0  0  0  0  0  0  0  0  0  0  0  0
   -3.3198   47.3519   -0.5045 C   0  0  0  0  0  0  0  0  0  0  0  0
   -3.2851   48.7730   -0.9589 N   0  0  0  0  0  0  0  0  0  0  0  0
    2.8756   46.5021    2.4248 O   0  0  0  0  0  0  0  0  0  0  0  0
  2  1  1  6  0  0  0
  2  3  1  0  0  0  0
  2  5  1  0  0  0  0
  3  4  1  0  0  0  0
  3 10  1  0  0  0  0
  5  6  1  0  0  0  0
  6  7  1  0  0  0  0
  7  8  1  0  0  0  0
  8  9  1  0  0  0  0
M  END
>  <CHROM.1>
124.25552002,-65.42543666,-176.72504675,174.39321326,64.85948611,-0.11099175
47.25645373,1.55987399,-0.25905187,-0.61935790,-0.13142657

>  <Name>
ligand

>  <RI>
0

>  <Rbt.Current_Directory>
/home/itssahil/PROJECTS/Mol_Feturizer/New_Systems/rnas/3DJ2

>  <Rbt.Executable>
rbdock ($Id: //depot/dev/client3/rdock/2013.1/src/exe/rbdock.cxx#4 $)

>  <Rbt.Library>
libRbt.so (2013.1, Build901 2013/11/27)

>  <Rbt.Parameter_File>
/export/apps/rDock/src/rDock_2013.1_src/data/scripts/dock_solv.prm

>  <Rbt.Receptor>
prm/blind_docking_80.prm

>  <SCORE>
-7.85085

>  <SCORE.INTER>
-6.69731

>  <SCORE.INTER.CONST>
1

>  <SCORE.INTER.POLAR>
0

>  <SCORE.INTER.ROT>
5

>  <SCORE.INTER.SOLV>
4.86751

>  <SCORE.INTER.VDW>
-13.0207

>  <SCORE.INTER.norm>
-0.669731

>  <SCORE.INTRA>
-1.15354

>  <SCORE.INTRA.DIHEDRAL>
-2.37114

>  <SCORE.INTRA.DIHEDRAL.0>
4.28128

>  <SCORE.INTRA.POLAR>
0

>  <SCORE.INTRA.POLAR.0>
0

>  <SCORE.INTRA.REPUL>
0

>  <SCORE.INTRA.REPUL.0>
0

>  <SCORE.INTRA.SOLV>
0.309004

>  <SCORE.INTRA.SOLV.lig_0>
-32.3374

>  <SCORE.INTRA.VDW>
-0.122472

>  <SCORE.INTRA.VDW.0>
-0.659551

>  <SCORE.INTRA.norm>
-0.115354

>  <SCORE.RESTR>
0

>  <SCORE.RESTR.CAVITY>
0

>  <SCORE.RESTR.norm>
0

>  <SCORE.SYSTEM>
0

>  <SCORE.SYSTEM.CONST>
0

>  <SCORE.SYSTEM.DIHEDRAL>
0

>  <SCORE.SYSTEM.SOLV>
0

>  <SCORE.SYSTEM.norm>
0

>  <SCORE.heavy>
10

>  <SCORE.norm>
-0.785085

>  <RMSD>
48.038

$$$$
ligand
 OpenBabel11021811473D
libRbt.so/2013.1/901 2013/11/27
 10  9  0  0  0  0  0  0  0  0999 V2000
    0.1677   48.4890    2.8210 N   0  0  0  0  0  0  0  0  0  0  0  0
    0.3751   47.0820    2.3776 C   0  0  2  0  0  0  0  0  0  0  0  0
    1.7169   46.5210    2.8488 C   0  0  0  0  0  0  0  0  0  0  0  0
    2.7484   46.6464    2.1808 O   0  0  0  0  0  0  0  0  0  0  0  0
    0.2299   46.9631    0.8583 C   0  0  0  0  0  0  0  0  0  0  0  0
   -1.1956   46.7135    0.3838 C   0  0  0  0  0  0  0  0  0  0  0  0
   -2.1183   47.8648    0.7829 C   0  0  0  0  0  0  0  0  0  0  0  0
   -3.5503   47.6311    0.3147 C   0  0  0  0  0  0  0  0  0  0  0  0
   -3.6871   47.6795   -1.1706 N   0  0  0  0  0  0  0  0  0  0  0  0
    1.8072   45.9440    3.9304 O   0  0  0  0  0  0  0  0  0  0  0  0
  2  1  1  6  0  0  0
  2  3  1  0  0  0  0
  2  5  1  0  0  0  0
  3  4  1  0  0  0  0
  3 10  1  0  0  0  0
  5  6  1  0  0  0  0
  6  7  1  0  0  0  0
  7  8  1  0  0  0  0
  8  9  1  0  0  0  0
M  END
>  <CHROM.1>
-88.67236153,-88.06669657,61.31130392,179.97012718,-67.78126098,-0.31143987
47.13871989,1.55071907,0.44058108,-0.40756709,1.18782892

>  <Name>
ligand

>  <RI>
0

>  <Rbt.Current_Directory>
/home/itssahil/PROJECTS/Mol_Feturizer/New_Systems/rnas/3DJ2

>  <Rbt.Executable>
rbdock ($Id: //depot/dev/client3/rdock/2013.1/src/exe/rbdock.cxx#4 $)

>  <Rbt.Library>
libRbt.so (2013.1, Build901 2013/11/27)

>  <Rbt.Parameter_File>
/export/apps/rDock/src/rDock_2013.1_src/data/scripts/dock_solv.prm

>  <Rbt.Receptor>
prm/blind_docking_80.prm

>  <SCORE>
-4.9527

>  <SCORE.INTER>
-6.02977

>  <SCORE.INTER.CONST>
1

>  <SCORE.INTER.POLAR>
0

>  <SCORE.INTER.ROT>
5

>  <SCORE.INTER.SOLV>
8.41506

>  <SCORE.INTER.VDW>
-13.7582

>  <SCORE.INTER.norm>
-0.602977

>  <SCORE.INTRA>
1.07707

>  <SCORE.INTRA.DIHEDRAL>
0.044741

>  <SCORE.INTRA.DIHEDRAL.0>
4.28128

>  <SCORE.INTRA.POLAR>
0

>  <SCORE.INTRA.POLAR.0>
0

>  <SCORE.INTRA.REPUL>
0

>  <SCORE.INTRA.REPUL.0>
0

>  <SCORE.INTRA.SOLV>
1.24831

>  <SCORE.INTRA.SOLV.lig_0>
-32.3374

>  <SCORE.INTRA.VDW>
0.430539

>  <SCORE.INTRA.VDW.0>
-0.659551

>  <SCORE.INTRA.norm>
0.107707

>  <SCORE.RESTR>
0

>  <SCORE.RESTR.CAVITY>
0

>  <SCORE.RESTR.norm>
0

>  <SCORE.SYSTEM>
0

>  <SCORE.SYSTEM.CONST>
0

>  <SCORE.SYSTEM.DIHEDRAL>
0

>  <SCORE.SYSTEM.SOLV>
0

>  <SCORE.SYSTEM.norm>
0

>  <SCORE.heavy>
10

>  <SCORE.norm>
-0.49527

>  <RMSD>
48.087

$$$$
ligand
 OpenBabel11021811473D
libRbt.so/2013.1/901 2013/11/27
 10  9  0  0  0  0  0  0  0  0999 V2000
    0.5082   48.7111    2.5061 N   0  0  0  0  0  0  0  0  0  0  0  0
    0.4592   47.2610    2.1681 C   0  0  2  0  0  0  0  0  0  0  0  0
    1.6030   46.4795    2.8148 C   0  0  0  0  0  0  0  0  0  0  0  0
    1.4294   45.7735    3.8135 O   0  0  0  0  0  0  0  0  0  0  0  0
    0.4389   47.0561    0.6511 C   0  0  0  0  0  0  0  0  0  0  0  0
   -0.7998   47.6122   -0.0386 C   0  0  0  0  0  0  0  0  0  0  0  0
   -2.0391   46.7863    0.3055 C   0  0  0  0  0  0  0  0  0  0  0  0
   -3.2852   47.3163   -0.3950 C   0  0  0  0  0  0  0  0  0  0  0  0
   -3.6995   48.6608    0.1029 N   0  0  0  0  0  0  0  0  0  0  0  0
    2.7341   46.5168    2.3350 O   0  0  0  0  0  0  0  0  0  0  0  0
  2  1  1  6  0  0  0
  2  3  1  0  0  0  0
  2  5  1  0  0  0  0
  3  4  1  0  0  0  0
  3 10  1  0  0  0  0
  5  6  1  0  0  0  0
  6  7  1  0  0  0  0
  7  8  1  0  0  0  0
  8  9  1  0  0  0  0
M  END
>  <CHROM.1>
103.08925617,-64.12662707,-70.21202041,-179.08697143,-67.31417028,-0.23094432
47.19720098,1.44731035,0.07256243,-0.59419352,0.52878343

>  <Name>
ligand

>  <RI>
0

>  <Rbt.Current_Directory>
/home/itssahil/PROJECTS/Mol_Feturizer/New_Systems/rnas/3DJ2

>  <Rbt.Executable>
rbdock ($Id: //depot/dev/client3/rdock/2013.1/src/exe/rbdock.cxx#4 $)

>  <Rbt.Library>
libRbt.so (2013.1, Build901 2013/11/27)

>  <Rbt.Parameter_File>
/export/apps/rDock/src/rDock_2013.1_src/data/scripts/dock_solv.prm

>  <Rbt.Receptor>
prm/blind_docking_80.prm

>  <SCORE>
-7.22317

>  <SCORE.INTER>
-6.79541

>  <SCORE.INTER.CONST>
1

>  <SCORE.INTER.POLAR>
0

>  <SCORE.INTER.ROT>
5

>  <SCORE.INTER.SOLV>
4.97101

>  <SCORE.INTER.VDW>
-13.1206

>  <SCORE.INTER.norm>
-0.679541

>  <SCORE.INTRA>
-0.427758

>  <SCORE.INTRA.DIHEDRAL>
-2.00961

>  <SCORE.INTRA.DIHEDRAL.0>
4.28128

>  <SCORE.INTRA.POLAR>
0

>  <SCORE.INTRA.POLAR.0>
0

>  <SCORE.INTRA.REPUL>
0

>  <SCORE.INTRA.REPUL.0>
0

>  <SCORE.INTRA.SOLV>
0.767986

>  <SCORE.INTRA.SOLV.lig_0>
-32.3374

>  <SCORE.INTRA.VDW>
0.193057

>  <SCORE.INTRA.VDW.0>
-0.659551

>  <SCORE.INTRA.norm>
-0.0427758

>  <SCORE.RESTR>
0

>  <SCORE.RESTR.CAVITY>
0

>  <SCORE.RESTR.norm>
0

>  <SCORE.SYSTEM>
0

>  <SCORE.SYSTEM.CONST>
0

>  <SCORE.SYSTEM.DIHEDRAL>
0

>  <SCORE.SYSTEM.SOLV>
0

>  <SCORE.SYSTEM.norm>
0

>  <SCORE.heavy>
10

>  <SCORE.norm>
-0.722317

>  <RMSD>
48.122

$$$$
ligand
 OpenBabel11021811473D
libRbt.so/2013.1/901 2013/11/27
 10  9  0  0  0  0  0  0  0  0999 V2000
    1.8790   48.9409    3.1687 N   0  0  0  0  0  0  0  0  0  0  0  0
    0.8629   47.8976    2.8547 C   0  0  2  0  0  0  0  0  0  0  0  0
    1.4736   46.4973    2.7965 C   0  0  0  0  0  0  0  0  0  0  0  0
    1.1269   45.6004    3.5720 O   0  0  0  0  0  0  0  0  0  0  0  0
    0.1230   48.2316    1.5568 C   0  0  0  0  0  0  0  0  0  0  0  0
   -1.0871   47.3487    1.2817 C   0  0  0  0  0  0  0  0  0  0  0  0
   -1.9043   47.8850    0.1068 C   0  0  0  0  0  0  0  0  0  0  0  0
   -3.2557   47.1884   -0.0078 C   0  0  0  0  0  0  0  0  0  0  0  0
   -4.1175   47.7728   -1.0770 N   0  0  0  0  0  0  0  0  0  0  0  0
    2.3194   46.2198    1.9488 O   0  0  0  0  0  0  0  0  0  0  0  0
  2  1  1  6  0  0  0
  2  3  1  0  0  0  0
  2  5  1  0  0  0  0
  3  4  1  0  0  0  0
  3 10  1  0  0  0  0
  5  6  1  0  0  0  0
  6  7  1  0  0  0  0
  7  8  1  0  0  0  0
  8  9  1  0  0  0  0
M  END
>  <CHROM.1>
117.92744321,-170.26689572,170.45734618,-168.54673473,175.22939248,-0.23509889
47.32592581,1.62653138,-0.15391722,-0.58052164,-0.07261239

>  <Name>
ligand

>  <RI>
0

>  <Rbt.Current_Directory>
/home/itssahil/PROJECTS/Mol_Feturizer/New_Systems/rnas/3DJ2

>  <Rbt.Executable>
rbdock ($Id: //depot/dev/client3/rdock/2013.1/src/exe/rbdock.cxx#4 $)

>  <Rbt.Library>
libRbt.so (2013.1, Build901 2013/11/27)

>  <Rbt.Parameter_File>
/export/apps/rDock/src/rDock_2013.1_src/data/scripts/dock_solv.prm

>  <Rbt.Receptor>
prm/blind_docking_100.prm

>  <SCORE>
-6.36456

>  <SCORE.INTER>
-4.81847

>  <SCORE.INTER.CONST>
1

>  <SCORE.INTER.POLAR>
0

>  <SCORE.INTER.ROT>
5

>  <SCORE.INTER.SOLV>
7.60728

>  <SCORE.INTER.VDW>
-12.6814

>  <SCORE.INTER.norm>
-0.481847

>  <SCORE.INTRA>
-1.5461

>  <SCORE.INTRA.DIHEDRAL>
-1.41634

>  <SCORE.INTRA.DIHEDRAL.0>
4.28128

>  <SCORE.INTRA.POLAR>
0

>  <SCORE.INTRA.POLAR.0>
0

>  <SCORE.INTRA.REPUL>
0

>  <SCORE.INTRA.REPUL.0>
0

>  <SCORE.INTRA.SOLV>
-1.34596

>  <SCORE.INTRA.SOLV.lig_0>
-32.3374

>  <SCORE.INTRA.VDW>
-0.164946

>  <SCORE.INTRA.VDW.0>
-0.659551

>  <SCORE.INTRA.norm>
-0.15461

>  <SCORE.RESTR>
0

>  <SCORE.RESTR.CAVITY>
0

>  <SCORE.RESTR.norm>
0

>  <SCORE.SYSTEM>
0

>  <SCORE.SYSTEM.CONST>
0

>  <SCORE.SYSTEM.DIHEDRAL>
0

>  <SCORE.SYSTEM.SOLV>
0

>  <SCORE.SYSTEM.norm>
0

>  <SCORE.heavy>
10

>  <SCORE.norm>
-0.636456

>  <RMSD>
48.133

$$$$
ligand
 OpenBabel11021811473D
libRbt.so/2013.1/901 2013/11/27
 10  9  0  0  0  0  0  0  0  0999 V2000
    1.7663   48.9215    3.3708 N   0  0  0  0  0  0  0  0  0  0  0  0
    0.8103   47.8614    2.9451 C   0  0  2  0  0  0  0  0  0  0  0  0
    1.4960   46.5077    2.7589 C   0  0  0  0  0  0  0  0  0  0  0  0
    2.3996   46.3410    1.9334 O   0  0  0  0  0  0  0  0  0  0  0  0
    0.0623   48.2804    1.6768 C   0  0  0  0  0  0  0  0  0  0  0  0
   -1.0943   47.3635    1.3010 C   0  0  0  0  0  0  0  0  0  0  0  0
   -1.8975   47.9399    0.1353 C   0  0  0  0  0  0  0  0  0  0  0  0
   -3.1892   47.1650   -0.1002 C   0  0  0  0  0  0  0  0  0  0  0  0
   -4.0389   47.7700   -1.1675 N   0  0  0  0  0  0  0  0  0  0  0  0
    1.1759   45.5451    3.4530 O   0  0  0  0  0  0  0  0  0  0  0  0
  2  1  1  6  0  0  0
  2  3  1  0  0  0  0
  2  5  1  0  0  0  0
  3  4  1  0  0  0  0
  3 10  1  0  0  0  0
  5  6  1  0  0  0  0
  6  7  1  0  0  0  0
  7  8  1  0  0  0  0
  8  9  1  0  0  0  0
M  END
>  <CHROM.1>
-60.92411549,-170.41345931,172.80360216,-170.27660558,175.75768060,-0.22624195
47.33818753,1.63500536,-0.07290150,-0.60927530,0.06785676

>  <Name>
ligand

>  <RI>
0

>  <Rbt.Current_Directory>
/home/itssahil/PROJECTS/Mol_Feturizer/New_Systems/rnas/3DJ2

>  <Rbt.Executable>
rbdock ($Id: //depot/dev/client3/rdock/2013.1/src/exe/rbdock.cxx#4 $)

>  <Rbt.Library>
libRbt.so (2013.1, Build901 2013/11/27)

>  <Rbt.Parameter_File>
/export/apps/rDock/src/rDock_2013.1_src/data/scripts/dock_solv.prm

>  <Rbt.Receptor>
prm/blind_docking_80.prm

>  <SCORE>
-6.37525

>  <SCORE.INTER>
-4.59904

>  <SCORE.INTER.CONST>
1

>  <SCORE.INTER.POLAR>
0

>  <SCORE.INTER.ROT>
5

>  <SCORE.INTER.SOLV>
8.03846

>  <SCORE.INTER.VDW>
-12.6788

>  <SCORE.INTER.norm>
-0.459904

>  <SCORE.INTRA>
-1.77621

>  <SCORE.INTRA.DIHEDRAL>
-1.76468

>  <SCORE.INTRA.DIHEDRAL.0>
4.28128

>  <SCORE.INTRA.POLAR>
0

>  <SCORE.INTRA.POLAR.0>
0

>  <SCORE.INTRA.REPUL>
0

>  <SCORE.INTRA.REPUL.0>
0

>  <SCORE.INTRA.SOLV>
-1.33854

>  <SCORE.INTRA.SOLV.lig_0>
-32.3374

>  <SCORE.INTRA.VDW>
-0.2246

>  <SCORE.INTRA.VDW.0>
-0.659551

>  <SCORE.INTRA.norm>
-0.177621

>  <SCORE.RESTR>
0

>  <SCORE.RESTR.CAVITY>
0

>  <SCORE.RESTR.norm>
0

>  <SCORE.SYSTEM>
0

>  <SCORE.SYSTEM.CONST>
0

>  <SCORE.SYSTEM.DIHEDRAL>
0

>  <SCORE.SYSTEM.SOLV>
0

>  <SCORE.SYSTEM.norm>
0

>  <SCORE.heavy>
10

>  <SCORE.norm>
-0.637525

>  <RMSD>
48.134

$$$$
ligand
 OpenBabel11021811473D
libRbt.so/2013.1/901 2013/11/27
 10  9  0  0  0  0  0  0  0  0999 V2000
    0.5146   48.7266    2.4712 N   0  0  0  0  0  0  0  0  0  0  0  0
    0.4229   47.2702    2.1715 C   0  0  2  0  0  0  0  0  0  0  0  0
    1.5517   46.4746    2.8272 C   0  0  0  0  0  0  0  0  0  0  0  0
    1.3743   45.8162    3.8572 O   0  0  0  0  0  0  0  0  0  0  0  0
    0.3816   47.0270    0.6606 C   0  0  0  0  0  0  0  0  0  0  0  0
   -0.8534   47.5903   -0.0301 C   0  0  0  0  0  0  0  0  0  0  0  0
   -2.0980   46.7728    0.3146 C   0  0  0  0  0  0  0  0  0  0  0  0
   -3.3401   47.3089   -0.3884 C   0  0  0  0  0  0  0  0  0  0  0  0
   -3.7187   48.6771    0.0721 N   0  0  0  0  0  0  0  0  0  0  0  0
    2.6732   46.4518    2.3245 O   0  0  0  0  0  0  0  0  0  0  0  0
  2  1  1  6  0  0  0
  2  3  1  0  0  0  0
  2  5  1  0  0  0  0
  3  4  1  0  0  0  0
  3 10  1  0  0  0  0
  5  6  1  0  0  0  0
  6  7  1  0  0  0  0
  7  8  1  0  0  0  0
  8  9  1  0  0  0  0
M  END
>  <CHROM.1>
101.94918458,-64.52792228,-71.95422688,-179.00624609,-65.29492510,-0.27540561
47.19112465,1.44927183,0.04297756,-0.60042789,0.47372686

>  <Name>
ligand

>  <RI>
0

>  <Rbt.Current_Directory>
/home/itssahil/PROJECTS/Mol_Feturizer/New_Systems/rnas/3DJ2

>  <Rbt.Executable>
rbdock ($Id: //depot/dev/client3/rdock/2013.1/src/exe/rbdock.cxx#4 $)

>  <Rbt.Library>
libRbt.so (2013.1, Build901 2013/11/27)

>  <Rbt.Parameter_File>
/export/apps/rDock/src/rDock_2013.1_src/data/scripts/dock_solv.prm

>  <Rbt.Receptor>
prm/blind_docking_100.prm

>  <SCORE>
-7.20252

>  <SCORE.INTER>
-6.81521

>  <SCORE.INTER.CONST>
1

>  <SCORE.INTER.POLAR>
0

>  <SCORE.INTER.ROT>
5

>  <SCORE.INTER.SOLV>
4.82613

>  <SCORE.INTER.VDW>
-13.0855

>  <SCORE.INTER.norm>
-0.681521

>  <SCORE.INTRA>
-0.387312

>  <SCORE.INTRA.DIHEDRAL>
-1.93441

>  <SCORE.INTRA.DIHEDRAL.0>
4.28128

>  <SCORE.INTRA.POLAR>
0

>  <SCORE.INTRA.POLAR.0>
0

>  <SCORE.INTRA.REPUL>
0

>  <SCORE.INTRA.REPUL.0>
0

>  <SCORE.INTRA.SOLV>
0.767288

>  <SCORE.INTRA.SOLV.lig_0>
-32.3374

>  <SCORE.INTRA.VDW>
0.196252

>  <SCORE.INTRA.VDW.0>
-0.659551

>  <SCORE.INTRA.norm>
-0.0387312

>  <SCORE.RESTR>
0

>  <SCORE.RESTR.CAVITY>
0

>  <SCORE.RESTR.norm>
0

>  <SCORE.SYSTEM>
0

>  <SCORE.SYSTEM.CONST>
0

>  <SCORE.SYSTEM.DIHEDRAL>
0

>  <SCORE.SYSTEM.SOLV>
0

>  <SCORE.SYSTEM.norm>
0

>  <SCORE.heavy>
10

>  <SCORE.norm>
-0.720252

>  <RMSD>
48.146

$$$$
ligand
 OpenBabel11021811473D
libRbt.so/2013.1/901 2013/11/27
 10  9  0  0  0  0  0  0  0  0999 V2000
    0.9221   48.8886    2.8852 N   0  0  0  0  0  0  0  0  0  0  0  0
    0.4021   47.6669    2.2097 C   0  0  2  0  0  0  0  0  0  0  0  0
    1.2586   46.4357    2.5060 C   0  0  0  0  0  0  0  0  0  0  0  0
    2.3341   46.2345    1.9327 O   0  0  0  0  0  0  0  0  0  0  0  0
    0.2659   47.8948    0.7020 C   0  0  0  0  0  0  0  0  0  0  0  0
   -0.4513   46.7733   -0.0378 C   0  0  0  0  0  0  0  0  0  0  0  0
   -1.9281   46.7131    0.3516 C   0  0  0  0  0  0  0  0  0  0  0  0
   -2.6981   47.9260   -0.1587 C   0  0  0  0  0  0  0  0  0  0  0  0
   -4.1383   47.9016    0.2317 N   0  0  0  0  0  0  0  0  0  0  0  0
    0.9035   45.6169    3.3513 O   0  0  0  0  0  0  0  0  0  0  0  0
  2  1  1  1  0  0  0
  2  3  1  0  0  0  0
  2  5  1  0  0  0  0
  3  4  1  0  0  0  0
  3 10  1  0  0  0  0
  5  6  1  0  0  0  0
  6  7  1  0  0  0  0
  7  8  1  0  0  0  0
  8  9  1  0  0  0  0
M  END
>  <CHROM.1>
-78.30268301,-171.36382082,67.99628426,68.37135056,-178.92467316,-0.28613158
47.17672540,1.41048538,-0.04940052,-0.54540800,0.27959690

>  <Name>
ligand

>  <RI>
0

>  <Rbt.Current_Directory>
/home/itssahil/PROJECTS/Mol_Feturizer/New_Systems/rnas/3DJ2

>  <Rbt.Executable>
rbdock ($Id: //depot/dev/client3/rdock/2013.1/src/exe/rbdock.cxx#4 $)

>  <Rbt.Library>
libRbt.so (2013.1, Build901 2013/11/27)

>  <Rbt.Parameter_File>
/export/apps/rDock/src/rDock_2013.1_src/data/scripts/dock_solv.prm

>  <Rbt.Receptor>
prm/blind_docking_60.prm

>  <SCORE>
-6.60107

>  <SCORE.INTER>
-5.84052

>  <SCORE.INTER.CONST>
1

>  <SCORE.INTER.POLAR>
0

>  <SCORE.INTER.ROT>
5

>  <SCORE.INTER.SOLV>
6.74242

>  <SCORE.INTER.VDW>
-13.0745

>  <SCORE.INTER.norm>
-0.584052

>  <SCORE.INTRA>
-0.760556

>  <SCORE.INTRA.DIHEDRAL>
-1.97609

>  <SCORE.INTRA.DIHEDRAL.0>
4.28128

>  <SCORE.INTRA.POLAR>
0

>  <SCORE.INTRA.POLAR.0>
0

>  <SCORE.INTRA.REPUL>
0

>  <SCORE.INTRA.REPUL.0>
0

>  <SCORE.INTRA.SOLV>
-0.841237

>  <SCORE.INTRA.SOLV.lig_0>
-32.3374

>  <SCORE.INTRA.VDW>
0.648108

>  <SCORE.INTRA.VDW.0>
-0.659551

>  <SCORE.INTRA.norm>
-0.0760556

>  <SCORE.RESTR>
0

>  <SCORE.RESTR.CAVITY>
0

>  <SCORE.RESTR.norm>
0

>  <SCORE.SYSTEM>
0

>  <SCORE.SYSTEM.CONST>
0

>  <SCORE.SYSTEM.DIHEDRAL>
0

>  <SCORE.SYSTEM.SOLV>
0

>  <SCORE.SYSTEM.norm>
0

>  <SCORE.heavy>
10

>  <SCORE.norm>
-0.660107

>  <RMSD>
48.160

$$$$
ligand
 OpenBabel11021811473D
libRbt.so/2013.1/901 2013/11/27
 10  9  0  0  0  0  0  0  0  0999 V2000
    1.4026   48.7605    2.3126 N   0  0  0  0  0  0  0  0  0  0  0  0
    0.6042   47.5223    2.5339 C   0  0  2  0  0  0  0  0  0  0  0  0
    1.4894   46.3087    2.8182 C   0  0  0  0  0  0  0  0  0  0  0  0
    1.3250   45.5993    3.8159 O   0  0  0  0  0  0  0  0  0  0  0  0
   -0.3306   47.2587    1.3506 C   0  0  0  0  0  0  0  0  0  0  0  0
   -1.1870   48.4533    0.9519 C   0  0  0  0  0  0  0  0  0  0  0  0
   -2.1327   48.0948   -0.1941 C   0  0  0  0  0  0  0  0  0  0  0  0
   -3.3349   47.2938    0.2934 C   0  0  0  0  0  0  0  0  0  0  0  0
   -4.2115   48.0725    1.2167 N   0  0  0  0  0  0  0  0  0  0  0  0
    2.3837   45.9917    2.0367 O   0  0  0  0  0  0  0  0  0  0  0  0
  2  1  1  6  0  0  0
  2  3  1  0  0  0  0
  2  5  1  0  0  0  0
  3  4  1  0  0  0  0
  3 10  1  0  0  0  0
  5  6  1  0  0  0  0
  6  7  1  0  0  0  0
  7  8  1  0  0  0  0
  8  9  1  0  0  0  0
M  END
>  <CHROM.1>
126.65274089,-51.07383109,-177.58969835,77.58579043,64.65807251,-0.37003805
47.30553532,1.72584044,-0.45854255,-0.23740655,-0.53979757

>  <Name>
ligand

>  <RI>
0

>  <Rbt.Current_Directory>
/home/itssahil/PROJECTS/Mol_Feturizer/New_Systems/rnas/3DJ2

>  <Rbt.Executable>
rbdock ($Id: //depot/dev/client3/rdock/2013.1/src/exe/rbdock.cxx#4 $)

>  <Rbt.Library>
libRbt.so (2013.1, Build901 2013/11/27)

>  <Rbt.Parameter_File>
/export/apps/rDock/src/rDock_2013.1_src/data/scripts/dock_solv.prm

>  <Rbt.Receptor>
prm/blind_docking_100.prm

>  <SCORE>
-4.49911

>  <SCORE.INTER>
-4.69771

>  <SCORE.INTER.CONST>
1

>  <SCORE.INTER.POLAR>
0

>  <SCORE.INTER.ROT>
5

>  <SCORE.INTER.SOLV>
5.93821

>  <SCORE.INTER.VDW>
-12.0445

>  <SCORE.INTER.norm>
-0.469771

>  <SCORE.INTRA>
0.198605

>  <SCORE.INTRA.DIHEDRAL>
-1.17264

>  <SCORE.INTRA.DIHEDRAL.0>
4.28128

>  <SCORE.INTRA.POLAR>
0

>  <SCORE.INTRA.POLAR.0>
0

>  <SCORE.INTRA.REPUL>
0

>  <SCORE.INTRA.REPUL.0>
0

>  <SCORE.INTRA.SOLV>
0.905252

>  <SCORE.INTRA.SOLV.lig_0>
-32.3374

>  <SCORE.INTRA.VDW>
0.332302

>  <SCORE.INTRA.VDW.0>
-0.659551

>  <SCORE.INTRA.norm>
0.0198605

>  <SCORE.RESTR>
0

>  <SCORE.RESTR.CAVITY>
0

>  <SCORE.RESTR.norm>
0

>  <SCORE.SYSTEM>
0

>  <SCORE.SYSTEM.CONST>
0

>  <SCORE.SYSTEM.DIHEDRAL>
0

>  <SCORE.SYSTEM.SOLV>
0

>  <SCORE.SYSTEM.norm>
0

>  <SCORE.heavy>
10

>  <SCORE.norm>
-0.449911

>  <RMSD>
48.172

$$$$
ligand
 OpenBabel11021811473D
libRbt.so/2013.1/901 2013/11/27
 10  9  0  0  0  0  0  0  0  0999 V2000
    1.8538   48.9631    3.0901 N   0  0  0  0  0  0  0  0  0  0  0  0
    0.8199   47.9305    2.7997 C   0  0  2  0  0  0  0  0  0  0  0  0
    1.4094   46.5206    2.7572 C   0  0  0  0  0  0  0  0  0  0  0  0
    2.3713   46.2359    2.0364 O   0  0  0  0  0  0  0  0  0  0  0  0
    0.0743   48.2565    1.5029 C   0  0  0  0  0  0  0  0  0  0  0  0
   -1.1384   47.3735    1.2399 C   0  0  0  0  0  0  0  0  0  0  0  0
   -1.9429   47.8848    0.0450 C   0  0  0  0  0  0  0  0  0  0  0  0
   -3.3121   47.2198   -0.0419 C   0  0  0  0  0  0  0  0  0  0  0  0
   -4.1582   47.7814   -1.1355 N   0  0  0  0  0  0  0  0  0  0  0  0
    0.9483   45.6295    3.4674 O   0  0  0  0  0  0  0  0  0  0  0  0
  2  1  1  6  0  0  0
  2  3  1  0  0  0  0
  2  5  1  0  0  0  0
  3  4  1  0  0  0  0
  3 10  1  0  0  0  0
  5  6  1  0  0  0  0
  6  7  1  0  0  0  0
  7  8  1  0  0  0  0
  8  9  1  0  0  0  0
M  END
>  <CHROM.1>
-53.59876189,-171.16256862,171.75194709,-167.02130282,175.39965316,-0.28478235
47.34717653,1.58355495,-0.17067632,-0.57319825,-0.11007932

>  <Name>
ligand

>  <RI>
0

>  <Rbt.Current_Directory>
/home/itssahil/PROJECTS/Mol_Feturizer/New_Systems/rnas/3DJ2

>  <Rbt.Executable>
rbdock ($Id: //depot/dev/client3/rdock/2013.1/src/exe/rbdock.cxx#4 $)

>  <Rbt.Library>
libRbt.so (2013.1, Build901 2013/11/27)

>  <Rbt.Parameter_File>
/export/apps/rDock/src/rDock_2013.1_src/data/scripts/dock_solv.prm

>  <Rbt.Receptor>
prm/blind_docking_60.prm

>  <SCORE>
-6.42756

>  <SCORE.INTER>
-4.79948

>  <SCORE.INTER.CONST>
1

>  <SCORE.INTER.POLAR>
0

>  <SCORE.INTER.ROT>
5

>  <SCORE.INTER.SOLV>
7.47662

>  <SCORE.INTER.VDW>
-12.6252

>  <SCORE.INTER.norm>
-0.479948

>  <SCORE.INTRA>
-1.62808

>  <SCORE.INTRA.DIHEDRAL>
-1.42653

>  <SCORE.INTRA.DIHEDRAL.0>
4.28128

>  <SCORE.INTRA.POLAR>
0

>  <SCORE.INTRA.POLAR.0>
0

>  <SCORE.INTRA.REPUL>
0

>  <SCORE.INTRA.REPUL.0>
0

>  <SCORE.INTRA.SOLV>
-1.33673

>  <SCORE.INTRA.SOLV.lig_0>
-32.3374

>  <SCORE.INTRA.VDW>
-0.246457

>  <SCORE.INTRA.VDW.0>
-0.659551

>  <SCORE.INTRA.norm>
-0.162808

>  <SCORE.RESTR>
0

>  <SCORE.RESTR.CAVITY>
0

>  <SCORE.RESTR.norm>
0

>  <SCORE.SYSTEM>
0

>  <SCORE.SYSTEM.CONST>
0

>  <SCORE.SYSTEM.DIHEDRAL>
0

>  <SCORE.SYSTEM.SOLV>
0

>  <SCORE.SYSTEM.norm>
0

>  <SCORE.heavy>
10

>  <SCORE.norm>
-0.642756

>  <RMSD>
48.196

$$$$
ligand
 OpenBabel11021811473D
libRbt.so/2013.1/901 2013/11/27
 10  9  0  0  0  0  0  0  0  0999 V2000
    0.8092   48.8221    2.1251 N   0  0  0  0  0  0  0  0  0  0  0  0
    0.4382   47.3831    2.0210 C   0  0  2  0  0  0  0  0  0  0  0  0
    1.4705   46.4721    2.6856 C   0  0  0  0  0  0  0  0  0  0  0  0
    1.1481   45.6150    3.5147 O   0  0  0  0  0  0  0  0  0  0  0  0
    0.2089   46.9844    0.5608 C   0  0  0  0  0  0  0  0  0  0  0  0
   -1.2213   46.5683    0.2433 C   0  0  0  0  0  0  0  0  0  0  0  0
   -2.1801   47.7519    0.3697 C   0  0  0  0  0  0  0  0  0  0  0  0
   -3.6166   47.3535    0.0504 C   0  0  0  0  0  0  0  0  0  0  0  0
   -4.5599   48.5091    0.0959 N   0  0  0  0  0  0  0  0  0  0  0  0
    2.6604   46.5562    2.3886 O   0  0  0  0  0  0  0  0  0  0  0  0
  2  1  1  6  0  0  0
  2  3  1  0  0  0  0
  2  5  1  0  0  0  0
  3  4  1  0  0  0  0
  3 10  1  0  0  0  0
  5  6  1  0  0  0  0
  6  7  1  0  0  0  0
  7  8  1  0  0  0  0
  8  9  1  0  0  0  0
M  END
>  <CHROM.1>
128.45964538,-115.46210696,66.84365930,179.80829146,-176.92551822,-0.45160197
47.17908001,1.42613893,-0.28746200,-0.41657503,-0.17082277

>  <Name>
ligand

>  <RI>
0

>  <Rbt.Current_Directory>
/home/itssahil/PROJECTS/Mol_Feturizer/New_Systems/rnas/3DJ2

>  <Rbt.Executable>
rbdock ($Id: //depot/dev/client3/rdock/2013.1/src/exe/rbdock.cxx#4 $)

>  <Rbt.Library>
libRbt.so (2013.1, Build901 2013/11/27)

>  <Rbt.Parameter_File>
/export/apps/rDock/src/rDock_2013.1_src/data/scripts/dock_solv.prm

>  <Rbt.Receptor>
prm/blind_docking_80.prm

>  <SCORE>
-5.92789

>  <SCORE.INTER>
-7.18674

>  <SCORE.INTER.CONST>
1

>  <SCORE.INTER.POLAR>
0

>  <SCORE.INTER.ROT>
5

>  <SCORE.INTER.SOLV>
4.57986

>  <SCORE.INTER.VDW>
-13.2511

>  <SCORE.INTER.norm>
-0.718674

>  <SCORE.INTRA>
1.25886

>  <SCORE.INTRA.DIHEDRAL>
3.09906

>  <SCORE.INTRA.DIHEDRAL.0>
4.28128

>  <SCORE.INTRA.POLAR>
0

>  <SCORE.INTRA.POLAR.0>
0

>  <SCORE.INTRA.REPUL>
0

>  <SCORE.INTRA.REPUL.0>
0

>  <SCORE.INTRA.SOLV>
-0.268651

>  <SCORE.INTRA.SOLV.lig_0>
-32.3374

>  <SCORE.INTRA.VDW>
-0.156347

>  <SCORE.INTRA.VDW.0>
-0.659551

>  <SCORE.INTRA.norm>
0.125886

>  <SCORE.RESTR>
0

>  <SCORE.RESTR.CAVITY>
0

>  <SCORE.RESTR.norm>
0

>  <SCORE.SYSTEM>
0

>  <SCORE.SYSTEM.CONST>
0

>  <SCORE.SYSTEM.DIHEDRAL>
0

>  <SCORE.SYSTEM.SOLV>
0

>  <SCORE.SYSTEM.norm>
0

>  <SCORE.heavy>
10

>  <SCORE.norm>
-0.592789

>  <RMSD>
48.258

$$$$
ligand
 OpenBabel11021811473D
libRbt.so/2013.1/901 2013/11/27
 10  9  0  0  0  0  0  0  0  0999 V2000
    2.0786   49.1555    2.7039 N   0  0  0  0  0  0  0  0  0  0  0  0
    1.1524   48.0564    3.0957 C   0  0  2  0  0  0  0  0  0  0  0  0
    1.7991   46.6787    2.9512 C   0  0  0  0  0  0  0  0  0  0  0  0
    2.6976   46.4612    2.1320 O   0  0  0  0  0  0  0  0  0  0  0  0
   -0.1552   48.1383    2.3038 C   0  0  0  0  0  0  0  0  0  0  0  0
   -0.9558   49.4105    2.5482 C   0  0  0  0  0  0  0  0  0  0  0  0
   -2.3577   49.3026    1.9489 C   0  0  0  0  0  0  0  0  0  0  0  0
   -3.2384   50.4797    2.3528 C   0  0  0  0  0  0  0  0  0  0  0  0
   -4.6296   50.3680    1.8241 N   0  0  0  0  0  0  0  0  0  0  0  0
    1.4515   45.7471    3.6740 O   0  0  0  0  0  0  0  0  0  0  0  0
  2  1  1  6  0  0  0
  2  3  1  0  0  0  0
  2  5  1  0  0  0  0
  3  4  1  0  0  0  0
  3 10  1  0  0  0  0
  5  6  1  0  0  0  0
  6  7  1  0  0  0  0
  7  8  1  0  0  0  0
  8  9  1  0  0  0  0
M  END
>  <CHROM.1>
-27.64709508,-62.51789014,-168.86004322,171.85646398,-177.68278824,-0.18995844
48.34238710,2.55375185,-0.56234292,-0.03266077,-0.18355140

>  <Name>
ligand

>  <RI>
0

>  <Rbt.Current_Directory>
/home/itssahil/PROJECTS/Mol_Feturizer/New_Systems/rnas/3DJ2

>  <Rbt.Executable>
rbdock ($Id: //depot/dev/client3/rdock/2013.1/src/exe/rbdock.cxx#4 $)

>  <Rbt.Library>
libRbt.so (2013.1, Build901 2013/11/27)

>  <Rbt.Parameter_File>
/export/apps/rDock/src/rDock_2013.1_src/data/scripts/dock_solv.prm

>  <Rbt.Receptor>
prm/blind_docking_80.prm

>  <SCORE>
-6.58617

>  <SCORE.INTER>
-5.2004

>  <SCORE.INTER.CONST>
1

>  <SCORE.INTER.POLAR>
0

>  <SCORE.INTER.ROT>
5

>  <SCORE.INTER.SOLV>
8.26027

>  <SCORE.INTER.VDW>
-13.1537

>  <SCORE.INTER.norm>
-0.52004

>  <SCORE.INTRA>
-1.38577

>  <SCORE.INTRA.DIHEDRAL>
-1.87703

>  <SCORE.INTRA.DIHEDRAL.0>
4.28128

>  <SCORE.INTRA.POLAR>
0

>  <SCORE.INTRA.POLAR.0>
0

>  <SCORE.INTRA.REPUL>
0

>  <SCORE.INTRA.REPUL.0>
0

>  <SCORE.INTRA.SOLV>
-0.519609

>  <SCORE.INTRA.SOLV.lig_0>
-32.3374

>  <SCORE.INTRA.VDW>
-0.187448

>  <SCORE.INTRA.VDW.0>
-0.659551

>  <SCORE.INTRA.norm>
-0.138577

>  <SCORE.RESTR>
0

>  <SCORE.RESTR.CAVITY>
0

>  <SCORE.RESTR.norm>
0

>  <SCORE.SYSTEM>
0

>  <SCORE.SYSTEM.CONST>
0

>  <SCORE.SYSTEM.DIHEDRAL>
0

>  <SCORE.SYSTEM.SOLV>
0

>  <SCORE.SYSTEM.norm>
0

>  <SCORE.heavy>
10

>  <SCORE.norm>
-0.658617

>  <RMSD>
48.438

$$$$
ligand
 OpenBabel11021811473D
libRbt.so/2013.1/901 2013/11/27
 10  9  0  0  0  0  0  0  0  0999 V2000
    1.9809   49.1010    2.6722 N   0  0  0  0  0  0  0  0  0  0  0  0
    1.0612   47.9898    3.0446 C   0  0  2  0  0  0  0  0  0  0  0  0
    1.7202   46.6192    2.8885 C   0  0  0  0  0  0  0  0  0  0  0  0
    2.6046   46.4109    2.0516 O   0  0  0  0  0  0  0  0  0  0  0  0
   -0.2416   48.0703    2.2447 C   0  0  0  0  0  0  0  0  0  0  0  0
   -1.0324   49.3531    2.4648 C   0  0  0  0  0  0  0  0  0  0  0  0
   -2.4352   49.2445    1.8676 C   0  0  0  0  0  0  0  0  0  0  0  0
   -3.3002   50.4460    2.2318 C   0  0  0  0  0  0  0  0  0  0  0  0
   -4.6875   50.3436    1.6912 N   0  0  0  0  0  0  0  0  0  0  0  0
    1.3976   45.6846    3.6188 O   0  0  0  0  0  0  0  0  0  0  0  0
  2  1  1  6  0  0  0
  2  3  1  0  0  0  0
  2  5  1  0  0  0  0
  3  4  1  0  0  0  0
  3 10  1  0  0  0  0
  5  6  1  0  0  0  0
  6  7  1  0  0  0  0
  7  8  1  0  0  0  0
  8  9  1  0  0  0  0
M  END
>  <CHROM.1>
-29.35635305,-60.65886736,-168.50644898,172.70689893,-178.38653438,-0.26720876
48.28899439,2.47773859,-0.56850483,-0.04786003,-0.17521662

>  <Name>
ligand

>  <RI>
0

>  <Rbt.Current_Directory>
/home/itssahil/PROJECTS/Mol_Feturizer/New_Systems/rnas/3DJ2

>  <Rbt.Executable>
rbdock ($Id: //depot/dev/client3/rdock/2013.1/src/exe/rbdock.cxx#4 $)

>  <Rbt.Library>
libRbt.so (2013.1, Build901 2013/11/27)

>  <Rbt.Parameter_File>
/export/apps/rDock/src/rDock_2013.1_src/data/scripts/dock_solv.prm

>  <Rbt.Receptor>
prm/blind_docking_60.prm

>  <SCORE>
-6.56344

>  <SCORE.INTER>
-5.16977

>  <SCORE.INTER.CONST>
1

>  <SCORE.INTER.POLAR>
0

>  <SCORE.INTER.ROT>
5

>  <SCORE.INTER.SOLV>
7.72698

>  <SCORE.INTER.VDW>
-12.9555

>  <SCORE.INTER.norm>
-0.516977

>  <SCORE.INTRA>
-1.39367

>  <SCORE.INTRA.DIHEDRAL>
-1.93737

>  <SCORE.INTRA.DIHEDRAL.0>
4.28128

>  <SCORE.INTRA.POLAR>
0

>  <SCORE.INTRA.POLAR.0>
0

>  <SCORE.INTRA.REPUL>
0

>  <SCORE.INTRA.REPUL.0>
0

>  <SCORE.INTRA.SOLV>
-0.496987

>  <SCORE.INTRA.SOLV.lig_0>
-32.3374

>  <SCORE.INTRA.VDW>
-0.176487

>  <SCORE.INTRA.VDW.0>
-0.659551

>  <SCORE.INTRA.norm>
-0.139367

>  <SCORE.RESTR>
0

>  <SCORE.RESTR.CAVITY>
0

>  <SCORE.RESTR.norm>
0

>  <SCORE.SYSTEM>
0

>  <SCORE.SYSTEM.CONST>
0

>  <SCORE.SYSTEM.DIHEDRAL>
0

>  <SCORE.SYSTEM.SOLV>
0

>  <SCORE.SYSTEM.norm>
0

>  <SCORE.heavy>
10

>  <SCORE.norm>
-0.656344

>  <RMSD>
48.481

$$$$
ligand
 OpenBabel11021811473D
libRbt.so/2013.1/901 2013/11/27
 10  9  0  0  0  0  0  0  0  0999 V2000
   -2.6870   49.1100    0.0143 N   0  0  0  0  0  0  0  0  0  0  0  0
   -2.4751   47.7292   -0.5031 C   0  0  2  0  0  0  0  0  0  0  0  0
   -3.7762   47.0892   -0.9877 C   0  0  0  0  0  0  0  0  0  0  0  0
   -4.7244   46.8781   -0.2247 O   0  0  0  0  0  0  0  0  0  0  0  0
   -1.7872   46.8538    0.5478 C   0  0  0  0  0  0  0  0  0  0  0  0
   -0.4053   47.3424    0.9613 C   0  0  0  0  0  0  0  0  0  0  0  0
    0.1102   46.5719    2.1765 C   0  0  0  0  0  0  0  0  0  0  0  0
    1.5075   47.0259    2.5838 C   0  0  0  0  0  0  0  0  0  0  0  0
    2.0374   46.2774    3.7611 N   0  0  0  0  0  0  0  0  0  0  0  0
   -3.9204   46.7868   -2.1704 O   0  0  0  0  0  0  0  0  0  0  0  0
  2  1  1  1  0  0  0
  2  3  1  0  0  0  0
  2  5  1  0  0  0  0
  3  4  1  0  0  0  0
  3 10  1  0  0  0  0
  5  6  1  0  0  0  0
  6  7  1  0  0  0  0
  7  8  1  0  0  0  0
  8  9  1  0  0  0  0
M  END
>  <CHROM.1>
-62.34615785,-61.35312341,169.98046613,178.64211970,-179.43100736,-1.65111763
47.15407510,0.59575762,-2.92540333,0.61671892,2.92330791

>  <Name>
ligand

>  <RI>
0

>  <Rbt.Current_Directory>
/home/itssahil/PROJECTS/Mol_Feturizer/New_Systems/rnas/3DJ2

>  <Rbt.Executable>
rbdock ($Id: //depot/dev/client3/rdock/2013.1/src/exe/rbdock.cxx#4 $)

>  <Rbt.Library>
libRbt.so (2013.1, Build901 2013/11/27)

>  <Rbt.Parameter_File>
/export/apps/rDock/src/rDock_2013.1_src/data/scripts/dock_solv.prm

>  <Rbt.Receptor>
prm/blind_docking_80.prm

>  <SCORE>
-5.24287

>  <SCORE.INTER>
-3.71156

>  <SCORE.INTER.CONST>
1

>  <SCORE.INTER.POLAR>
0

>  <SCORE.INTER.ROT>
5

>  <SCORE.INTER.SOLV>
9.57171

>  <SCORE.INTER.VDW>
-12.5983

>  <SCORE.INTER.norm>
-0.371156

>  <SCORE.INTRA>
-1.53131

>  <SCORE.INTRA.DIHEDRAL>
-2.33564

>  <SCORE.INTRA.DIHEDRAL.0>
4.28128

>  <SCORE.INTRA.POLAR>
0

>  <SCORE.INTRA.POLAR.0>
0

>  <SCORE.INTRA.REPUL>
0

>  <SCORE.INTRA.REPUL.0>
0

>  <SCORE.INTRA.SOLV>
-0.414259

>  <SCORE.INTRA.SOLV.lig_0>
-32.3374

>  <SCORE.INTRA.VDW>
-0.156355

>  <SCORE.INTRA.VDW.0>
-0.659551

>  <SCORE.INTRA.norm>
-0.153131

>  <SCORE.RESTR>
0

>  <SCORE.RESTR.CAVITY>
0

>  <SCORE.RESTR.norm>
0

>  <SCORE.SYSTEM>
0

>  <SCORE.SYSTEM.CONST>
0

>  <SCORE.SYSTEM.DIHEDRAL>
0

>  <SCORE.SYSTEM.SOLV>
0

>  <SCORE.SYSTEM.norm>
0

>  <SCORE.heavy>
10

>  <SCORE.norm>
-0.524287

>  <RMSD>
49.531

$$$$
ligand
 OpenBabel11021811473D
libRbt.so/2013.1/901 2013/11/27
 10  9  0  0  0  0  0  0  0  0999 V2000
    0.2870   52.3669   11.5572 N   0  0  0  0  0  0  0  0  0  0  0  0
   -1.0769   52.9279   11.3469 C   0  0  2  0  0  0  0  0  0  0  0  0
   -1.4440   53.0107    9.8652 C   0  0  0  0  0  0  0  0  0  0  0  0
   -0.9767   53.8813    9.1239 O   0  0  0  0  0  0  0  0  0  0  0  0
   -1.2149   54.2926   12.0269 C   0  0  0  0  0  0  0  0  0  0  0  0
   -1.0272   54.2603   13.5379 C   0  0  0  0  0  0  0  0  0  0  0  0
   -2.1541   53.4817   14.2162 C   0  0  0  0  0  0  0  0  0  0  0  0
   -1.9395   53.3711   15.7216 C   0  0  0  0  0  0  0  0  0  0  0  0
   -2.0433   54.6872   16.4176 N   0  0  0  0  0  0  0  0  0  0  0  0
   -2.2056   52.1864    9.3637 O   0  0  0  0  0  0  0  0  0  0  0  0
  2  1  1  6  0  0  0
  2  3  1  0  0  0  0
  2  5  1  0  0  0  0
  3  4  1  0  0  0  0
  3 10  1  0  0  0  0
  5  6  1  0  0  0  0
  6  7  1  0  0  0  0
  7  8  1  0  0  0  0
  8  9  1  0  0  0  0
M  END
>  <CHROM.1>
-75.58649529,-61.48164035,-66.54943643,176.73252977,66.98991666,-1.38681260
53.44496888,12.27327835,-1.45399867,0.55264338,1.32775024

>  <Name>
ligand

>  <RI>
0

>  <Rbt.Current_Directory>
/home/itssahil/PROJECTS/Mol_Feturizer/New_Systems/rnas/3DJ2

>  <Rbt.Executable>
rbdock ($Id: //depot/dev/client3/rdock/2013.1/src/exe/rbdock.cxx#4 $)

>  <Rbt.Library>
libRbt.so (2013.1, Build901 2013/11/27)

>  <Rbt.Parameter_File>
/export/apps/rDock/src/rDock_2013.1_src/data/scripts/dock_solv.prm

>  <Rbt.Receptor>
prm/blind_docking_80.prm

>  <SCORE>
-1.36277

>  <SCORE.INTER>
-0.820622

>  <SCORE.INTER.CONST>
1

>  <SCORE.INTER.POLAR>
0

>  <SCORE.INTER.ROT>
5

>  <SCORE.INTER.SOLV>
4.85093

>  <SCORE.INTER.VDW>
-9.09739

>  <SCORE.INTER.norm>
-0.0820622

>  <SCORE.INTRA>
-0.542147

>  <SCORE.INTRA.DIHEDRAL>
-2.37699

>  <SCORE.INTRA.DIHEDRAL.0>
4.28128

>  <SCORE.INTRA.POLAR>
0

>  <SCORE.INTRA.POLAR.0>
0

>  <SCORE.INTRA.REPUL>
0

>  <SCORE.INTRA.REPUL.0>
0

>  <SCORE.INTRA.SOLV>
0.868267

>  <SCORE.INTRA.SOLV.lig_0>
-32.3374

>  <SCORE.INTRA.VDW>
0.212213

>  <SCORE.INTRA.VDW.0>
-0.659551

>  <SCORE.INTRA.norm>
-0.0542147

>  <SCORE.RESTR>
0

>  <SCORE.RESTR.CAVITY>
0

>  <SCORE.RESTR.norm>
0

>  <SCORE.SYSTEM>
0

>  <SCORE.SYSTEM.CONST>
0

>  <SCORE.SYSTEM.DIHEDRAL>
0

>  <SCORE.SYSTEM.SOLV>
0

>  <SCORE.SYSTEM.norm>
0

>  <SCORE.heavy>
10

>  <SCORE.norm>
-0.136277

>  <RMSD>
50.186

$$$$
ligand
 OpenBabel11021811473D
libRbt.so/2013.1/901 2013/11/27
 10  9  0  0  0  0  0  0  0  0999 V2000
   -9.1212   53.8311   -0.1499 N   0  0  0  0  0  0  0  0  0  0  0  0
   -9.2633   54.6873    1.0609 C   0  0  2  0  0  0  0  0  0  0  0  0
   -9.4859   56.1572    0.7045 C   0  0  0  0  0  0  0  0  0  0  0  0
   -8.6321   57.0209    0.9304 O   0  0  0  0  0  0  0  0  0  0  0  0
   -8.0579   54.5209    1.9898 C   0  0  0  0  0  0  0  0  0  0  0  0
   -8.1268   55.3581    3.2601 C   0  0  0  0  0  0  0  0  0  0  0  0
   -6.8243   55.2623    4.0541 C   0  0  0  0  0  0  0  0  0  0  0  0
   -6.7492   56.3209    5.1486 C   0  0  0  0  0  0  0  0  0  0  0  0
   -5.3848   56.4431    5.7409 N   0  0  0  0  0  0  0  0  0  0  0  0
  -10.5253   56.5159    0.1551 O   0  0  0  0  0  0  0  0  0  0  0  0
  2  1  1  6  0  0  0
  2  3  1  0  0  0  0
  2  5  1  0  0  0  0
  3  4  1  0  0  0  0
  3 10  1  0  0  0  0
  5  6  1  0  0  0  0
  6  7  1  0  0  0  0
  7  8  1  0  0  0  0
  8  9  1  0  0  0  0
M  END
>  <CHROM.1>
-111.26650669,-179.66238049,-173.49745806,167.17392271,-167.67134703,-8.22982786
55.64305202,2.27188097,-2.81848313,-0.91914632,0.28698098

>  <Name>
ligand

>  <RI>
0

>  <Rbt.Current_Directory>
/home/itssahil/PROJECTS/Mol_Feturizer/New_Systems/rnas/3DJ2

>  <Rbt.Executable>
rbdock ($Id: //depot/dev/client3/rdock/2013.1/src/exe/rbdock.cxx#4 $)

>  <Rbt.Library>
libRbt.so (2013.1, Build901 2013/11/27)

>  <Rbt.Parameter_File>
/export/apps/rDock/src/rDock_2013.1_src/data/scripts/dock_solv.prm

>  <Rbt.Receptor>
prm/blind_docking_80.prm

>  <SCORE>
-5.20501

>  <SCORE.INTER>
-4.63671

>  <SCORE.INTER.CONST>
1

>  <SCORE.INTER.POLAR>
0

>  <SCORE.INTER.ROT>
5

>  <SCORE.INTER.SOLV>
16.3099

>  <SCORE.INTER.VDW>
-15.4611

>  <SCORE.INTER.norm>
-0.463671

>  <SCORE.INTRA>
-0.568293

>  <SCORE.INTRA.DIHEDRAL>
-1.38031

>  <SCORE.INTRA.DIHEDRAL.0>
4.28128

>  <SCORE.INTRA.POLAR>
0

>  <SCORE.INTRA.POLAR.0>
0

>  <SCORE.INTRA.REPUL>
0

>  <SCORE.INTRA.REPUL.0>
0

>  <SCORE.INTRA.SOLV>
-1.33633

>  <SCORE.INTRA.SOLV.lig_0>
-32.3374

>  <SCORE.INTRA.VDW>
0.790027

>  <SCORE.INTRA.VDW.0>
-0.659551

>  <SCORE.INTRA.norm>
-0.0568293

>  <SCORE.RESTR>
0

>  <SCORE.RESTR.CAVITY>
0

>  <SCORE.RESTR.norm>
0

>  <SCORE.SYSTEM>
0

>  <SCORE.SYSTEM.CONST>
0

>  <SCORE.SYSTEM.DIHEDRAL>
0

>  <SCORE.SYSTEM.SOLV>
0

>  <SCORE.SYSTEM.norm>
0

>  <SCORE.heavy>
10

>  <SCORE.norm>
-0.520501

>  <RMSD>
58.734

$$$$
