@<TRIPOS>MOLECULE
3DJ2_rdock.pdb
 3728 4173 0 0 0
SMALL
GASTEIGER

@<TRIPOS>ATOM
      1  P         38.4600   -8.8020   15.8120 P.3     1  G1          0.1280
      2  C5'       38.8950   -8.4140   13.2360 C.3     1  G1          0.1795
      3  O5'       38.1360   -9.0500   14.2610 O.3     1  G1         -0.3259
      4  C4'       38.3800   -8.7740   11.8510 C.3     1  G1          0.1772
      5  O4'       38.3340  -10.2180   11.6690 O.3     1  G1         -0.3307
      6  C3'       36.9670   -8.3050   11.5230 C.3     1  G1          0.1860
      7  O3'       36.9750   -6.9350   11.1410 O.3     1  G1         -0.3112
      8  C2'       36.6290   -9.2370   10.3620 C.3     1  G1          0.2309
      9  O2'       37.2340   -8.8460    9.1420 O.3     1  G1         -0.2156
     10  C1'       37.2180  -10.5590   10.8620 C.3     1  G1          0.2408
     11  N1        32.8830  -13.3140   10.9960 N.ar    1  G1         -0.1709
     12  C2        33.4690  -12.6740    9.9240 C.ar    1  G1          0.2606
     13  N2        32.8280  -12.7740    8.7520 N.pl3   1  G1         -0.0859
     14  N3        34.6040  -11.9810    9.9990 N.ar    1  G1         -0.1918
     15  C4        35.1230  -11.9740   11.2570 C.ar    1  G1          0.1723
     16  C5        34.6120  -12.5820   12.3880 C.ar    1  G1          0.1748
     17  C6        33.4010  -13.3180   12.2950 C.ar    1  G1          0.3023
     18  O6        32.8070  -13.9200   13.2030 O.2     1  G1         -0.2633
     19  N7        35.4260  -12.3530   13.4880 N.ar    1  G1         -0.2173
     20  C8        36.3960  -11.6240   13.0120 C.ar    1  G1          0.1817
     21  N9        36.2860  -11.3520   11.6680 N.ar    1  G1         -0.2693
     22  OP1       38.4050   -7.3410   16.0870 O.3     1  G1         -0.1955
     23  OP2       37.5780   -9.7250   16.5720 O.co2   1  G1         -0.7863
     24  P         35.6990   -5.9830   11.3480 P.3     2  G2          0.2141
     25  C5'       34.8890   -6.1020    8.8520 C.3     2  G2          0.1812
     26  O5'       34.6950   -6.4880   10.2120 O.3     2  G2         -0.3114
     27  C4'       33.8020   -6.6700    7.9540 C.3     2  G2          0.1773
     28  O4'       33.7870   -8.1230    8.0080 O.3     2  G2         -0.3307
     29  C3'       32.3840   -6.2690    8.3310 C.3     2  G2          0.1860
     30  O3'       32.0960   -4.9690    7.8380 O.3     2  G2         -0.3112
     31  C2'       31.5790   -7.3740    7.6530 C.3     2  G2          0.2309
     32  O2'       31.4590   -7.2190    6.2520 O.3     2  G2         -0.2156
     33  C1'       32.4480   -8.5880    7.9730 C.3     2  G2          0.2408
     34  N1        29.0740  -11.4290   10.5600 N.ar    2  G2         -0.1709
     35  C2        29.0250  -10.9840    9.2590 C.ar    2  G2          0.2606
     36  N2        27.9500  -11.3350    8.5430 N.pl3   2  G2         -0.0859
     37  N3        29.9690  -10.2470    8.6930 N.ar    2  G2         -0.1918
     38  C4        30.9930   -9.9750    9.5420 C.ar    2  G2          0.1723
     39  C5        31.1340  -10.3700   10.8540 C.ar    2  G2          0.1748
     40  C6        30.1170  -11.1610   11.4470 C.ar    2  G2          0.3023
     41  O6        30.0700  -11.6070   12.6020 O.2     2  G2         -0.2633
     42  N7        32.3230   -9.8910   11.3850 N.ar    2  G2         -0.2173
     43  C8        32.8670   -9.2260   10.4050 C.ar    2  G2          0.1817
     44  N9        32.1200   -9.2340    9.2490 N.ar    2  G2         -0.2693
     45  OP1       36.1330   -4.6030   11.0310 O.2     2  G2         -0.5172
     46  OP2       35.0740   -6.2700   12.6590 O.co2   2  G2         -0.4373
     47  P         31.2940   -3.9330    8.7560 P.3     3  C3          0.2141
     48  C5'       29.0650   -4.6610    7.5810 C.3     3  C3          0.1812
     49  O5'       29.8330   -4.5880    8.7770 O.3     3  C3         -0.3114
     50  C4'       27.8620   -5.5630    7.7600 C.3     3  C3          0.1773
     51  O4'       28.2860   -6.8760    8.1950 O.3     3  C3         -0.3307
     52  C3'       26.9070   -5.1360    8.8590 C.3     3  C3          0.1860
     53  O3'       26.0550   -4.0940    8.4240 O.3     3  C3         -0.3112
     54  C2'       26.1600   -6.4330    9.1440 C.3     3  C3          0.2309
     55  O2'       25.1570   -6.7510    8.1980 O.3     3  C3         -0.2156
     56  C1'       27.3080   -7.4310    9.0600 C.3     3  C3          0.2420
     57  N1        27.9060   -7.7180   10.4010 N.ar    3  C3         -0.2535
     58  C2        27.2090   -8.5260   11.3100 C.ar    3  C3          0.3532
     59  O2        26.1110   -8.9970   10.9960 O.2     3  C3         -0.2443
     60  N3        27.7640   -8.7760   12.5220 N.ar    3  C3         -0.1739
     61  C4        28.9540   -8.2570   12.8380 C.ar    3  C3          0.1759
     62  N4        29.4590   -8.5370   14.0420 N.pl3   3  C3         -0.1070
     63  C5        29.6790   -7.4290   11.9330 C.ar    3  C3          0.0566
     64  C6        29.1220   -7.1910   10.7410 C.ar    3  C3          0.0850
     65  OP1       31.2540   -2.6320    8.0570 O.2     3  C3         -0.5172
     66  OP2       31.8450   -3.9830   10.1290 O.co2   3  C3         -0.4373
     67  P         25.6710   -2.9350    9.4570 P.3     4  C4          0.2141
     68  C5'       23.2920   -4.0070    9.7740 C.3     4  C4          0.1812
     69  O5'       24.5370   -3.6290   10.3450 O.3     4  C4         -0.3114
     70  C4'       22.4900   -4.8260   10.7640 C.3     4  C4          0.1773
     71  O4'       23.1960   -6.0620   11.0580 O.3     4  C4         -0.3307
     72  C3'       22.3210   -4.2070   12.1430 C.3     4  C4          0.1860
     73  O3'       21.3230   -3.2010   12.1780 O.3     4  C4         -0.3112
     74  C2'       21.9350   -5.4380   12.9500 C.3     4  C4          0.2309
     75  O2'       20.6150   -5.8740   12.7000 O.3     4  C4         -0.2156
     76  C1'       22.9450   -6.4410   12.4040 C.3     4  C4          0.2420
     77  N1        24.2210   -6.4810   13.2150 N.ar    4  C4         -0.2535
     78  C2        24.2660   -7.2210   14.4140 C.ar    4  C4          0.3532
     79  O2        23.2680   -7.8480   14.8040 O.2     4  C4         -0.2443
     80  N3        25.4260   -7.2380   15.1270 N.ar    4  C4         -0.1739
     81  C4        26.4980   -6.5650   14.6980 C.ar    4  C4          0.1759
     82  N4        27.6070   -6.6230   15.4390 N.pl3   4  C4         -0.1070
     83  C5        26.4760   -5.8020   13.4920 C.ar    4  C4          0.0566
     84  C6        25.3330   -5.7910   12.7940 C.ar    4  C4          0.0850
     85  OP1       25.0740   -1.8390    8.6510 O.2     4  C4         -0.5172
     86  OP2       26.8260   -2.6600   10.3450 O.co2   4  C4         -0.4373
     87  P         21.5110   -1.9510   13.1690 P.3     5  G5          0.2141
     88  C5'       19.9810   -3.0900   14.9770 C.3     5  G5          0.1812
     89  O5'       21.2640   -2.5770   14.6190 O.3     5  G5         -0.3114
     90  C4'       20.0450   -3.8390   16.2940 C.3     5  G5          0.1773
     91  O4'       20.9560   -4.9610   16.1840 O.3     5  G5         -0.3307
     92  C3'       20.6050   -3.0680   17.4830 C.3     5  G5          0.1860
     93  O3'       19.6550   -2.1520   17.9970 O.3     5  G5         -0.3112
     94  C2'       20.8740   -4.2360   18.4260 C.3     5  G5          0.2309
     95  O2'       19.6940   -4.8190   18.9500 O.3     5  G5         -0.2156
     96  C1'       21.5510   -5.1950   17.4510 C.3     5  G5          0.2408
     97  N1        26.0300   -5.9970   19.7440 N.ar    5  G5         -0.1709
     98  C2        24.7670   -6.3900   20.1280 C.ar    5  G5          0.2606
     99  N2        24.6770   -7.0850   21.2670 N.pl3   5  G5         -0.0859
    100  N3        23.6640   -6.1190   19.4360 N.ar    5  G5         -0.1918
    101  C4        23.9240   -5.4070   18.3080 C.ar    5  G5          0.1723
    102  C5        25.1440   -4.9660   17.8370 C.ar    5  G5          0.1748
    103  C6        26.3130   -5.2670   18.5850 C.ar    5  G5          0.3023
    104  O6        27.4820   -4.9580   18.3260 O.2     5  G5         -0.2633
    105  N7        24.9900   -4.2650   16.6440 N.ar    5  G5         -0.2173
    106  C8        23.7050   -4.2970   16.4200 C.ar    5  G5          0.1817
    107  N9        22.9960   -4.9760   17.3860 N.ar    5  G5         -0.2693
    108  OP1       20.4270   -0.9950   12.8520 O.2     5  G5         -0.5172
    109  OP2       22.9180   -1.4890   13.1520 O.co2   5  G5         -0.4373
    110  P         20.1020   -0.9400   18.9480 P.3     6  A6          0.2141
    111  C5'       19.3390   -2.1120   21.1420 C.3     6  A6          0.1812
    112  O5'       20.4070   -1.6210   20.3600 O.3     6  A6         -0.3114
    113  C4'       19.8960   -2.9140   22.2940 C.3     6  A6          0.1773
    114  O4'       20.8200   -3.9130   21.8000 O.3     6  A6         -0.3307
    115  C3'       20.7250   -2.1100   23.2790 C.3     6  A6          0.1860
    116  O3'       19.8720   -1.4010   24.1600 O.3     6  A6         -0.3112
    117  C2'       21.4750   -3.2470   23.9560 C.3     6  A6          0.2309
    118  O2'       20.6500   -4.0050   24.8200 O.3     6  A6         -0.2156
    119  C1'       21.8620   -4.0830   22.7410 C.3     6  A6          0.2408
    120  N1        27.0160   -4.1370   23.1430 N.ar    6  A6         -0.2040
    121  C2        26.0460   -4.6320   23.9310 C.ar    6  A6          0.2016
    122  N3        24.7190   -4.5810   23.7660 N.ar    6  A6         -0.2048
    123  C4        24.4000   -3.9330   22.6360 C.ar    6  A6          0.1692
    124  C5        25.2790   -3.3720   21.7260 C.ar    6  A6          0.1518
    125  C6        26.6570   -3.4930   22.0090 C.ar    6  A6          0.1919
    126  N6        27.6110   -2.9940   21.2170 N.pl3   6  A6         -0.1054
    127  N7        24.5950   -2.7830   20.6780 N.ar    6  A6         -0.2193
    128  C8        23.3350   -2.9970   20.9730 C.ar    6  A6          0.1816
    129  N9        23.1400   -3.6900   22.1400 N.ar    6  A6         -0.2693
    130  OP1       18.9040   -0.0710   19.0690 O.3     6  A6         -0.4373
    131  OP2       21.3940   -0.3920   18.4840 O.co2   6  A6         -0.5172
    132  P         20.2960    0.0150   24.7790 P.3     7  C7          0.2141
    133  C5'       21.1530   -1.1730   26.9860 C.3     7  C7          0.1812
    134  O5'       21.4230   -0.3510   25.8570 O.3     7  C7         -0.3114
    135  C4'       22.4500   -1.6330   27.6330 C.3     7  C7          0.1773
    136  O4'       23.2040   -2.4790   26.7280 O.3     7  C7         -0.3307
    137  C3'       23.4370   -0.5240   27.9410 C.3     7  C7          0.1860
    138  O3'       23.0790    0.1760   29.1150 O.3     7  C7         -0.3112
    139  C2'       24.7430   -1.3050   28.0750 C.3     7  C7          0.2309
    140  O2'       24.8590   -2.0300   29.2850 O.3     7  C7         -0.2156
    141  C1'       24.5980   -2.2480   26.8900 C.3     7  C7          0.2420
    142  N1        25.2150   -1.6610   25.6390 N.ar    7  C7         -0.2535
    143  C2        26.6050   -1.7320   25.4700 C.ar    7  C7          0.3532
    144  O2        27.2900   -2.2790   26.3370 O.2     7  C7         -0.2443
    145  N3        27.1630   -1.2020   24.3540 N.ar    7  C7         -0.1739
    146  C4        26.3940   -0.6130   23.4300 C.ar    7  C7          0.1759
    147  N4        26.9930   -0.1110   22.3420 N.pl3   7  C7         -0.1070
    148  C5        24.9770   -0.5280   23.5770 C.ar    7  C7          0.0566
    149  C6        24.4380   -1.0550   24.6800 C.ar    7  C7          0.0850
    150  OP1       19.0900    0.5230   25.4770 O.3     7  C7         -0.4373
    151  OP2       20.9610    0.8410   23.7450 O.co2   7  C7         -0.5172
    152  P         23.5230    1.7070   29.2510 P.3     8  G8          0.2141
    153  C5'       25.5600    0.9070   30.7450 C.3     8  G8          0.1812
    154  O5'       25.0820    1.6240   29.6120 O.3     8  G8         -0.3114
    155  C4'       27.0740    0.9710   30.8060 C.3     8  G8          0.1773
    156  O4'       27.6680    0.2640   29.6900 O.3     8  G8         -0.3307
    157  C3'       27.6450    2.3710   30.6850 C.3     8  G8          0.1860
    158  O3'       27.5960    2.9930   31.9500 O.3     8  G8         -0.3112
    159  C2'       29.0720    2.0890   30.2330 C.3     8  G8          0.2309
    160  O2'       29.9030    1.7090   31.3110 O.3     8  G8         -0.2156
    161  C1'       28.8530    0.9270   29.2760 C.3     8  G8          0.2408
    162  N1        31.3080    2.4320   25.0430 N.ar    8  G8         -0.1709
    163  C2        31.8140    2.1330   26.2860 C.ar    8  G8          0.2606
    164  N2        33.1390    2.2440   26.4300 N.pl3   8  G8         -0.0859
    165  N3        31.0700    1.7520   27.3200 N.ar    8  G8         -0.1918
    166  C4        29.7500    1.6970   27.0130 C.ar    8  G8          0.1723
    167  C5        29.1490    1.9790   25.8040 C.ar    8  G8          0.1748
    168  C6        29.9580    2.3830   24.7090 C.ar    8  G8          0.3023
    169  O6        29.6100    2.6800   23.5580 O.2     8  G8         -0.2633
    170  N7        27.7720    1.8010   25.8890 N.ar    8  G8         -0.2173
    171  C8        27.5750    1.4210   27.1230 C.ar    8  G8          0.1817
    172  N9        28.7300    1.3300   27.8690 N.ar    8  G8         -0.2693
    173  OP1       22.7580    2.2650   30.3920 O.3     8  G8         -0.4373
    174  OP2       23.4440    2.3570   27.9260 O.co2   8  G8         -0.5172
    175  P         27.7210    4.5800   32.0840 P.3     9  G9          0.2141
    176  C5'       29.5860    5.7810   30.7410 C.3     9  G9          0.1812
    177  O5'       29.2530    4.8080   31.6860 O.3     9  G9         -0.3114
    178  C4'       31.0310    5.6250   30.3340 C.3     9  G9          0.1773
    179  O4'       31.1480    4.6420   29.2700 O.3     9  G9         -0.3307
    180  C3'       31.5920    6.9150   29.7700 C.3     9  G9          0.1860
    181  O3'       32.0980    7.6950   30.8530 O.3     9  G9         -0.3112
    182  C2'       32.6450    6.4180   28.7800 C.3     9  G9          0.2309
    183  O2'       33.8930    6.1200   29.3710 O.3     9  G9         -0.2156
    184  C1'       32.0060    5.1320   28.2550 C.3     9  G9          0.2408
    185  N1        32.1440    6.1910   23.2560 N.ar    9  G9         -0.1709
    186  C2        33.1820    6.1040   24.1540 C.ar    9  G9          0.2606
    187  N2        34.4070    6.3250   23.6660 N.pl3   9  G9         -0.0859
    188  N3        33.0280    5.8150   25.4410 N.ar    9  G9         -0.1918
    189  C4        31.7260    5.6250   25.7750 C.ar    9  G9          0.1723
    190  C5        30.6210    5.6970   24.9550 C.ar    9  G9          0.1748
    191  C6        30.8030    5.9990   23.5850 C.ar    9  G9          0.3023
    192  O6        29.9260    6.0970   22.7140 O.2     9  G9         -0.2633
    193  N7        29.4560    5.4370   25.6620 N.ar    9  G9         -0.2173
    194  C8        29.8700    5.2200   26.8790 C.ar    9  G9          0.1817
    195  N9        31.2350    5.3170   27.0270 N.ar    9  G9         -0.2693
    196  OP1       27.5790    4.9030   33.5280 O.3     9  G9         -0.4373
    197  OP2       26.8320    5.2290   31.0850 O.co2   9  G9         -0.5172
    198  P         32.0740    9.2980   30.7680 P.3    10  A10         0.2141
    199  C5'       34.5610    9.3430   30.0370 C.3    10  A10         0.1812
    200  O5'       33.2090    9.5950   29.6850 O.3    10  A10        -0.3114
    201  C4'       35.4900    9.7560   28.9170 C.3    10  A10         0.1773
    202  O4'       35.2260    8.9490   27.7490 O.3    10  A10        -0.3307
    203  C3'       35.2790   11.1920   28.4720 C.3    10  A10         0.1860
    204  O3'       36.0650   12.0350   29.3200 O.3    10  A10        -0.3112
    205  C2'       35.7190   11.1560   27.0100 C.3    10  A10         0.2309
    206  O2'       37.1150   11.3110   26.8530 O.3    10  A10        -0.2156
    207  C1'       35.3190    9.7460   26.5840 C.3    10  A10         0.2408
    208  N1        32.9540    9.7890   21.9900 N.ar   10  A10        -0.2040
    209  C2        34.2400    9.9450   22.3220 C.ar   10  A10         0.2016
    210  N3        34.7860    9.9250   23.5410 N.ar   10  A10        -0.2048
    211  C4        33.8600    9.7230   24.4990 C.ar   10  A10         0.1692
    212  C5        32.5030    9.5470   24.3050 C.ar   10  A10         0.1518
    213  C6        32.0500    9.5810   22.9690 C.ar   10  A10         0.1919
    214  N6        30.7700    9.4310   22.6300 N.pl3  10  A10        -0.1054
    215  N7        31.8510    9.3570   25.5140 N.ar   10  A10        -0.2193
    216  C8        32.8160    9.4140   26.3990 C.ar   10  A10         0.1816
    217  N9        34.0540    9.6380   25.8620 N.ar   10  A10        -0.2693
    218  OP1       32.5200    9.8300   32.0780 O.3    10  A10        -0.4373
    219  OP2       30.7800    9.7370   30.2030 O.co2  10  A10        -0.5172
    220  P         35.8560   13.6170   29.3540 P.3    11  G11         0.2141
    221  C5'       36.3840   15.2620   27.3970 C.3    11  G11         0.1812
    222  O5'       36.5310   13.9860   27.9580 O.3    11  G11        -0.3114
    223  C4'       37.1720   15.3180   26.1070 C.3    11  G11         0.1773
    224  O4'       36.6590   14.3470   25.1560 O.3    11  G11        -0.3307
    225  C3'       37.0810   16.6670   25.4140 C.3    11  G11         0.1860
    226  O3'       38.3080   16.9740   24.7310 O.3    11  G11        -0.3112
    227  C2'       35.9070   16.4650   24.4670 C.3    11  G11         0.2309
    228  O2'       35.9310   17.4020   23.4080 O.3    11  G11        -0.2156
    229  C1'       36.1370   15.0150   24.0190 C.3    11  G11         0.2408
    230  N1        31.5810   12.8640   25.2270 N.ar   11  G11        -0.1709
    231  C2        32.5210   13.3990   26.0710 C.ar   11  G11         0.2606
    232  N2        32.1960   13.3500   27.3710 N.pl3  11  G11        -0.0859
    233  N3        33.6800   13.9370   25.6680 N.ar   11  G11        -0.1918
    234  C4        33.8320   13.8980   24.3180 C.ar   11  G11         0.1723
    235  C5        32.9430   13.3830   23.3960 C.ar   11  G11         0.1748
    236  C6        31.7160   12.8230   23.8410 C.ar   11  G11         0.3023
    237  O6        30.8100   12.3230   23.1610 O.2    11  G11        -0.2633
    238  N7        33.4350   13.5130   22.1060 N.ar   11  G11        -0.2173
    239  C8        34.5880   14.0940   22.2600 C.ar   11  G11         0.1817
    240  N9        34.9100   14.3550   23.5710 N.ar   11  G11        -0.2693
    241  OP1       36.6730   14.1780   30.4500 O.3    11  G11        -0.4373
    242  OP2       34.4160   13.9460   29.2940 O.co2  11  G11        -0.5172
    243  P         39.4420   17.7710   25.5280 P.3    12  G12         0.2141
    244  C5'       38.1010   19.9380   24.8660 C.3    12  G12         0.1812
    245  O5'       38.7720   19.1740   25.8620 O.3    12  G12        -0.3114
    246  C4'       37.0010   20.7230   25.5400 C.3    12  G12         0.1773
    247  O4'       36.0560   19.7680   26.0830 O.3    12  G12        -0.3307
    248  C3'       37.4630   21.5890   26.7140 C.3    12  G12         0.1860
    249  O3'       36.9370   22.9130   26.5760 O.3    12  G12        -0.3112
    250  C2'       36.9070   20.8600   27.9400 C.3    12  G12         0.2309
    251  O2'       36.5500   21.7320   28.9890 O.3    12  G12        -0.2156
    252  C1'       35.6450   20.2690   27.3290 C.3    12  G12         0.2408
    253  N1        32.0350   16.6220   27.4690 N.ar   12  G12        -0.1709
    254  C2        32.4530   17.3860   26.4080 C.ar   12  G12         0.2606
    255  N2        31.8200   17.1600   25.2480 N.pl3  12  G12        -0.0859
    256  N3        33.4120   18.3080   26.4810 N.ar   12  G12        -0.1918
    257  C4        33.9390   18.4110   27.7260 C.ar   12  G12         0.1723
    258  C5        33.5930   17.6860   28.8460 C.ar   12  G12         0.1748
    259  C6        32.5680   16.7080   28.7500 C.ar   12  G12         0.3023
    260  O6        32.1310   15.9650   29.6410 O.2    12  G12        -0.2633
    261  N7        34.3610   18.0680   29.9380 N.ar   12  G12        -0.2173
    262  C8        35.1390   18.9990   29.4700 C.ar   12  G12         0.1817
    263  N9        34.9480   19.2610   28.1330 N.ar   12  G12        -0.2693
    264  OP1       40.5750   18.0090   24.6180 O.2    12  G12        -0.5172
    265  OP2       39.6440   17.1040   26.8310 O.co2  12  G12        -0.4373
    266  P         37.8190   24.1130   25.9770 P.3    13  C13         0.2141
    267  C5'       37.2870   25.2360   28.3020 C.3    13  C13         0.1812
    268  O5'       37.3910   25.3600   26.8840 O.3    13  C13        -0.3114
    269  C4'       35.9980   25.8570   28.8200 C.3    13  C13         0.1773
    270  O4'       36.0220   27.2990   28.6070 O.3    13  C13        -0.3307
    271  C3'       34.7380   25.3470   28.1320 C.3    13  C13         0.1860
    272  O3'       33.7280   25.0490   29.0840 O.3    13  C13        -0.3112
    273  C2'       34.3360   26.5010   27.2170 C.3    13  C13         0.2309
    274  O2'       32.9490   26.5740   26.9740 O.3    13  C13        -0.2156
    275  C1'       34.7970   27.7060   28.0290 C.3    13  C13         0.2420
    276  N1        34.9620   28.9450   27.1870 N.ar   13  C13        -0.2535
    277  C2        34.0850   30.0360   27.3700 C.ar   13  C13         0.3532
    278  O2        33.1970   29.9840   28.2350 O.2    13  C13        -0.2443
    279  N3        34.2390   31.1410   26.5910 N.ar   13  C13        -0.1739
    280  C4        35.2020   31.1860   25.6650 C.ar   13  C13         0.1759
    281  N4        35.3020   32.2990   24.9310 N.pl3  13  C13        -0.1070
    282  C5        36.0990   30.0900   25.4560 C.ar   13  C13         0.0566
    283  C6        35.9440   29.0040   26.2270 C.ar   13  C13         0.0850
    284  OP1       37.3070   24.3200   24.6070 O.2    13  C13        -0.5172
    285  OP2       39.2660   23.8590   26.1760 O.co2  13  C13        -0.4373
    286  P         32.9290   23.6640   29.0150 P.3    14  G14         0.2141
    287  C5'       32.8390   23.3070   26.3880 C.3    14  G14         0.1812
    288  O5'       32.1760   23.7070   27.5890 O.3    14  G14        -0.3114
    289  C4'       31.9870   22.4880   25.4400 C.3    14  G14         0.1773
    290  O4'       32.2050   21.0780   25.7080 O.3    14  G14        -0.3307
    291  C3'       30.4810   22.6770   25.5610 C.3    14  G14         0.1860
    292  O3'       30.0440   23.8220   24.8300 O.3    14  G14        -0.3112
    293  C2'       29.9970   21.3480   24.9880 C.3    14  G14         0.2309
    294  O2'       30.1610   21.2180   23.5910 O.3    14  G14        -0.2156
    295  C1'       30.9640   20.3940   25.6800 C.3    14  G14         0.2408
    296  N1        27.5290   17.9620   28.6250 N.ar   14  G14        -0.1709
    297  C2        27.5660   18.0660   27.2520 C.ar   14  G14         0.2606
    298  N2        26.5760   17.4540   26.5800 N.pl3  14  G14        -0.0859
    299  N3        28.5200   18.7250   26.5880 N.ar   14  G14        -0.1918
    300  C4        29.4490   19.2860   27.4150 C.ar   14  G14         0.1723
    301  C5        29.4890   19.2320   28.7920 C.ar   14  G14         0.1748
    302  C6        28.4720   18.5290   29.4830 C.ar   14  G14         0.3023
    303  O6        28.3550   18.3810   30.7030 O.2    14  G14        -0.2633
    304  N7        30.5840   19.9220   29.2810 N.ar   14  G14        -0.2173
    305  C8        31.1820   20.3740   28.2160 C.ar   14  G14         0.1817
    306  N9        30.5540   20.0340   27.0440 N.ar   14  G14        -0.2693
    307  OP1       31.9020   23.6990   30.0750 O.3    14  G14        -0.4373
    308  OP2       33.9200   22.5620   29.0310 O.co2  14  G14        -0.5172
    309  P         28.8160   24.7170   25.3500 P.3    15  C15         0.2141
    310  C5'       27.3820   23.4420   23.5210 C.3    15  C15         0.1812
    311  O5'       27.5640   23.8450   24.8830 O.3    15  C15        -0.3114
    312  C4'       26.2160   22.4810   23.4400 C.3    15  C15         0.1773
    313  O4'       26.5140   21.3110   24.2420 O.3    15  C15        -0.3307
    314  C3'       24.9370   23.0040   24.0690 C.3    15  C15         0.1860
    315  O3'       24.2590   23.9030   23.1880 O.3    15  C15        -0.3112
    316  C2'       24.1860   21.7040   24.3320 C.3    15  C15         0.2309
    317  O2'       23.5830   21.1660   23.1740 O.3    15  C15        -0.2156
    318  C1'       25.3170   20.7930   24.8090 C.3    15  C15         0.2420
    319  N1        25.4130   20.7250   26.3160 N.ar   15  C15        -0.2535
    320  C2        24.5080   19.9400   27.0520 C.ar   15  C15         0.3532
    321  O2        23.6370   19.2870   26.4710 O.2    15  C15        -0.2443
    322  N3        24.6150   19.9030   28.4040 N.ar   15  C15        -0.1739
    323  C4        25.5650   20.6110   29.0280 C.ar   15  C15         0.1759
    324  N4        25.6340   20.5430   30.3610 N.pl3  15  C15        -0.1070
    325  C5        26.4950   21.4160   28.3070 C.ar   15  C15         0.0566
    326  C6        26.3800   21.4400   26.9720 C.ar   15  C15         0.0850
    327  OP1       28.8250   25.9840   24.6010 O.2    15  C15        -0.5172
    328  OP2       28.7880   24.7540   26.8280 O.co2  15  C15        -0.4373
    329  P         23.6230   25.2610   23.7600 P.3    16  G16         0.2141
    330  C5'       21.1950   24.4020   23.5160 C.3    16  G16         0.1812
    331  O5'       22.2590   24.7240   24.3740 O.3    16  G16        -0.3114
    332  C4'       20.2490   23.4210   24.1820 C.3    16  G16         0.1773
    333  O4'       21.0020   22.3830   24.8550 O.3    16  G16        -0.3307
    334  C3'       19.3600   23.9850   25.2740 C.3    16  G16         0.1860
    335  O3'       18.2400   24.6510   24.7080 O.3    16  G16        -0.3112
    336  C2'       18.9490   22.6940   25.9660 C.3    16  G16         0.2309
    337  O2'       17.9850   21.9600   25.2340 O.3    16  G16        -0.2156
    338  C1'       20.2750   21.9400   25.9850 C.3    16  G16         0.2408
    339  N1        20.5420   21.2600   31.0340 N.ar   16  G16        -0.1709
    340  C2        19.5360   20.9100   30.1590 C.ar   16  G16         0.2606
    341  N2        18.4650   20.2970   30.6800 N.pl3  16  G16        -0.0859
    342  N3        19.5830   21.1390   28.8550 N.ar   16  G16        -0.1918
    343  C4        20.7330   21.7640   28.4790 C.ar   16  G16         0.1723
    344  C5        21.7920   22.1560   29.2700 C.ar   16  G16         0.1748
    345  C6        21.7310   21.8980   30.6630 C.ar   16  G16         0.3023
    346  O6        22.5760   22.1760   31.5230 O.2    16  G16        -0.2633
    347  N7        22.7820   22.7710   28.5100 N.ar   16  G16        -0.2173
    348  C8        22.3120   22.7380   27.2960 C.ar   16  G16         0.1817
    349  N9        21.0730   22.1440   27.1980 N.ar   16  G16        -0.2693
    350  OP1       23.3250   26.1650   22.6330 O.2    16  G16        -0.5172
    351  OP2       24.4640   25.7590   24.8720 O.co2  16  G16        -0.4373
    352  P         17.5220   25.8620   25.4730 P.3    17  C17         0.2141
    353  C5'       15.4900   24.4330   26.3020 C.3    17  C17         0.1812
    354  O5'       16.6750   25.1360   26.6070 O.3    17  C17        -0.3114
    355  C4'       14.9380   23.8750   27.5950 C.3    17  C17         0.1773
    356  O4'       15.9170   22.9840   28.1900 O.3    17  C17        -0.3307
    357  C3'       14.7420   24.9110   28.6870 C.3    17  C17         0.1860
    358  O3'       13.5430   25.6480   28.4880 O.3    17  C17        -0.3112
    359  C2'       14.7180   24.0210   29.9230 C.3    17  C17         0.2309
    360  O2'       13.5230   23.2730   30.0330 O.3    17  C17        -0.2156
    361  C1'       15.8800   23.0900   29.6090 C.3    17  C17         0.2420
    362  N1        17.1970   23.5860   30.1610 N.ar   17  C17        -0.2535
    363  C2        17.4990   23.4220   31.5320 C.ar   17  C17         0.3532
    364  O2        16.6870   22.8630   32.2940 O.2    17  C17        -0.2443
    365  N3        18.6950   23.8920   31.9940 N.ar   17  C17        -0.1739
    366  C4        19.5570   24.4950   31.1670 C.ar   17  C17         0.1759
    367  N4        20.7160   24.9310   31.6640 N.pl3  17  C17        -0.1070
    368  C5        19.2660   24.6710   29.7830 C.ar   17  C17         0.0566
    369  C6        18.0930   24.2090   29.3330 C.ar   17  C17         0.0850
    370  OP1       16.6130   26.5060   24.4960 O.2    17  C17        -0.5172
    371  OP2       18.5550   26.6580   26.1700 O.co2  17  C17        -0.4373
    372  P         13.4370   27.1850   28.9350 P.3    18  C18         0.2141
    373  C5'       12.4120   26.5090   31.2070 C.3    18  C18         0.1812
    374  O5'       13.5360   27.0570   30.5230 O.3    18  C18        -0.3114
    375  C4'       12.6970   26.2990   32.6760 C.3    18  C18         0.1773
    376  O4'       13.8650   25.4600   32.8480 O.3    18  C18        -0.3307
    377  C3'       13.0590   27.5490   33.4560 C.3    18  C18         0.1860
    378  O3'       11.8920   28.3130   33.6990 O.3    18  C18        -0.3112
    379  C2'       13.6570   26.8930   34.7010 C.3    18  C18         0.2309
    380  O2'       12.7060   26.2710   35.5470 O.3    18  C18        -0.2156
    381  C1'       14.5460   25.8410   34.0330 C.3    18  C18         0.2420
    382  N1        15.9290   26.3470   33.6810 N.ar   18  C18        -0.2535
    383  C2        16.8790   26.5920   34.6950 C.ar   18  C18         0.3532
    384  O2        16.5920   26.3870   35.8810 O.2    18  C18        -0.2443
    385  N3        18.1060   27.0490   34.3490 N.ar   18  C18        -0.1739
    386  C4        18.3970   27.2640   33.0630 C.ar   18  C18         0.1759
    387  N4        19.6200   27.7140   32.7620 N.pl3  18  C18        -0.1070
    388  C5        17.4490   27.0330   32.0210 C.ar   18  C18         0.0566
    389  C6        16.2480   26.5740   32.3700 C.ar   18  C18         0.0850
    390  OP1       12.0720   27.6400   28.5850 O.3    18  C18        -0.4373
    391  OP2       14.6020   27.9490   28.4350 O.co2  18  C18        -0.5172
    392  P         11.9700   29.8930   33.9270 P.3    19  C19         0.2141
    393  C5'       11.8930   29.4850   36.5450 C.3    19  C19         0.1812
    394  O5'       12.5820   30.0060   35.4050 O.3    19  C19        -0.3114
    395  C4'       12.7610   29.5740   37.7880 C.3    19  C19         0.1773
    396  O4'       14.0070   28.8720   37.5740 O.3    19  C19        -0.3307
    397  C3'       13.1770   30.9850   38.1620 C.3    19  C19         0.1860
    398  O3'       12.1950   31.5330   39.0130 O.3    19  C19        -0.3112
    399  C2'       14.4890   30.7750   38.9040 C.3    19  C19         0.2309
    400  O2'       14.2950   30.4930   40.2780 O.3    19  C19        -0.2156
    401  C1'       15.0770   29.5610   38.1930 C.3    19  C19         0.2420
    402  N1        16.1490   29.8520   37.1650 N.ar   19  C19        -0.2535
    403  C2        17.4660   30.1410   37.5710 C.ar   19  C19         0.3532
    404  O2        17.7460   30.1720   38.7800 O.2    19  C19        -0.2443
    405  N3        18.4120   30.3820   36.6260 N.ar   19  C19        -0.1739
    406  C4        18.0840   30.3440   35.3300 C.ar   19  C19         0.1759
    407  N4        19.0370   30.5870   34.4200 N.pl3  19  C19        -0.1070
    408  C5        16.7520   30.0580   34.8990 C.ar   19  C19         0.0566
    409  C6        15.8350   29.8170   35.8370 C.ar   19  C19         0.0850
    410  OP1       10.5730   30.3970   33.9090 O.3    19  C19        -0.4373
    411  OP2       12.9610   30.4770   32.9910 O.co2  19  C19        -0.5172
    412  P         11.6700   33.0270   38.7950 P.3    20  G20         0.2141
    413  C5'       13.3760   33.9540   40.5870 C.3    20  G20         0.1812
    414  O5'       12.9060   33.9360   39.2460 O.3    20  G20        -0.3114
    415  C4'       14.7540   34.5850   40.5960 C.3    20  G20         0.1773
    416  O4'       15.6810   33.7470   39.8570 O.3    20  G20        -0.3307
    417  C3'       14.8400   35.9390   39.9070 C.3    20  G20         0.1860
    418  O3'       14.4950   36.9640   40.8290 O.3    20  G20        -0.3112
    419  C2'       16.3140   35.9970   39.5160 C.3    20  G20         0.2309
    420  O2'       17.1480   36.4040   40.5880 O.3    20  G20        -0.2156
    421  C1'       16.6250   34.5430   39.1640 C.3    20  G20         0.2408
    422  N1        19.2120   33.7590   34.7860 N.ar   20  G20        -0.1709
    423  C2        19.6990   34.1040   36.0270 C.ar   20  G20         0.2606
    424  N2        21.0270   34.2570   36.1220 N.pl3  20  G20        -0.0859
    425  N3        18.9310   34.2860   37.1020 N.ar   20  G20        -0.1918
    426  C4        17.6090   34.0950   36.8400 C.ar   20  G20         0.1723
    427  C5        17.0350   33.7500   35.6360 C.ar   20  G20         0.1748
    428  C6        17.8620   33.5610   34.4960 C.ar   20  G20         0.3023
    429  O6        17.5160   33.2560   33.3410 O.2    20  G20        -0.2633
    430  N7        15.6600   33.6470   35.7590 N.ar   20  G20        -0.2173
    431  C8        15.4280   33.9200   37.0100 C.ar   20  G20         0.1817
    432  N9        16.5620   34.2070   37.7370 N.ar   20  G20        -0.2693
    433  OP1       10.5480   33.2310   39.7450 O.3    20  G20        -0.4373
    434  OP2       11.5020   33.2510   37.3430 O.co2  20  G20        -0.5172
    435  P         13.2410   37.9310   40.5870 P.3    21  A21         0.2141
    436  C5'       13.6620   39.7190   42.5600 C.3    21  A21         0.1812
    437  O5'       13.7760   39.3300   41.1770 O.3    21  A21        -0.3114
    438  C4'       14.8650   40.5380   43.0190 C.3    21  A21         0.1773
    439  O4'       16.0710   39.7630   42.7830 O.3    21  A21        -0.3307
    440  C3'       15.1650   41.8230   42.2560 C.3    21  A21         0.1860
    441  O3'       14.3580   42.9240   42.6670 O.3    21  A21        -0.3112
    442  C2'       16.6500   42.0340   42.5590 C.3    21  A21         0.2309
    443  O2'       16.9270   42.5700   43.8420 O.3    21  A21        -0.2156
    444  C1'       17.1640   40.6060   42.4610 C.3    21  A21         0.2408
    445  N1        21.1900   40.6240   39.1840 N.ar   21  A21        -0.2040
    446  C2        21.0640   41.0610   40.4440 C.ar   21  A21         0.2016
    447  N3        19.9900   41.0240   41.2460 N.ar   21  A21        -0.2048
    448  C4        18.9360   40.4670   40.6300 C.ar   21  A21         0.1692
    449  C5        18.9140   39.9760   39.3380 C.ar   21  A21         0.1518
    450  C6        20.1130   40.0620   38.5910 C.ar   21  A21         0.1919
    451  N6        20.2180   39.6250   37.3350 N.pl3  21  A21        -0.1054
    452  N7        17.6610   39.4740   39.0300 N.ar   21  A21        -0.2193
    453  C8        16.9630   39.6610   40.1240 C.ar   21  A21         0.1816
    454  N9        17.6680   40.2600   41.1320 N.ar   21  A21        -0.2693
    455  OP1       12.1270   37.4280   41.4260 O.3    21  A21        -0.4373
    456  OP2       13.0520   38.1150   39.1270 O.co2  21  A21        -0.5172
    457  P         13.5910   43.8130   41.5720 P.3    22  G22         0.2141
    458  C5'       15.8060   45.2390   41.2310 C.3    22  G22         0.1812
    459  O5'       14.7440   44.4560   40.6630 O.3    22  G22        -0.3114
    460  C4'       17.0540   45.1970   40.3550 C.3    22  G22         0.1773
    461  O4'       17.4790   43.8360   40.0820 O.3    22  G22        -0.3307
    462  C3'       16.8910   45.7830   38.9620 C.3    22  G22         0.1860
    463  O3'       16.9300   47.1870   39.0230 O.3    22  G22        -0.3112
    464  C2'       18.0960   45.1670   38.2540 C.3    22  G22         0.2309
    465  O2'       19.3390   45.7330   38.6240 O.3    22  G22        -0.2156
    466  C1'       17.9940   43.7340   38.7610 C.3    22  G22         0.2408
    467  N1        17.4390   41.1740   34.3390 N.ar   22  G22        -0.1709
    468  C2        18.5380   41.8660   34.8080 C.ar   22  G22         0.2606
    469  N2        19.6160   41.8860   34.0100 N.pl3  22  G22        -0.0859
    470  N3        18.5670   42.4980   35.9840 N.ar   22  G22        -0.1918
    471  C4        17.3980   42.3840   36.6730 C.ar   22  G22         0.1723
    472  C5        16.2550   41.7170   36.2850 C.ar   22  G22         0.1748
    473  C6        16.2320   41.0510   35.0320 C.ar   22  G22         0.3023
    474  O6        15.2960   40.4040   34.5390 O.2    22  G22        -0.2633
    475  N7        15.2670   41.8200   37.2500 N.ar   22  G22        -0.2173
    476  C8        15.8170   42.5360   38.1880 C.ar   22  G22         0.1817
    477  N9        17.1130   42.9160   37.9160 N.ar   22  G22        -0.2693
    478  OP1       12.8990   44.8760   42.3220 O.3    22  G22        -0.4373
    479  OP2       12.8130   42.9200   40.6830 O.co2  22  G22        -0.5172
    480  P         16.1830   48.0780   37.9270 P.3    23  A23         0.2141
    481  C5'       18.5000   48.5790   36.7860 C.3    23  A23         0.1812
    482  O5'       17.2060   47.9630   36.6930 O.3    23  A23        -0.3114
    483  C4'       19.4160   48.2130   35.6330 C.3    23  A23         0.1773
    484  O4'       19.5840   46.7760   35.5570 O.3    23  A23        -0.3307
    485  C3'       18.8890   48.5910   34.2600 C.3    23  A23         0.1860
    486  O3'       19.1820   49.9370   33.9500 O.3    23  A23        -0.3112
    487  C2'       19.6230   47.6050   33.3580 C.3    23  A23         0.2309
    488  O2'       20.9440   48.0000   33.0700 O.3    23  A23        -0.2156
    489  C1'       19.5820   46.3440   34.2100 C.3    23  A23         0.2408
    490  N1        17.2860   43.0390   30.9790 N.ar   23  A23        -0.2040
    491  C2        18.5000   43.6130   30.9580 C.ar   23  A23         0.2016
    492  N3        19.0290   44.4640   31.8460 N.ar   23  A23        -0.2048
    493  C4        18.1700   44.7330   32.8510 C.ar   23  A23         0.1692
    494  C5        16.8950   44.2200   33.0090 C.ar   23  A23         0.1518
    495  C6        16.4480   43.3270   32.0100 C.ar   23  A23         0.1919
    496  N6        15.2410   42.7650   32.0360 N.pl3  23  A23        -0.1054
    497  N7        16.3050   44.7130   34.1590 N.ar   23  A23        -0.2193
    498  C8        17.2210   45.5000   34.6660 C.ar   23  A23         0.1816
    499  N9        18.3760   45.5570   33.9320 N.ar   23  A23        -0.2693
    500  OP1       16.1530   49.4720   38.4320 O.3    23  A23        -0.4373
    501  OP2       14.9080   47.4260   37.5520 O.co2  23  A23        -0.5172
    502  P         18.1130   50.7760   33.1020 P.3    24  U24         0.2141
    503  C5'       19.3040   50.0580   30.8660 C.3    24  U24         0.1812
    504  O5'       18.1380   49.9910   31.7040 O.3    24  U24        -0.3114
    505  C4'       19.2410   49.0260   29.7550 C.3    24  U24         0.1773
    506  O4'       18.9750   47.6960   30.2820 O.3    24  U24        -0.3307
    507  C3'       18.1130   49.2600   28.7680 C.3    24  U24         0.1860
    508  O3'       18.4690   50.2770   27.8310 O.3    24  U24        -0.3112
    509  C2'       17.9910   47.8790   28.1440 C.3    24  U24         0.2309
    510  O2'       19.0040   47.6170   27.1940 O.3    24  U24        -0.2156
    511  C1'       18.1530   46.9820   29.3730 C.3    24  U24         0.2420
    512  N1        16.8220   46.5960   29.9990 N.ar   24  U24        -0.2534
    513  C2        16.0800   45.5650   29.4300 C.ar   24  U24         0.3546
    514  O2        16.4380   44.9220   28.4570 O.2    24  U24        -0.2443
    515  N3        14.8840   45.2890   30.0500 N.ar   24  U24        -0.1530
    516  C4        14.3570   45.9290   31.1580 C.ar   24  U24         0.2846
    517  O4        13.2770   45.5660   31.5990 O.2    24  U24        -0.2650
    518  C5        15.1710   46.9920   31.6940 C.ar   24  U24         0.0814
    519  C6        16.3430   47.2790   31.1080 C.ar   24  U24         0.0870
    520  OP1       18.6430   52.1480   32.9320 O.2    24  U24        -0.5172
    521  OP2       16.7710   50.6050   33.7020 O.co2  24  U24        -0.4373
    522  P         17.4300   51.4450   27.4840 P.3    25  G25         0.2141
    523  C5'       16.2650   49.9670   25.6530 C.3    25  G25         0.1812
    524  O5'       16.1720   50.6510   26.8930 O.3    25  G25        -0.3114
    525  C4'       15.1460   48.9550   25.4990 C.3    25  G25         0.1773
    526  O4'       14.9650   48.1450   26.6830 O.3    25  G25        -0.3307
    527  C3'       13.7840   49.5680   25.2500 C.3    25  G25         0.1860
    528  O3'       13.7390   49.8930   23.8800 O.3    25  G25        -0.3112
    529  C2'       12.8620   48.4130   25.6170 C.3    25  G25         0.2309
    530  O2'       12.7840   47.4440   24.5850 O.3    25  G25        -0.2156
    531  C1'       13.5900   47.8130   26.8190 C.3    25  G25         0.2408
    532  N1        10.5490   46.9400   30.8580 N.ar   25  G25        -0.1709
    533  C2        10.6440   46.2370   29.6820 C.ar   25  G25         0.2606
    534  N2         9.8370   45.1740   29.5700 N.pl3  25  G25        -0.0859
    535  N3        11.4740   46.5610   28.6940 N.ar   25  G25        -0.1918
    536  C4        12.2140   47.6660   28.9700 C.ar   25  G25         0.1723
    537  C5        12.1890   48.4320   30.1130 C.ar   25  G25         0.1748
    538  C6        11.3010   48.0730   31.1620 C.ar   25  G25         0.3023
    539  O6        11.1300   48.6310   32.2560 O.2    25  G25        -0.2633
    540  N7        13.0960   49.4770   30.0250 N.ar   25  G25        -0.2173
    541  C8        13.6410   49.3290   28.8560 C.ar   25  G25         0.1817
    542  N9        13.1550   48.2530   28.1510 N.ar   25  G25        -0.2693
    543  OP1       18.0480   52.2860   26.4390 O.2    25  G25        -0.5172
    544  OP2       16.9460   52.0670   28.7350 O.co2  25  G25        -0.4373
    545  P         13.2570   51.3310   23.4100 P.3    26  A26         0.2141
    546  C5'       13.9020   53.7510   24.1300 C.3    26  A26         0.1812
    547  O5'       14.0910   52.3570   24.3000 O.3    26  A26        -0.3114
    548  C4'       13.5240   54.4020   25.4490 C.3    26  A26         0.1773
    549  O4'       12.2960   53.8110   25.9510 O.3    26  A26        -0.3307
    550  C3'       14.5560   54.2570   26.5660 C.3    26  A26         0.1860
    551  O3'       14.7090   55.4890   27.2470 O.3    26  A26        -0.3112
    552  C2'       13.9020   53.2230   27.4780 C.3    26  A26         0.2309
    553  O2'       14.3240   53.3150   28.8240 O.3    26  A26        -0.2156
    554  C1'       12.4340   53.6100   27.3380 C.3    26  A26         0.2408
    555  N1         9.5700   51.7530   31.2220 N.ar   26  A26        -0.2040
    556  C2        10.3230   52.8610   31.1170 C.ar   26  A26         0.2016
    557  N3        11.0430   53.2910   30.0740 N.ar   26  A26        -0.2048
    558  C4        10.9450   52.4430   29.0330 C.ar   26  A26         0.1692
    559  C5        10.2090   51.2690   28.9920 C.ar   26  A26         0.1518
    560  C6         9.4930   50.9210   30.1570 C.ar   26  A26         0.1919
    561  N6         8.7460   49.8170   30.2470 N.pl3  26  A26        -0.1054
    562  N7        10.3350   50.6510   27.7620 N.ar   26  A26        -0.2193
    563  C8        11.1340   51.4500   27.0930 C.ar   26  A26         0.1816
    564  N9        11.5370   52.5540   27.7940 N.ar   26  A26        -0.2693
    565  OP1       11.8230   51.4350   23.7740 O.3    26  A26        -0.4373
    566  OP2       13.7050   51.4950   22.0130 O.co2  26  A26        -0.5172
    567  P         15.8580   56.5510   26.9180 P.3    27  G27         0.2141
    568  C5'       14.4200   58.7490   27.0960 C.3    27  G27         0.1812
    569  O5'       15.2930   57.8150   27.7180 O.3    27  G27        -0.3114
    570  C4'       12.9680   58.2900   27.0760 C.3    27  G27         0.1773
    571  O4'       12.4280   58.1620   28.4250 O.3    27  G27        -0.3307
    572  C3'       12.0320   59.2560   26.3520 C.3    27  G27         0.1860
    573  O3'       11.0270   58.5170   25.6440 O.3    27  G27        -0.3112
    574  C2'       11.4790   60.0630   27.5250 C.3    27  G27         0.2309
    575  O2'       10.2870   60.7540   27.2260 O.3    27  G27        -0.2156
    576  C1'       11.2210   58.9080   28.4820 C.3    27  G27         0.2408
    577  N1         8.5290   57.6660   32.6420 N.ar   27  G27        -0.1709
    578  C2         8.6050   57.0270   31.4260 C.ar   27  G27         0.2606
    579  N2         7.8730   55.9150   31.2940 N.pl3  27  G27        -0.0859
    580  N3         9.3490   57.4490   30.4080 N.ar   27  G27        -0.1918
    581  C4        10.0250   58.5900   30.7010 C.ar   27  G27         0.1723
    582  C5        10.0130   59.3040   31.8830 C.ar   27  G27         0.1748
    583  C6         9.2150   58.8390   32.9620 C.ar   27  G27         0.3023
    584  O6         9.0810   59.3460   34.0860 O.2    27  G27        -0.2633
    585  N7        10.8390   60.4170   31.7960 N.ar   27  G27        -0.2173
    586  C8        11.3260   60.3560   30.5860 C.ar   27  G27         0.1817
    587  N9        10.8800   59.2730   29.8600 N.ar   27  G27        -0.2693
    588  OP1       15.8740   56.8340   25.4680 O.2    27  G27        -0.5172
    589  OP2       17.1040   56.1180   27.5890 O.co2  27  G27        -0.4373
    590  P         10.0620   59.2200   24.5760 P.3    28  U28         0.2141
    591  C5'       10.6510   57.5340   22.6360 C.3    28  U28         0.1812
    592  O5'        9.7060   58.0180   23.5790 O.3    28  U28        -0.3114
    593  C4'       10.4460   56.0520   22.3840 C.3    28  U28         0.1773
    594  O4'       10.8340   55.2980   23.5540 O.3    28  U28        -0.3307
    595  C3'        9.0070   55.6200   22.1580 C.3    28  U28         0.1860
    596  O3'        8.6500   55.8380   20.8160 O.3    28  U28        -0.3112
    597  C2'        9.0640   54.1370   22.4900 C.3    28  U28         0.2309
    598  O2'        9.6750   53.3680   21.4720 O.3    28  U28        -0.2156
    599  C1'        9.9870   54.1650   23.7010 C.3    28  U28         0.2420
    600  N1         9.3400   54.1970   25.0710 N.ar   28  U28        -0.2534
    601  C2         8.5170   53.1650   25.5150 C.ar   28  U28         0.3546
    602  O2         8.2170   52.1810   24.8650 O.2    28  U28        -0.2443
    603  N3         8.0230   53.3320   26.7860 N.ar   28  U28        -0.1530
    604  C4         8.2640   54.3870   27.6490 C.ar   28  U28         0.2846
    605  O4         7.7520   54.3970   28.7620 O.2    28  U28        -0.2650
    606  C5         9.1310   55.4120   27.1280 C.ar   28  U28         0.0814
    607  C6         9.6210   55.2780   25.8910 C.ar   28  U28         0.0870
    608  OP1       10.8300   60.2670   23.8660 O.2    28  U28        -0.5172
    609  OP2        8.8120   59.5950   25.2740 O.co2  28  U28        -0.4373
    610  P          7.2490   56.5210   20.4750 P.3    29  A29         0.2141
    611  C5'        6.2830   54.1970   19.7070 C.3    29  A29         0.1812
    612  O5'        6.2240   55.2970   20.6150 O.3    29  A29        -0.3114
    613  C4'        5.4880   53.0050   20.2150 C.3    29  A29         0.1773
    614  O4'        6.0220   52.5510   21.4860 O.3    29  A29        -0.3307
    615  C3'        4.0230   53.2840   20.5190 C.3    29  A29         0.1860
    616  O3'        3.2210   53.2370   19.3440 O.3    29  A29        -0.3112
    617  C2'        3.6810   52.1710   21.5030 C.3    29  A29         0.2309
    618  O2'        3.4250   50.9230   20.8860 O.3    29  A29        -0.2156
    619  C1'        4.9620   52.1220   22.3320 C.3    29  A29         0.2408
    620  N1         2.9270   52.8190   27.0530 N.ar   29  A29        -0.2040
    621  C2         2.7280   51.8650   26.1330 C.ar   29  A29         0.2016
    622  N3         3.2900   51.7410   24.9260 N.ar   29  A29        -0.2048
    623  C4         4.1520   52.7490   24.6740 C.ar   29  A29         0.1692
    624  C5         4.4530   53.8000   25.5210 C.ar   29  A29         0.1518
    625  C6         3.7950   53.8150   26.7710 C.ar   29  A29         0.1919
    626  N6         3.9920   54.7710   27.6800 N.pl3  29  A29        -0.1054
    627  N7         5.3750   54.6540   24.9410 N.ar   29  A29        -0.2193
    628  C8         5.6120   54.1120   23.7710 C.ar   29  A29         0.1816
    629  N9         4.9120   52.9580   23.5380 N.ar   29  A29        -0.2693
    630  OP1        7.3290   56.9280   19.0570 O.2    29  A29        -0.5172
    631  OP2        6.9290   57.5300   21.5140 O.co2  29  A29        -0.4373
    632  P          2.1140   54.3700   19.1030 P.3    30  G30         0.2141
    633  C5'        0.2980   53.0250   20.4780 C.3    30  G30         0.1812
    634  O5'        1.1180   54.1950   20.3480 O.3    30  G30        -0.3114
    635  C4'       -0.2900   52.9090   21.8750 C.3    30  G30         0.1773
    636  O4'        0.7550   52.8900   22.8860 O.3    30  G30        -0.3307
    637  C3'       -1.1650   54.0760   22.2990 C.3    30  G30         0.1860
    638  O3'       -2.4550   53.9820   21.7120 O.3    30  G30        -0.3112
    639  C2'       -1.1570   53.9140   23.8160 C.3    30  G30         0.2309
    640  O2'       -1.9910   52.8650   24.2760 O.3    30  G30        -0.2156
    641  C1'        0.3200   53.5860   24.0440 C.3    30  G30         0.2408
    642  N1         1.6370   57.3660   27.2250 N.ar   30  G30        -0.1709
    643  C2         0.7450   56.3300   27.4170 C.ar   30  G30         0.2606
    644  N2         0.1160   56.2810   28.5990 N.pl3  30  G30        -0.0859
    645  N3         0.4870   55.3980   26.5080 N.ar   30  G30        -0.1918
    646  C4         1.1990   55.5820   25.3660 C.ar   30  G30         0.1723
    647  C5         2.1090   56.5820   25.0800 C.ar   30  G30         0.1748
    648  C6         2.3800   57.5750   26.0580 C.ar   30  G30         0.3023
    649  O6         3.1570   58.5410   25.9780 O.2    30  G30        -0.2633
    650  N7         2.6240   56.4240   23.8010 N.ar   30  G30        -0.2173
    651  C8         2.0290   55.3530   23.3500 C.ar   30  G30         0.1817
    652  N9         1.1500   54.7810   24.2430 N.ar   30  G30        -0.2693
    653  OP1        1.3880   54.0110   17.8630 O.2    30  G30        -0.5172
    654  OP2        2.7660   55.6960   19.2270 O.co2  30  G30        -0.4373
    655  P         -3.1960   55.3220   21.2380 P.3    31  G31         0.2141
    656  C5'       -4.6300   55.2860   23.4300 C.3    31  G31         0.1812
    657  O5'       -3.6620   55.9560   22.6280 O.3    31  G31        -0.3114
    658  C4'       -4.8940   56.0710   24.6960 C.3    31  G31         0.1773
    659  O4'       -3.6960   56.0920   25.5090 O.3    31  G31        -0.3307
    660  C3'       -5.2160   57.5340   24.4630 C.3    31  G31         0.1860
    661  O3'       -6.5950   57.6900   24.1500 O.3    31  G31        -0.3112
    662  C2'       -4.8120   58.1590   25.7950 C.3    31  G31         0.2309
    663  O2'       -5.7800   57.9940   26.8130 O.3    31  G31        -0.2156
    664  C1'       -3.5460   57.3660   26.1100 C.3    31  G31         0.2408
    665  N1        -0.0890   61.0740   26.7260 N.ar   31  G31        -0.1709
    666  C2        -1.1840   60.7650   27.5040 C.ar   31  G31         0.2606
    667  N2        -1.3900   61.5370   28.5800 N.pl3  31  G31        -0.0859
    668  N3        -2.0210   59.7660   27.2440 N.ar   31  G31        -0.1918
    669  C4        -1.6720   59.0840   26.1220 C.ar   31  G31         0.1723
    670  C5        -0.6030   59.3120   25.2810 C.ar   31  G31         0.1748
    671  C6         0.2820   60.3810   25.5700 C.ar   31  G31         0.3023
    672  O6         1.2870   60.7280   24.9320 O.2    31  G31        -0.2633
    673  N7        -0.5860   58.3950   24.2370 N.ar   31  G31        -0.2173
    674  C8        -1.6270   57.6430   24.4590 C.ar   31  G31         0.1817
    675  N9        -2.3340   58.0000   25.5870 N.ar   31  G31        -0.2693
    676  OP1       -4.3890   54.9260   20.4570 O.2    31  G31        -0.5172
    677  OP2       -2.1990   56.2390   20.6370 O.co2  31  G31        -0.4373
    678  P         -7.0510   58.7850   23.0740 P.3    32  C32         0.2141
    679  C5'       -7.6980   60.4130   25.0180 C.3    32  C32         0.1812
    680  O5'       -6.8710   60.1510   23.8910 O.3    32  C32        -0.3114
    681  C4'       -7.2120   61.6230   25.7910 C.3    32  C32         0.1773
    682  O4'       -5.8810   61.3770   26.3170 O.3    32  C32        -0.3307
    683  C3'       -7.0310   62.8950   24.9770 C.3    32  C32         0.1860
    684  O3'       -8.2710   63.5450   24.6940 O.3    32  C32        -0.3112
    685  C2'       -6.1270   63.6840   25.9200 C.3    32  C32         0.2309
    686  O2'       -6.7850   64.1930   27.0660 O.3    32  C32        -0.2156
    687  C1'       -5.1400   62.5880   26.3100 C.3    32  C32         0.2420
    688  N1        -3.9580   62.5050   25.3650 N.ar   32  C32        -0.2535
    689  C2        -2.8860   63.4120   25.5060 C.ar   32  C32         0.3532
    690  O2        -2.9070   64.2670   26.4030 O.2    32  C32        -0.2443
    691  N3        -1.8340   63.3270   24.6450 N.ar   32  C32        -0.1739
    692  C4        -1.8220   62.3970   23.6790 C.ar   32  C32         0.1759
    693  N4        -0.7630   62.3590   22.8640 N.pl3  32  C32        -0.1070
    694  C5        -2.8970   61.4680   23.5110 C.ar   32  C32         0.0566
    695  C6        -3.9270   61.5590   24.3650 C.ar   32  C32         0.0850
    696  OP1       -8.4840   58.5580   22.7800 O.3    32  C32        -0.4373
    697  OP2       -6.0850   58.7870   21.9530 O.co2  32  C32        -0.5172
    698  P         -8.5420   64.1600   23.2350 P.3    33  U33         0.2141
    699  C5'       -7.6470   66.5470   23.9620 C.3    33  U33         0.1812
    700  O5'       -7.5030   65.3820   23.1460 O.3    33  U33        -0.3114
    701  C4'       -6.3490   67.3340   24.0700 C.3    33  U33         0.1773
    702  O4'       -5.2210   66.4490   24.2990 O.3    33  U33        -0.3307
    703  C3'       -5.9300   68.1060   22.8260 C.3    33  U33         0.1860
    704  O3'       -6.6620   69.3200   22.6780 O.3    33  U33        -0.3112
    705  C2'       -4.4530   68.3520   23.1280 C.3    33  U33         0.2309
    706  O2'       -4.2350   69.3980   24.0590 O.3    33  U33        -0.2156
    707  C1'       -4.0490   67.0020   23.7160 C.3    33  U33         0.2420
    708  N1        -3.4490   66.0580   22.6900 N.ar   33  U33        -0.2534
    709  C2        -2.1260   66.2210   22.2970 C.ar   33  U33         0.3546
    710  O2        -1.3900   67.0930   22.7310 O.2    33  U33        -0.2443
    711  N3        -1.6810   65.3120   21.3610 N.ar   33  U33        -0.1530
    712  C4        -2.4030   64.2780   20.7840 C.ar   33  U33         0.2846
    713  O4        -1.8710   63.5430   19.9580 O.2    33  U33        -0.2650
    714  C5        -3.7680   64.1680   21.2370 C.ar   33  U33         0.0814
    715  C6        -4.2230   65.0410   22.1490 C.ar   33  U33         0.0870
    716  OP1       -9.9240   64.6980   23.2250 O.3    33  U33        -0.4373
    717  OP2       -8.1420   63.1540   22.2230 O.co2  33  U33        -0.5172
    718  P         -6.7430   70.0470   21.2480 P.3    34  G34         0.2141
    719  C5'       -5.0100   71.9760   21.8050 C.3    34  G34         0.1812
    720  O5'       -5.3080   70.7530   21.1270 O.3    34  G34        -0.3114
    721  C4'       -3.7460   72.6040   21.2440 C.3    34  G34         0.1773
    722  O4'       -2.6280   71.7150   21.4990 O.3    34  G34        -0.3307
    723  C3'       -3.7380   72.8100   19.7320 C.3    34  G34         0.1860
    724  O3'       -4.3220   74.0580   19.3530 O.3    34  G34        -0.3112
    725  C2'       -2.2530   72.7360   19.3820 C.3    34  G34         0.2309
    726  O2'       -1.5820   73.9790   19.4660 O.3    34  G34        -0.2156
    727  C1'       -1.7170   71.7460   20.4130 C.3    34  G34         0.2408
    728  N1         1.2080   68.6830   17.5780 N.ar   34  G34        -0.1709
    729  C2         1.4220   69.9890   17.9590 C.ar   34  G34         0.2606
    730  N2         2.5570   70.5590   17.5330 N.pl3  34  G34        -0.0859
    731  N3         0.5760   70.6900   18.7080 N.ar   34  G34        -0.1918
    732  C4        -0.5230   69.9710   19.0550 C.ar   34  G34         0.1723
    733  C5        -0.8280   68.6660   18.7270 C.ar   34  G34         0.1748
    734  C6         0.0850   67.9290   17.9270 C.ar   34  G34         0.3023
    735  O6        -0.0150   66.7600   17.5320 O.2    34  G34        -0.2633
    736  N7        -2.0490   68.2920   19.2770 N.ar   34  G34        -0.2173
    737  C8        -2.4500   69.3570   19.9140 C.ar   34  G34         0.1817
    738  N9        -1.5720   70.4130   19.8300 N.ar   34  G34        -0.2693
    739  OP1       -7.7980   71.0850   21.3360 O.3    34  G34        -0.4373
    740  OP2       -6.8160   69.0080   20.1910 O.co2  34  G34        -0.5172
    741  P         -5.0740   74.1810   17.9430 P.3    35  U35         0.2141
    742  C5'       -3.1330   75.5120   16.7570 C.3    35  U35         0.1812
    743  O5'       -3.8740   74.3040   16.8920 O.3    35  U35        -0.3114
    744  C4'       -1.8630   75.2850   15.9570 C.3    35  U35         0.1773
    745  O4'       -1.1230   74.1820   16.5420 O.3    35  U35        -0.3307
    746  C3'       -2.0540   74.8480   14.5090 C.3    35  U35         0.1860
    747  O3'       -2.3470   75.9400   13.6320 O.3    35  U35        -0.3112
    748  C2'       -0.6940   74.2190   14.2180 C.3    35  U35         0.2309
    749  O2'        0.3120   75.1750   13.9340 O.3    35  U35        -0.2156
    750  C1'       -0.4070   73.4890   15.5300 C.3    35  U35         0.2420
    751  N1        -0.7800   72.0190   15.4810 N.ar   35  U35        -0.2534
    752  C2         0.1280   71.1050   14.9640 C.ar   35  U35         0.3546
    753  O2         1.2320   71.4070   14.5430 O.2    35  U35        -0.2443
    754  N3        -0.3030   69.7980   14.9550 N.ar   35  U35        -0.1530
    755  C4        -1.5250   69.3140   15.3970 C.ar   35  U35         0.2846
    756  O4        -1.7640   68.1130   15.3230 O.2    35  U35        -0.2650
    757  C5        -2.4210   70.3170   15.9190 C.ar   35  U35         0.0814
    758  C6        -2.0220   71.5970   15.9370 C.ar   35  U35         0.0870
    759  OP1       -5.8600   75.4360   17.9600 O.3    35  U35        -0.4373
    760  OP2       -5.7550   72.8960   17.6640 O.co2  35  U35        -0.5172
    761  P         -3.1720   75.6820   12.2780 P.3    36  C36         0.2141
    762  C5'       -1.0500   75.5690   10.7260 C.3    36  C36         0.1812
    763  O5'       -2.1320   74.8880   11.3550 O.3    36  C36        -0.3114
    764  C4'       -0.0110   74.5870   10.2200 C.3    36  C36         0.1773
    765  O4'        0.3080   73.6310   11.2620 O.3    36  C36        -0.3307
    766  C3'       -0.4500   73.6980    9.0680 C.3    36  C36         0.1860
    767  O3'       -0.3900   74.3730    7.8220 O.3    36  C36        -0.3112
    768  C2'        0.5900   72.5910    9.1610 C.3    36  C36         0.2309
    769  O2'        1.8490   72.9650    8.6340 O.3    36  C36        -0.2156
    770  C1'        0.6730   72.3950   10.6710 C.3    36  C36         0.2420
    771  N1        -0.2060   71.2730   11.1620 N.ar   36  C36        -0.2535
    772  C2         0.2430   69.9460   11.0300 C.ar   36  C36         0.3532
    773  O2         1.3470   69.7220   10.5160 O.2    36  C36        -0.2443
    774  N3        -0.5490   68.9310   11.4710 N.ar   36  C36        -0.1739
    775  C4        -1.7390   69.1960   12.0200 C.ar   36  C36         0.1759
    776  N4        -2.4760   68.1620   12.4360 N.pl3  36  C36        -0.1070
    777  C5        -2.2200   70.5360   12.1630 C.ar   36  C36         0.0566
    778  C6        -1.4310   71.5310   11.7260 C.ar   36  C36         0.0850
    779  OP1       -3.4720   77.0020   11.6720 O.2    36  C36        -0.5172
    780  OP2       -4.2760   74.7400   12.5740 O.co2  36  C36        -0.4373
    781  P         -1.3990   73.9520    6.6510 P.3    37  C37         0.2141
    782  C5'        0.3850   72.3560    5.5620 C.3    37  C37         0.1812
    783  O5'       -0.8770   72.5020    6.2100 O.3    37  C37        -0.3114
    784  C4'        0.8150   70.9020    5.4800 C.3    37  C37         0.1773
    785  O4'        0.7590   70.2590    6.7770 O.3    37  C37        -0.3307
    786  C3'       -0.0680   70.0100    4.6290 C.3    37  C37         0.1860
    787  O3'        0.1870   70.2190    3.2520 O.3    37  C37        -0.3112
    788  C2'        0.3850   68.6350    5.1030 C.3    37  C37         0.2309
    789  O2'        1.6240   68.2290    4.5530 O.3    37  C37        -0.2156
    790  C1'        0.5170   68.8690    6.6060 C.3    37  C37         0.2420
    791  N1        -0.7040   68.4350    7.3870 N.ar   37  C37        -0.2535
    792  C2        -0.9900   67.0660    7.5590 C.ar   37  C37         0.3532
    793  O2        -0.2410   66.2080    7.0790 O.2    37  C37        -0.2443
    794  N3        -2.0920   66.7050    8.2660 N.ar   37  C37        -0.1739
    795  C4        -2.8960   67.6390    8.7840 C.ar   37  C37         0.1759
    796  N4        -3.9670   67.2300    9.4690 N.pl3  37  C37        -0.1070
    797  C5        -2.6350   69.0350    8.6200 C.ar   37  C37         0.0566
    798  C6        -1.5430   69.3800    7.9230 C.ar   37  C37         0.0850
    799  OP1       -1.2140   74.9140    5.5400 O.2    37  C37        -0.5172
    800  OP2       -2.7440   73.7760    7.2460 O.co2  37  C37        -0.4373
    801  P         -0.9940   70.0160    2.1920 P.3    38  C38         0.2141
    802  C5'       -0.0080   67.6270    1.6820 C.3    38  C38         0.1812
    803  O5'       -1.1150   68.4250    2.0970 O.3    38  C38        -0.3114
    804  C4'       -0.3330   66.1550    1.8390 C.3    38  C38         0.1773
    805  O4'       -0.6290   65.8480    3.2240 O.3    38  C38        -0.3307
    806  C3'       -1.5720   65.7090    1.0810 C.3    38  C38         0.1860
    807  O3'       -1.2250   65.4280   -0.2710 O.3    38  C38        -0.3112
    808  C2'       -1.9980   64.4610    1.8490 C.3    38  C38         0.2309
    809  O2'       -1.3980   63.2730    1.3630 O.3    38  C38        -0.2156
    810  C1'       -1.5320   64.7540    3.2790 C.3    38  C38         0.2420
    811  N1        -2.6710   65.0600    4.2190 N.ar   38  C38        -0.2535
    812  C2        -3.4610   64.0160    4.7400 C.ar   38  C38         0.3532
    813  O2        -3.2190   62.8410    4.4350 O.2    38  C38        -0.2443
    814  N3        -4.4840   64.3190    5.5820 N.ar   38  C38        -0.1739
    815  C4        -4.7350   65.5910    5.9040 C.ar   38  C38         0.1759
    816  N4        -5.7540   65.8320    6.7340 N.pl3  38  C38        -0.1070
    817  C5        -3.9530   66.6700    5.3870 C.ar   38  C38         0.0566
    818  C6        -2.9460   66.3600    4.5580 C.ar   38  C38         0.0850
    819  OP1       -0.5280   70.5470    0.8940 O.2    38  C38        -0.5172
    820  OP2       -2.2520   70.5230    2.7830 O.co2  38  C38        -0.4373
    821  P         -1.8100   66.2870   -1.4930 P.3    39  A39         0.2141
    822  C5'       -3.3500   64.1450   -1.7450 C.3    39  A39         0.1812
    823  O5'       -3.1960   65.5650   -1.8360 O.3    39  A39        -0.3114
    824  C4'       -4.7340   63.7980   -1.2210 C.3    39  A39         0.1773
    825  O4'       -4.9070   64.3250    0.1210 O.3    39  A39        -0.3307
    826  C3'       -5.8890   64.3570   -2.0480 C.3    39  A39         0.1860
    827  O3'       -6.8440   63.3210   -2.2560 O.3    39  A39        -0.3112
    828  C2'       -6.4300   65.5100   -1.2000 C.3    39  A39         0.2309
    829  O2'       -7.8120   65.7590   -1.3880 O.3    39  A39        -0.2156
    830  C1'       -6.1460   65.0010    0.2110 C.3    39  A39         0.2408
    831  N1        -8.1650   67.1460    4.4690 N.ar   39  A39        -0.2040
    832  C2        -8.5530   66.0920    3.7360 C.ar   39  A39         0.2016
    833  N3        -7.9830   65.5850    2.6380 N.ar   39  A39        -0.2048
    834  C4        -6.8810   66.2810    2.2880 C.ar   39  A39         0.1692
    835  C5        -6.3610   67.3860    2.9450 C.ar   39  A39         0.1518
    836  C6        -7.0550   67.8280    4.0970 C.ar   39  A39         0.1919
    837  N6        -6.6670   68.8780    4.8290 N.pl3  39  A39        -0.1054
    838  N7        -5.2190   67.8450    2.3080 N.ar   39  A39        -0.2193
    839  C8        -5.0730   67.0240    1.2960 C.ar   39  A39         0.1816
    840  N9        -6.0380   66.0560    1.2190 N.ar   39  A39        -0.2693
    841  OP1       -0.9000   66.0760   -2.6380 O.2    39  A39        -0.5172
    842  OP2       -2.1020   67.6650   -1.0330 O.co2  39  A39        -0.4373
    843  P         -7.2850   62.9010   -3.7360 P.3    40  U40         0.2141
    844  C5'       -6.0770   60.6600   -2.9860 C.3    40  U40         0.1812
    845  O5'       -7.0600   61.3170   -3.7890 O.3    40  U40        -0.3114
    846  C4'       -6.7080   59.7040   -1.9810 C.3    40  U40         0.1773
    847  O4'       -7.2070   60.4390   -0.8280 O.3    40  U40        -0.3307
    848  C3'       -7.8840   58.8510   -2.4690 C.3    40  U40         0.1860
    849  O3'       -7.7810   57.5270   -1.9240 O.3    40  U40        -0.3112
    850  C2'       -9.0870   59.5990   -1.8910 C.3    40  U40         0.2309
    851  O2'      -10.2430   58.7910   -1.7790 O.3    40  U40        -0.2156
    852  C1'       -8.5070   59.9620   -0.5240 C.3    40  U40         0.2420
    853  N1        -9.2710   60.9660    0.3140 N.ar   40  U40        -0.2534
    854  C2       -10.1960   60.5140    1.2470 C.ar   40  U40         0.3546
    855  O2       -10.4520   59.3390    1.4440 O.2    40  U40        -0.2443
    856  N3       -10.8300   61.4990    1.9640 N.ar   40  U40        -0.1530
    857  C4       -10.6440   62.8640    1.8540 C.ar   40  U40         0.2846
    858  O4       -11.2910   63.6200    2.5710 O.2    40  U40        -0.2650
    859  C5        -9.6680   63.2640    0.8690 C.ar   40  U40         0.0814
    860  C6        -9.0330   62.3230    0.1550 C.ar   40  U40         0.0870
    861  OP1       -6.3590   63.5340   -4.7020 O.2    40  U40        -0.5172
    862  OP2       -8.7390   63.1570   -3.8340 O.co2  40  U40        -0.4373
    863  P         -7.0290   56.3150   -2.6610 P.3    41  C41         0.2141
    864  C5'       -6.1630   55.8990   -0.2150 C.3    41  C41         0.1812
    865  O5'       -5.9090   55.8550   -1.6140 O.3    41  C41        -0.3114
    866  C4'       -5.1430   56.7840    0.4780 C.3    41  C41         0.1773
    867  O4'       -5.6880   58.1010    0.6860 O.3    41  C41        -0.3307
    868  C3'       -4.7620   56.3310    1.8760 C.3    41  C41         0.1860
    869  O3'       -3.5890   55.5430    1.7800 O.3    41  C41        -0.3112
    870  C2'       -4.5580   57.6090    2.6970 C.3    41  C41         0.2309
    871  O2'       -3.2270   57.7900    3.1430 O.3    41  C41        -0.2156
    872  C1'       -4.9550   58.7140    1.7220 C.3    41  C41         0.2420
    873  N1        -5.8220   59.7800    2.3010 N.ar   41  C41        -0.2535
    874  C2        -7.0750   59.4860    2.8860 C.ar   41  C41         0.3532
    875  O2        -7.4970   58.3190    2.9500 O.2    41  C41        -0.2443
    876  N3        -7.8080   60.5180    3.3860 N.ar   41  C41        -0.1739
    877  C4        -7.3530   61.7740    3.3170 C.ar   41  C41         0.1759
    878  N4        -8.1200   62.7410    3.8280 N.pl3  41  C41        -0.1070
    879  C5        -6.0920   62.0890    2.7240 C.ar   41  C41         0.0566
    880  C6        -5.3730   61.0710    2.2330 C.ar   41  C41         0.0850
    881  OP1       -6.3360   56.8380   -3.8590 O.2    41  C41        -0.5172
    882  OP2       -8.0150   55.2210   -2.7910 O.co2  41  C41        -0.4373
    883  P         -3.5770   54.1120    2.4830 P.3    42  A42         0.2141
    884  C5'       -2.5590   54.8160    4.8120 C.3    42  A42         0.1812
    885  O5'       -3.7050   54.5290    4.0240 O.3    42  A42        -0.3114
    886  C4'       -2.5760   53.9250    6.0370 C.3    42  A42         0.1773
    887  O4'       -3.8520   54.0540    6.7190 O.3    42  A42        -0.3307
    888  C3'       -2.4100   52.4350    5.7430 C.3    42  A42         0.1860
    889  O3'       -1.4030   51.8830    6.5880 O.3    42  A42        -0.3112
    890  C2'       -3.7950   51.8610    6.0360 C.3    42  A42         0.2309
    891  O2'       -3.7660   50.5220    6.4720 O.3    42  A42        -0.2156
    892  C1'       -4.2460   52.7750    7.1660 C.3    42  A42         0.2408
    893  N1        -7.9600   52.6720   10.7650 N.ar   42  A42        -0.2040
    894  C2        -6.6260   52.6780   10.8620 C.ar   42  A42         0.2016
    895  N3        -5.7180   52.7060    9.8830 N.ar   42  A42        -0.2048
    896  C4        -6.2990   52.7320    8.6700 C.ar   42  A42         0.1692
    897  C5        -7.6570   52.7310    8.4120 C.ar   42  A42         0.1518
    898  C6        -8.5160   52.6990    9.5320 C.ar   42  A42         0.1919
    899  N6        -9.8470   52.6990    9.4250 N.pl3  42  A42        -0.1054
    900  N7        -7.9010   52.7650    7.0490 N.ar   42  A42        -0.2193
    901  C8        -6.7020   52.7840    6.5180 C.ar   42  A42         0.1816
    902  N9        -5.6850   52.7630    7.4360 N.ar   42  A42        -0.2693
    903  OP1       -2.2560   53.4960    2.2200 O.3    42  A42        -0.4373
    904  OP2       -4.8160   53.3870    2.1120 O.co2  42  A42        -0.5172
    905  P          0.1430   52.0560    6.2130 P.3    43  G43         0.2141
    906  C5'        0.9750   50.9720    8.4660 C.3    43  G43         0.1812
    907  O5'        0.8540   50.9000    7.0530 O.3    43  G43        -0.3114
    908  C4'        1.0970   49.5710    9.0460 C.3    43  G43         0.1773
    909  O4'       -0.0870   48.8160    8.6880 O.3    43  G43        -0.3307
    910  C3'        2.2900   48.7490    8.5650 C.3    43  G43         0.1860
    911  O3'        2.8300   47.9820    9.6400 O.3    43  G43        -0.3112
    912  C2'        1.7050   47.8480    7.4810 C.3    43  G43         0.2309
    913  O2'        2.3240   46.5790    7.4250 O.3    43  G43        -0.2156
    914  C1'        0.2500   47.6870    7.9090 C.3    43  G43         0.2408
    915  N1        -1.8850   44.5500    4.5310 N.ar   43  G43        -0.1709
    916  C2        -1.0650   44.2710    5.6020 C.ar   43  G43         0.2606
    917  N2        -0.7440   42.9880    5.8080 N.pl3  43  G43        -0.0859
    918  N3        -0.5650   45.1890    6.4190 N.ar   43  G43        -0.1918
    919  C4        -0.9730   46.4380    6.0840 C.ar   43  G43         0.1723
    920  C5        -1.7910   46.8240    5.0420 C.ar   43  G43         0.1748
    921  C6        -2.3130   45.8300    4.1710 C.ar   43  G43         0.3023
    922  O6        -3.0530   45.9780    3.1880 O.2    43  G43        -0.2633
    923  N7        -1.9590   48.2030    5.0420 N.ar   43  G43        -0.2173
    924  C8        -1.2510   48.6080    6.0620 C.ar   43  G43         0.1817
    925  N9        -0.6270   47.5920    6.7430 N.ar   43  G43        -0.2693
    926  OP1        0.5980   53.3680    6.7300 O.3    43  G43        -0.4373
    927  OP2        0.2980   51.7290    4.7780 O.co2  43  G43        -0.5172
    928  P          4.4020   48.0080    9.9300 P.3    44  G44         0.2141
    929  C5'        6.3990   48.0760    8.2360 C.3    44  G44         0.1812
    930  O5'        5.0390   47.7560    8.4830 O.3    44  G44        -0.3114
    931  C4'        7.0130   47.1280    7.2260 C.3    44  G44         0.1773
    932  O4'        7.0980   45.7840    7.7690 O.3    44  G44        -0.3307
    933  C3'        6.2360   46.9370    5.9330 C.3    44  G44         0.1860
    934  O3'        6.4120   48.0280    5.0360 O.3    44  G44        -0.3112
    935  C2'        6.8870   45.6530    5.4270 C.3    44  G44         0.2309
    936  O2'        8.1740   45.8490    4.8700 O.3    44  G44        -0.2156
    937  C1'        6.9740   44.8410    6.7170 C.3    44  G44         0.2408
    938  N1         4.2610   40.8020    5.1420 N.ar   44  G44        -0.1709
    939  C2         5.4510   41.2920    4.6590 C.ar   44  G44         0.2606
    940  N2         5.9940   40.6340    3.6290 N.pl3  44  G44        -0.0859
    941  N3         6.0720   42.3550    5.1550 N.ar   44  G44        -0.1918
    942  C4         5.3980   42.9110    6.1930 C.ar   44  G44         0.1723
    943  C5         4.2080   42.4940    6.7470 C.ar   44  G44         0.1748
    944  C6         3.5550   41.3580    6.2090 C.ar   44  G44         0.3023
    945  O6         2.4880   40.8460    6.5780 O.2    44  G44        -0.2633
    946  N7         3.8340   43.3230    7.7940 N.ar   44  G44        -0.2173
    947  C8         4.7890   44.2100    7.8540 C.ar   44  G44         0.1817
    948  N9         5.7780   44.0220    6.9170 N.ar   44  G44        -0.2693
    949  OP1        4.7430   46.8540   10.7820 O.3    44  G44        -0.4373
    950  OP2        4.7440   49.3790   10.3760 O.co2  44  G44        -0.5172
    951  P          5.2920   48.2960    3.9160 P.3    45  G45         0.2141
    952  C5'        6.6580   47.1030    1.9680 C.3    45  G45         0.1812
    953  O5'        5.5370   47.1150    2.8570 O.3    45  G45        -0.3114
    954  C4'        6.5020   46.0420    0.8870 C.3    45  G45         0.1773
    955  O4'        6.5660   44.7110    1.4670 O.3    45  G45        -0.3307
    956  C3'        5.1720   46.0350    0.1450 C.3    45  G45         0.1860
    957  O3'        5.1450   46.9910   -0.8920 O.3    45  G45        -0.3112
    958  C2'        5.1290   44.6100   -0.3980 C.3    45  G45         0.2309
    959  O2'        5.9530   44.4180   -1.5330 O.3    45  G45        -0.2156
    960  C1'        5.6550   43.8420    0.8080 C.3    45  G45         0.2408
    961  N1         1.7580   40.6510    1.7400 N.ar   45  G45        -0.1709
    962  C2         2.6140   40.6850    0.6620 C.ar   45  G45         0.2606
    963  N2         2.4160   39.7600   -0.2870 N.pl3  45  G45        -0.0859
    964  N3         3.6000   41.5660    0.5250 N.ar   45  G45        -0.1918
    965  C4         3.6680   42.4330    1.5680 C.ar   45  G45         0.1723
    966  C5         2.8560   42.4780    2.6830 C.ar   45  G45         0.1748
    967  C6         1.8100   41.5300    2.8230 C.ar   45  G45         0.3023
    968  O6         0.9900   41.4210    3.7470 O.2    45  G45        -0.2633
    969  N7         3.2430   43.5080    3.5250 N.ar   45  G45        -0.2173
    970  C8         4.2570   44.0560    2.9180 C.ar   45  G45         0.1817
    971  N9         4.5780   43.4580    1.7240 N.ar   45  G45        -0.2693
    972  OP1        5.5640   49.5970    3.2600 O.2    45  G45        -0.5172
    973  OP2        3.9710   48.0710    4.5500 O.co2  45  G45        -0.4373
    974  P          3.7490   47.6520   -1.3060 P.3    46  G46         0.2141
    975  C5'        2.9050   45.9830   -3.1520 C.3    46  G46         0.1812
    976  O5'        2.8600   46.4120   -1.7990 O.3    46  G46        -0.3114
    977  C4'        2.1170   44.7040   -3.3510 C.3    46  G46         0.1773
    978  O4'        2.3650   43.7620   -2.2750 O.3    46  G46        -0.3307
    979  C3'        0.6030   44.8350   -3.3090 C.3    46  G46         0.1860
    980  O3'        0.0830   45.4630   -4.4660 O.3    46  G46        -0.3112
    981  C2'        0.2530   43.3550   -3.2340 C.3    46  G46         0.2309
    982  O2'        0.4890   42.6370   -4.4300 O.3    46  G46        -0.2156
    983  C1'        1.2360   42.9120   -2.1570 C.3    46  G46         0.2408
    984  N1        -2.3480   41.1420    0.9940 N.ar   46  G46        -0.1709
    985  C2        -2.0410   40.7450   -0.2880 C.ar   46  G46         0.2606
    986  N2        -2.7760   39.7520   -0.8060 N.pl3  46  G46        -0.0859
    987  N3        -1.0700   41.2890   -1.0120 N.ar   46  G46        -0.1918
    988  C4        -0.4160   42.2800   -0.3480 C.ar   46  G46         0.1723
    989  C5        -0.6490   42.7480    0.9240 C.ar   46  G46         0.1748
    990  C6        -1.6890   42.1590    1.6900 C.ar   46  G46         0.3023
    991  O6        -2.0440   42.4370    2.8440 O.2    46  G46        -0.2633
    992  N7         0.2320   43.7740    1.2370 N.ar   46  G46        -0.2173
    993  C8         0.9640   43.9050    0.1700 C.ar   46  G46         0.1817
    994  N9         0.6320   43.0290   -0.8330 N.ar   46  G46        -0.2693
    995  OP1        4.0300   48.5590   -2.4450 O.2    46  G46        -0.5172
    996  OP2        3.1010   48.1700   -0.0780 O.co2  46  G46        -0.4373
    997  P         -1.2710   46.3070   -4.3750 P.3    47  A47         0.2141
    998  C5'       -2.5990   44.3230   -5.4020 C.3    47  A47         0.1812
    999  O5'       -2.4010   45.1810   -4.2870 O.3    47  A47        -0.3114
   1000  C4'       -3.6760   43.2890   -5.1510 C.3    47  A47         0.1773
   1001  O4'       -3.2950   42.4170   -4.0590 O.3    47  A47        -0.3307
   1002  C3'       -5.0190   43.8510   -4.7270 C.3    47  A47         0.1860
   1003  O3'       -5.7540   44.3210   -5.8470 O.3    47  A47        -0.3112
   1004  C2'       -5.6360   42.6240   -4.0680 C.3    47  A47         0.2309
   1005  O2'       -6.0820   41.6600   -5.0010 O.3    47  A47        -0.2156
   1006  C1'       -4.4340   42.1210   -3.2710 C.3    47  A47         0.2408
   1007  N1        -6.2800   42.5860    1.5290 N.ar   47  A47        -0.2040
   1008  C2        -6.6510   41.8110    0.4980 C.ar   47  A47         0.2016
   1009  N3        -6.1210   41.7410   -0.7260 N.ar   47  A47        -0.2048
   1010  C4        -5.0860   42.5910   -0.8580 C.ar   47  A47         0.1692
   1011  C5        -4.5860   43.4490    0.1110 C.ar   47  A47         0.1518
   1012  C6        -5.2320   43.4290    1.3690 C.ar   47  A47         0.1919
   1013  N6        -4.8640   44.1970    2.3990 N.pl3  47  A47        -0.1054
   1014  N7        -3.5120   44.1720   -0.3780 N.ar   47  A47        -0.2193
   1015  C8        -3.3890   43.7420   -1.6090 C.ar   47  A47         0.1816
   1016  N9        -4.3030   42.7870   -1.9710 N.ar   47  A47        -0.2693
   1017  OP1       -1.4250   47.0320   -5.6550 O.2    47  A47        -0.5172
   1018  OP2       -1.2690   47.0680   -3.1080 O.co2  47  A47        -0.4373
   1019  P         -6.5980   45.6730   -5.7110 P.3    48  G48         0.2141
   1020  C5'       -8.8000   44.2940   -5.4440 C.3    48  G48         0.1812
   1021  O5'       -7.8580   45.1900   -4.8620 O.3    48  G48        -0.3114
   1022  C4'       -9.7190   43.7340   -4.3810 C.3    48  G48         0.1773
   1023  O4'       -8.9340   43.1570   -3.3010 O.3    48  G48        -0.3307
   1024  C3'      -10.5810   44.7680   -3.6770 C.3    48  G48         0.1860
   1025  O3'      -11.7030   45.1540   -4.4630 O.3    48  G48        -0.3112
   1026  C2'      -10.9580   43.9960   -2.4170 C.3    48  G48         0.2309
   1027  O2'      -11.9280   42.9930   -2.6500 O.3    48  G48        -0.2156
   1028  C1'       -9.6030   43.3810   -2.0680 C.3    48  G48         0.2408
   1029  N1        -8.7760   45.0540    2.7020 N.ar   48  G48        -0.1709
   1030  C2        -9.7190   44.1630    2.2410 C.ar   48  G48         0.2606
   1031  N2       -10.5480   43.6500    3.1580 N.pl3  48  G48        -0.0859
   1032  N3        -9.8400   43.8040    0.9660 N.ar   48  G48        -0.1918
   1033  C4        -8.9280   44.4120    0.1650 C.ar   48  G48         0.1723
   1034  C5        -7.9480   45.3130    0.5300 C.ar   48  G48         0.1748
   1035  C6        -7.8310   45.6880    1.8940 C.ar   48  G48         0.3023
   1036  O6        -7.0240   46.4770    2.4010 O.2    48  G48        -0.2633
   1037  N7        -7.2070   45.7120   -0.5750 N.ar   48  G48        -0.2173
   1038  C8        -7.7410   45.0560   -1.5680 C.ar   48  G48         0.1817
   1039  N9        -8.7900   44.2420   -1.1990 N.ar   48  G48        -0.2693
   1040  OP1       -7.0530   46.0700   -7.0650 O.2    48  G48        -0.5172
   1041  OP2       -5.8420   46.6320   -4.8710 O.co2  48  G48        -0.4373
   1042  P        -12.4110   46.5690   -4.1950 P.3    49  G49         0.2141
   1043  C5'      -13.2750   47.1940   -1.8300 C.3    49  G49         0.1812
   1044  O5'      -13.3070   46.2770   -2.9060 O.3    49  G49        -0.3114
   1045  C4'      -13.8090   46.5560   -0.5680 C.3    49  G49         0.1773
   1046  O4'      -12.7570   45.8270    0.1150 O.3    49  G49        -0.3307
   1047  C3'      -14.2880   47.5760    0.4430 C.3    49  G49         0.1860
   1048  O3'      -15.6390   47.9040    0.1660 O.3    49  G49        -0.3112
   1049  C2'      -14.0840   46.8350    1.7620 C.3    49  G49         0.2309
   1050  O2'      -15.0770   45.8610    2.0210 O.3    49  G49        -0.2156
   1051  C1'      -12.7420   46.1630    1.4890 C.3    49  G49         0.2408
   1052  N1        -9.9370   48.5100    5.0730 N.ar   49  G49        -0.1709
   1053  C2       -11.0760   47.7500    5.2260 C.ar   49  G49         0.2606
   1054  N2       -11.5230   47.5930    6.4800 N.pl3  49  G49        -0.0859
   1055  N3       -11.7220   47.1830    4.2110 N.ar   49  G49        -0.1918
   1056  C4       -11.1380   47.4430    3.0100 C.ar   49  G49         0.1723
   1057  C5       -10.0060   48.1910    2.7610 C.ar   49  G49         0.1748
   1058  C6        -9.3250   48.7850    3.8490 C.ar   49  G49         0.3023
   1059  O6        -8.3030   49.4780    3.8190 O.2    49  G49        -0.2633
   1060  N7        -9.7180   48.2260    1.4050 N.ar   49  G49        -0.2173
   1061  C8       -10.6670   47.5110    0.8670 C.ar   49  G49         0.1817
   1062  N9       -11.5700   47.0020    1.7740 N.ar   49  G49        -0.2693
   1063  OP1      -13.3150   46.8560   -5.3300 O.2    49  G49        -0.5172
   1064  OP2      -11.3720   47.5610   -3.8250 O.co2  49  G49        -0.4373
   1065  P        -16.1160   49.4340    0.2050 P.3    50  A50         0.2141
   1066  C5'      -17.3190   48.8020    2.4370 C.3    50  A50         0.1812
   1067  O5'      -16.3660   49.6300    1.7740 O.3    50  A50        -0.3114
   1068  C4'      -17.2550   48.9600    3.9430 C.3    50  A50         0.1773
   1069  O4'      -15.9910   48.4540    4.4370 O.3    50  A50        -0.3307
   1070  C3'      -17.3060   50.3920    4.4510 C.3    50  A50         0.1860
   1071  O3'      -18.6400   50.8490    4.5480 O.3    50  A50        -0.3112
   1072  C2'      -16.6580   50.2560    5.8200 C.3    50  A50         0.2309
   1073  O2'      -17.5500   49.7290    6.7830 O.3    50  A50        -0.2156
   1074  C1'      -15.5420   49.2620    5.5130 C.3    50  A50         0.2408
   1075  N1       -11.3410   51.7010    7.2430 N.ar   50  A50        -0.2040
   1076  C2       -12.4240   51.2260    7.8760 C.ar   50  A50         0.2016
   1077  N3       -13.4850   50.6010    7.3600 N.ar   50  A50        -0.2048
   1078  C4       -13.3690   50.4740    6.0260 C.ar   50  A50         0.1692
   1079  C5       -12.3190   50.9140    5.2370 C.ar   50  A50         0.1518
   1080  C6       -11.2560   51.5580    5.9020 C.ar   50  A50         0.1919
   1081  N6       -10.1800   52.0330    5.2720 N.pl3  50  A50        -0.1054
   1082  N7       -12.5410   50.6120    3.9050 N.ar   50  A50        -0.2193
   1083  C8       -13.7040   50.0060    3.9160 C.ar   50  A50         0.1816
   1084  N9       -14.2640   49.8880    5.1610 N.ar   50  A50        -0.2693
   1085  OP1      -17.4030   49.5240   -0.5230 O.2    50  A50        -0.5172
   1086  OP2      -14.9960   50.3160   -0.2000 O.co2  50  A50        -0.4373
   1087  P        -18.9540   52.3580    4.1260 P.3    51  A51         0.2141
   1088  C5'      -18.6820   53.2570    6.6100 C.3    51  A51         0.1812
   1089  O5'      -18.2030   53.2090    5.2610 O.3    51  A51        -0.3114
   1090  C4'      -17.6750   53.9040    7.5510 C.3    51  A51         0.1773
   1091  O4'      -16.3940   53.2160    7.4880 O.3    51  A51        -0.3307
   1092  C3'      -17.3380   55.3600    7.2550 C.3    51  A51         0.1860
   1093  O3'      -18.3240   56.2280    7.7990 O.3    51  A51        -0.3112
   1094  C2'      -15.9710   55.5010    7.9280 C.3    51  A51         0.2309
   1095  O2'      -16.0430   55.7020    9.3270 O.3    51  A51        -0.2156
   1096  C1'      -15.3320   54.1460    7.6270 C.3    51  A51         0.2408
   1097  N1       -10.6780   55.0060    5.5110 N.ar   51  A51        -0.2040
   1098  C2       -11.1080   55.0810    6.7820 C.ar   51  A51         0.2016
   1099  N3       -12.3320   54.8430    7.2660 N.ar   51  A51        -0.2048
   1100  C4       -13.1870   54.4870    6.2880 C.ar   51  A51         0.1692
   1101  C5       -12.8900   54.3680    4.9380 C.ar   51  A51         0.1518
   1102  C6       -11.5600   54.6480    4.5480 C.ar   51  A51         0.1919
   1103  N6       -11.1370   54.5680    3.2850 N.pl3  51  A51        -0.1054
   1104  N7       -14.0070   53.9820    4.2190 N.ar   51  A51        -0.2193
   1105  C8       -14.9430   53.8800    5.1330 C.ar   51  A51         0.1816
   1106  N9       -14.5230   54.1650    6.4060 N.ar   51  A51        -0.2693
   1107  OP1      -20.4180   52.5520    4.2250 O.3    51  A51        -0.4373
   1108  OP2      -18.2770   52.6430    2.8400 O.co2  51  A51        -0.5172
   1109  P        -19.1500   57.2260    6.8480 P.3    52  U52         0.2141
   1110  C5'      -17.6490   59.2640    7.4940 C.3    52  U52         0.1812
   1111  O5'      -18.0570   58.3360    6.4960 O.3    52  U52        -0.3114
   1112  C4'      -16.8260   60.3820    6.8890 C.3    52  U52         0.1773
   1113  O4'      -15.5680   59.8210    6.4470 O.3    52  U52        -0.3307
   1114  C3'      -17.4680   61.0840    5.6840 C.3    52  U52         0.1860
   1115  O3'      -17.9630   62.4380    5.9500 O.3    52  U52        -0.3112
   1116  C2'      -16.4340   60.9660    4.5540 C.3    52  U52         0.2309
   1117  O2'      -16.1220   62.1870    3.9130 O.3    52  U52        -0.2156
   1118  C1'      -15.1790   60.4120    5.2250 C.3    52  U52         0.2420
   1119  N1       -14.4770   59.4010    4.3580 N.ar   52  U52        -0.2534
   1120  C2       -13.3160   59.7640    3.6900 C.ar   52  U52         0.3546
   1121  O2       -12.8040   60.8680    3.7650 O.2    52  U52        -0.2443
   1122  N3       -12.7610   58.7730    2.9160 N.ar   52  U52        -0.1530
   1123  C4       -13.2410   57.4870    2.7420 C.ar   52  U52         0.2846
   1124  O4       -12.6380   56.7060    2.0150 O.2    52  U52        -0.2650
   1125  C5       -14.4530   57.1840    3.4630 C.ar   52  U52         0.0814
   1126  C6       -15.0130   58.1300    4.2260 C.ar   52  U52         0.0870
   1127  OP1      -20.2340   57.8420    7.6510 O.3    52  U52        -0.4373
   1128  OP2      -19.4960   56.5190    5.5950 O.co2  52  U52        -0.5172
   1129  P        -17.2130   63.5820    6.7950 P.3    53  C53         0.2141
   1130  C5'      -17.1860   64.0150    9.3760 C.3    53  C53         0.1812
   1131  O5'      -17.8580   63.4480    8.2510 O.3    53  C53        -0.3114
   1132  C4'      -17.6160   63.3510   10.6720 C.3    53  C53         0.1773
   1133  O4'      -19.0610   63.2260   10.7050 O.3    53  C53        -0.3307
   1134  C3'      -17.0570   61.9490   10.8860 C.3    53  C53         0.1860
   1135  O3'      -16.4320   61.8710   12.1620 O.3    53  C53        -0.3112
   1136  C2'      -18.2780   61.0350   10.8180 C.3    53  C53         0.2309
   1137  O2'      -18.1880   59.9320   11.7000 O.3    53  C53        -0.2156
   1138  C1'      -19.3930   61.9730   11.2610 C.3    53  C53         0.2420
   1139  N1       -20.7430   61.5400   10.7870 N.ar   53  C53        -0.2535
   1140  C2       -21.6210   60.9100   11.6850 C.ar   53  C53         0.3532
   1141  O2       -21.2770   60.7240   12.8600 O.2    53  C53        -0.2443
   1142  N3       -22.8410   60.5170   11.2360 N.ar   53  C53        -0.1739
   1143  C4       -23.1860   60.7240    9.9610 C.ar   53  C53         0.1759
   1144  N4       -24.3980   60.3200    9.5720 N.pl3  53  C53        -0.1070
   1145  C5       -22.3080   61.3600    9.0310 C.ar   53  C53         0.0566
   1146  C6       -21.1100   61.7460    9.4830 C.ar   53  C53         0.0850
   1147  OP1      -17.6410   64.8800    6.2380 O.2    53  C53        -0.5172
   1148  OP2      -15.7640   63.2800    6.8890 O.co2  53  C53        -0.4373
   1149  P        -14.8390   61.8990   12.3050 P.3    54  G54         0.2141
   1150  C5'      -14.7130   59.2920   11.8680 C.3    54  G54         0.1812
   1151  O5'      -14.3630   60.6170   11.4790 O.3    54  G54        -0.3114
   1152  C4'      -14.1160   58.2780   10.9070 C.3    54  G54         0.1773
   1153  O4'      -14.4180   58.6290    9.5290 O.3    54  G54        -0.3307
   1154  C3'      -12.6000   58.1850   10.9220 C.3    54  G54         0.1860
   1155  O3'      -12.1530   57.3970   12.0180 O.3    54  G54        -0.3112
   1156  C2'      -12.3560   57.5140    9.5750 C.3    54  G54         0.2309
   1157  O2'      -12.6810   56.1360    9.5770 O.3    54  G54        -0.2156
   1158  C1'      -13.3190   58.2980    8.6910 C.3    54  G54         0.2408
   1159  N1        -9.9020   60.3740    5.4540 N.ar   54  G54        -0.1709
   1160  C2       -10.1670   59.0440    5.6910 C.ar   54  G54         0.2606
   1161  N2        -9.4470   58.1520    4.9930 N.pl3  54  G54        -0.0859
   1162  N3       -11.0820   58.6160    6.5580 N.ar   54  G54        -0.1918
   1163  C4       -11.7290   59.6350    7.1850 C.ar   54  G54         0.1723
   1164  C5       -11.5290   60.9910    7.0110 C.ar   54  G54         0.1748
   1165  C6       -10.5520   61.4370    6.0850 C.ar   54  G54         0.3023
   1166  O6       -10.2450   62.6060    5.8080 O.2    54  G54        -0.2633
   1167  N7       -12.3780   61.7230    7.8280 N.ar   54  G54        -0.2173
   1168  C8       -13.0610   60.8170    8.4680 C.ar   54  G54         0.1817
   1169  N9       -12.7300   59.5240    8.1360 N.ar   54  G54        -0.2693
   1170  OP1      -14.5200   61.7240   13.7390 O.3    54  G54        -0.4373
   1171  OP2      -14.3410   63.0900   11.5770 O.co2  54  G54        -0.5172
   1172  P        -10.7690   57.7200   12.7550 P.3    55  G55         0.2141
   1173  C5'       -9.4480   56.1640   11.1520 C.3    55  G55         0.1812
   1174  O5'       -9.6930   57.4860   11.6060 O.3    55  G55        -0.3114
   1175  C4'       -8.5220   56.1920    9.9600 C.3    55  G55         0.1773
   1176  O4'       -9.0570   57.0280    8.9040 O.3    55  G55        -0.3307
   1177  C3'       -7.1690   56.8080   10.2460 C.3    55  G55         0.1860
   1178  O3'       -6.3630   55.8970   10.9640 O.3    55  G55        -0.3112
   1179  C2'       -6.6970   57.0670    8.8210 C.3    55  G55         0.2309
   1180  O2'       -6.2920   55.8990    8.1340 O.3    55  G55        -0.2156
   1181  C1'       -7.9780   57.6310    8.2100 C.3    55  G55         0.2408
   1182  N1        -6.1590   62.1710    6.7050 N.ar   55  G55        -0.1709
   1183  C2        -5.7560   60.9030    6.3360 C.ar   55  G55         0.2606
   1184  N2        -4.7450   60.8140    5.4630 N.pl3  55  G55        -0.0859
   1185  N3        -6.3080   59.7860    6.7980 N.ar   55  G55        -0.1918
   1186  C4        -7.3170   60.0310    7.6750 C.ar   55  G55         0.1723
   1187  C5        -7.7880   61.2560    8.1070 C.ar   55  G55         0.1748
   1188  C6        -7.1910   62.4430    7.6090 C.ar   55  G55         0.3023
   1189  O6        -7.4870   63.6140    7.8860 O.2    55  G55        -0.2633
   1190  N7        -8.8300   61.0920    9.0070 N.ar   55  G55        -0.2173
   1191  C8        -8.9630   59.7970    9.1040 C.ar   55  G55         0.1817
   1192  N9        -8.0820   59.0860    8.3250 N.ar   55  G55        -0.2693
   1193  OP1      -10.5790   56.6930   13.8020 O.3    55  G55        -0.4373
   1194  OP2      -10.7330   59.1540   13.1210 O.co2  55  G55        -0.5172
   1195  P         -5.2510   56.4250   11.9860 P.3    56  G56         0.2141
   1196  C5'       -3.4040   55.9030   10.1970 C.3    56  G56         0.1812
   1197  O5'       -4.0750   56.8680   10.9990 O.3    56  G56        -0.3114
   1198  C4'       -2.5610   56.5910    9.1430 C.3    56  G56         0.1773
   1199  O4'       -3.3960   57.4270    8.3020 O.3    56  G56        -0.3307
   1200  C3'       -1.5200   57.5490    9.6930 C.3    56  G56         0.1860
   1201  O3'       -0.3520   56.8480   10.0980 O.3    56  G56        -0.3112
   1202  C2'       -1.2870   58.4430    8.4840 C.3    56  G56         0.2309
   1203  O2'       -0.5010   57.8140    7.4930 O.3    56  G56        -0.2156
   1204  C1'       -2.7180   58.6290    7.9900 C.3    56  G56         0.2408
   1205  N1        -3.0560   63.7170    8.5320 N.ar   56  G56        -0.1709
   1206  C2        -2.1670   62.9790    7.7770 C.ar   56  G56         0.2606
   1207  N2        -1.2570   63.6730    7.0790 N.pl3  56  G56        -0.0859
   1208  N3        -2.1710   61.6500    7.7090 N.ar   56  G56        -0.1918
   1209  C4        -3.1520   61.0980    8.4710 C.ar   56  G56         0.1723
   1210  C5        -4.0850   61.7500    9.2570 C.ar   56  G56         0.1748
   1211  C6        -4.0710   63.1690    9.3210 C.ar   56  G56         0.3023
   1212  O6        -4.8230   63.9150    9.9650 O.2    56  G56        -0.2633
   1213  N7        -4.9250   60.8390    9.8820 N.ar   56  G56        -0.2173
   1214  C8        -4.4900   59.6810    9.4750 C.ar   56  G56         0.1817
   1215  N9        -3.4210   59.7530    8.6140 N.ar   56  G56        -0.2693
   1216  OP1       -4.7890   55.2680   12.7830 O.3    56  G56        -0.4373
   1217  OP2       -5.7630   57.6340   12.6710 O.co2  56  G56        -0.5172
   1218  P          0.4920   57.3680   11.3570 P.3    57  G57         0.2141
   1219  C5'        2.1780   58.4240    9.6390 C.3    57  G57         0.1812
   1220  O5'        1.2820   58.6110   10.7330 O.3    57  G57        -0.3114
   1221  C4'        2.6250   59.7570    9.0720 C.3    57  G57         0.1773
   1222  O4'        1.4880   60.4970    8.5630 O.3    57  G57        -0.3307
   1223  C3'        3.2540   60.6990   10.0850 C.3    57  G57         0.1860
   1224  O3'        4.6140   60.3600   10.2930 O.3    57  G57        -0.3112
   1225  C2'        3.0830   62.0390    9.3850 C.3    57  G57         0.2309
   1226  O2'        4.0230   62.2480    8.3490 O.3    57  G57        -0.2156
   1227  C1'        1.6760   61.8810    8.8130 C.3    57  G57         0.2408
   1228  N1        -0.4670   65.9550   11.0260 N.ar   57  G57        -0.1709
   1229  C2         0.5960   65.8920   10.1490 C.ar   57  G57         0.2606
   1230  N2         1.1720   67.0530    9.8050 N.pl3  57  G57        -0.0859
   1231  N3         1.0670   64.7620    9.6340 N.ar   57  G57        -0.1918
   1232  C4         0.3840   63.6730   10.0720 C.ar   57  G57         0.1723
   1233  C5        -0.6840   63.6320   10.9450 C.ar   57  G57         0.1748
   1234  C6        -1.1800   64.8460   11.4870 C.ar   57  G57         0.3023
   1235  O6        -2.1210   65.0000   12.2750 O.2    57  G57        -0.2633
   1236  N7        -1.1050   62.3240   11.1440 N.ar   57  G57        -0.2173
   1237  C8        -0.2980   61.6150   10.4030 C.ar   57  G57         0.1817
   1238  N9         0.6320   62.3640    9.7200 N.ar   57  G57        -0.2693
   1239  OP1        1.4570   56.3120   11.7360 O.2    57  G57        -0.5172
   1240  OP2       -0.4460   57.8940   12.3760 O.co2  57  G57        -0.4373
   1241  P          5.2850   60.6030   11.7240 P.3    58  A58         0.2141
   1242  C5'        6.6110   62.5650   10.5470 C.3    58  A58         0.1812
   1243  O5'        5.7560   62.1300   11.6120 O.3    58  A58        -0.3114
   1244  C4'        6.8610   64.0650   10.5930 C.3    58  A58         0.1773
   1245  O4'        5.6810   64.7840   10.1430 O.3    58  A58        -0.3307
   1246  C3'        7.1570   64.6360   11.9750 C.3    58  A58         0.1860
   1247  O3'        8.5410   64.5250   12.2940 O.3    58  A58        -0.3112
   1248  C2'        6.6900   66.0830   11.8310 C.3    58  A58         0.2309
   1249  O2'        7.6400   66.9170   11.1930 O.3    58  A58        -0.2156
   1250  C1'        5.4370   65.9110   10.9720 C.3    58  A58         0.2408
   1251  N1         1.5990   68.0390   13.7530 N.ar   58  A58        -0.2040
   1252  C2         2.6480   68.5870   13.1200 C.ar   58  A58         0.2016
   1253  N3         3.6080   67.9810   12.4140 N.ar   58  A58        -0.2048
   1254  C4         3.4280   66.6460   12.3840 C.ar   58  A58         0.1692
   1255  C5         2.3970   65.9440   12.9920 C.ar   58  A58         0.1518
   1256  C6         1.4400   66.6960   13.7060 C.ar   58  A58         0.1919
   1257  N6         0.4000   66.1420   14.3360 N.pl3  58  A58        -0.1054
   1258  N7         2.5200   64.5880   12.7580 N.ar   58  A58        -0.2193
   1259  C8         3.6050   64.4970   12.0280 C.ar   58  A58         0.1816
   1260  N9         4.2110   65.6970   11.7570 N.ar   58  A58        -0.2693
   1261  OP1        6.4680   59.7210   11.8230 O.2    58  A58        -0.5172
   1262  OP2        4.2410   60.5230   12.7710 O.co2  58  A58        -0.4373
   1263  P          8.9890   64.0930   13.7730 P.3    59  C59         0.2141
   1264  C5'        9.7350   66.5820   14.1460 C.3    59  C59         0.1812
   1265  O5'        8.9470   65.4780   14.5750 O.3    59  C59        -0.3114
   1266  C4'        9.1370   67.8950   14.6140 C.3    59  C59         0.1773
   1267  O4'        7.8040   68.0570   14.0640 O.3    59  C59        -0.3307
   1268  C3'        8.9130   68.0220   16.1150 C.3    59  C59         0.1860
   1269  O3'       10.1140   68.3330   16.8100 O.3    59  C59        -0.3112
   1270  C2'        7.8940   69.1580   16.1580 C.3    59  C59         0.2309
   1271  O2'        8.4540   70.4420   15.9400 O.3    59  C59        -0.2156
   1272  C1'        6.9900   68.7590   14.9930 C.3    59  C59         0.2420
   1273  N1         5.8050   67.9230   15.4260 N.ar   59  C59        -0.2535
   1274  C2         4.6430   68.5620   15.8990 C.ar   59  C59         0.3532
   1275  O2         4.5900   69.7990   15.9480 O.2    59  C59        -0.2443
   1276  N3         3.5860   67.8000   16.2890 N.ar   59  C59        -0.1739
   1277  C4         3.6540   66.4670   16.2280 C.ar   59  C59         0.1759
   1278  N4         2.5840   65.7730   16.6260 N.pl3  59  C59        -0.1070
   1279  C5         4.8220   65.7910   15.7570 C.ar   59  C59         0.0566
   1280  C6         5.8570   66.5510   15.3740 C.ar   59  C59         0.0850
   1281  OP1       10.3860   63.6120   13.6960 O.2    59  C59        -0.5172
   1282  OP2        7.9540   63.2060   14.3530 O.co2  59  C59        -0.4373
   1283  P         10.3510   67.8190   18.3090 P.3    60  G60         0.2141
   1284  C5'        8.6190   67.8480   20.3030 C.3    60  G60         0.1812
   1285  O5'        8.8770   67.6480   18.9150 O.3    60  G60        -0.3114
   1286  C4'        7.9330   69.1810   20.5550 C.3    60  G60         0.1773
   1287  O4'        6.9600   69.4560   19.5080 O.3    60  G60        -0.3307
   1288  C3'        7.1480   69.2390   21.8610 C.3    60  G60         0.1860
   1289  O3'        7.9590   69.7570   22.9180 O.3    60  G60        -0.3112
   1290  C2'        5.9850   70.1620   21.5080 C.3    60  G60         0.2309
   1291  O2'        6.3360   71.5300   21.5490 O.3    60  G60        -0.2156
   1292  C1'        5.6880   69.7270   20.0740 C.3    60  G60         0.2408
   1293  N1         1.1640   67.5040   21.1370 N.ar   60  G60        -0.1709
   1294  C2         1.5970   68.7710   21.4600 C.ar   60  G60         0.2606
   1295  N2         0.7350   69.5400   22.1430 N.pl3  60  G60        -0.0859
   1296  N3         2.7950   69.2460   21.1310 N.ar   60  G60        -0.1918
   1297  C4         3.5490   68.3460   20.4400 C.ar   60  G60         0.1723
   1298  C5         3.1980   67.0590   20.0740 C.ar   60  G60         0.1748
   1299  C6         1.9180   66.5610   20.4310 C.ar   60  G60         0.3023
   1300  O6         1.4410   65.4430   20.1860 O.2    60  G60        -0.2633
   1301  N7         4.2290   66.4400   19.3800 N.ar   60  G60        -0.2173
   1302  C8         5.1640   67.3470   19.3360 C.ar   60  G60         0.1817
   1303  N9         4.8350   68.5330   19.9570 N.ar   60  G60        -0.2693
   1304  OP1       11.0510   68.9160   19.0180 O.3    60  G60        -0.4373
   1305  OP2       10.9570   66.4700   18.2410 O.co2  60  G60        -0.5172
   1306  P          8.0820   68.9880   24.3220 P.3    61  G61         0.2141
   1307  C5'        6.4370   70.5690   25.6660 C.3    61  G61         0.1812
   1308  O5'        6.6820   69.3090   25.0370 O.3    61  G61        -0.3114
   1309  C4'        5.0230   70.6450   26.2200 C.3    61  G61         0.1773
   1310  O4'        4.0570   70.3890   25.1660 O.3    61  G61        -0.3307
   1311  C3'        4.6580   69.6080   27.2740 C.3    61  G61         0.1860
   1312  O3'        5.1790   69.9330   28.5610 O.3    61  G61        -0.3112
   1313  C2'        3.1330   69.6580   27.2190 C.3    61  G61         0.2309
   1314  O2'        2.5800   70.7820   27.8780 O.3    61  G61        -0.2156
   1315  C1'        2.9110   69.7450   25.7080 C.3    61  G61         0.2408
   1316  N1        -0.1440   65.6660   25.0260 N.ar   61  G61        -0.1709
   1317  C2        -0.3580   66.7960   25.7870 C.ar   61  G61         0.2606
   1318  N2        -1.5230   66.8580   26.4480 N.pl3  61  G61        -0.0859
   1319  N3         0.5100   67.8000   25.8910 N.ar   61  G61        -0.1918
   1320  C4         1.6390   67.5890   25.1620 C.ar   61  G61         0.1723
   1321  C5         1.9400   66.4950   24.3730 C.ar   61  G61         0.1748
   1322  C6         1.0050   65.4320   24.2690 C.ar   61  G61         0.3023
   1323  O6         1.1080   64.3830   23.6160 O.2    61  G61        -0.2633
   1324  N7         3.1880   66.6450   23.7860 N.ar   61  G61        -0.2173
   1325  C8         3.6080   67.8010   24.2210 C.ar   61  G61         0.1817
   1326  N9         2.7250   68.4380   25.0600 N.ar   61  G61        -0.2693
   1327  OP1        9.1830   69.6330   25.0760 O.3    61  G61        -0.4373
   1328  OP2        8.1310   67.5290   24.0660 O.co2  61  G61        -0.5172
   1329  P          5.7120   68.7460   29.5040 P.3    62  C62         0.2141
   1330  C5'        3.4350   68.7010   30.8500 C.3    62  C62         0.1812
   1331  O5'        4.3610   68.0340   29.9900 O.3    62  C62        -0.3114
   1332  C4'        2.1470   67.9060   30.9820 C.3    62  C62         0.1773
   1333  O4'        1.5530   67.6950   29.6730 O.3    62  C62        -0.3307
   1334  C3'        2.3010   66.4940   31.5350 C.3    62  C62         0.1860
   1335  O3'        2.3990   66.4950   32.9500 O.3    62  C62        -0.3112
   1336  C2'        1.0150   65.8390   31.0430 C.3    62  C62         0.2309
   1337  O2'       -0.1240   66.1970   31.8060 O.3    62  C62        -0.2156
   1338  C1'        0.9250   66.4190   29.6310 C.3    62  C62         0.2420
   1339  N1         1.5510   65.5320   28.5710 N.ar   62  C62        -0.2535
   1340  C2         0.8300   64.4390   28.0460 C.ar   62  C62         0.3532
   1341  O2        -0.3180   64.1990   28.4440 O.2    62  C62        -0.2443
   1342  N3         1.4170   63.6550   27.0990 N.ar   62  C62        -0.1739
   1343  C4         2.6560   63.9210   26.6720 C.ar   62  C62         0.1759
   1344  N4         3.1790   63.1220   25.7360 N.pl3  62  C62        -0.1070
   1345  C5         3.4080   65.0220   27.1860 C.ar   62  C62         0.0566
   1346  C6         2.8230   65.7860   28.1200 C.ar   62  C62         0.0850
   1347  OP1        6.3920   69.3540   30.6680 O.3    62  C62        -0.4373
   1348  OP2        6.4520   67.7750   28.6640 O.co2  62  C62        -0.5172
   1349  P          3.5570   65.6580   33.6740 P.3    63  U63         0.2141
   1350  C5'        2.2390   63.3890   33.9380 C.3    63  U63         0.1812
   1351  O5'        3.2550   64.1350   33.2610 O.3    63  U63        -0.3114
   1352  C4'        1.6430   62.2650   33.0990 C.3    63  U63         0.1773
   1353  O4'        1.6240   62.5710   31.6790 O.3    63  U63        -0.3307
   1354  C3'        2.3930   60.9440   33.1340 C.3    63  U63         0.1860
   1355  O3'        2.1900   60.2650   34.3660 O.3    63  U63        -0.3112
   1356  C2'        1.7390   60.2210   31.9610 C.3    63  U63         0.2309
   1357  O2'        0.4770   59.6700   32.2890 O.3    63  U63        -0.2156
   1358  C1'        1.5990   61.3530   30.9440 C.3    63  U63         0.2420
   1359  N1         2.6660   61.3470   29.8660 N.ar   63  U63        -0.2534
   1360  C2         2.6010   60.4220   28.8310 C.ar   63  U63         0.3546
   1361  O2         1.7210   59.5850   28.7200 O.2    63  U63        -0.2443
   1362  N3         3.6170   60.5010   27.9050 N.ar   63  U63        -0.1530
   1363  C4         4.6750   61.3940   27.9050 C.ar   63  U63         0.2846
   1364  O4         5.5080   61.3450   27.0050 O.2    63  U63        -0.2650
   1365  C5         4.6840   62.3250   29.0070 C.ar   63  U63         0.0814
   1366  C6         3.7030   62.2670   29.9200 C.ar   63  U63         0.0870
   1367  OP1        3.3530   65.8290   35.1310 O.3    63  U63        -0.4373
   1368  OP2        4.8570   66.0350   33.0700 O.co2  63  U63        -0.5172
   1369  P          3.3790   59.4040   35.0000 P.3    64  G64         0.2141
   1370  C5'        2.5370   57.1990   33.8290 C.3    64  G64         0.1812
   1371  O5'        3.5500   58.1900   33.9730 O.3    64  G64        -0.3114
   1372  C4'        2.8040   56.3500   32.6010 C.3    64  G64         0.1773
   1373  O4'        2.7530   57.1700   31.4040 O.3    64  G64        -0.3307
   1374  C3'        4.1960   55.7380   32.5350 C.3    64  G64         0.1860
   1375  O3'        4.3350   54.5850   33.3490 O.3    64  G64        -0.3112
   1376  C2'        4.3210   55.4470   31.0420 C.3    64  G64         0.2309
   1377  O2'        3.5800   54.3160   30.6170 O.3    64  G64        -0.2156
   1378  C1'        3.7390   56.7400   30.4790 C.3    64  G64         0.2408
   1379  N1         7.2570   58.8070   27.3810 N.ar   64  G64        -0.1709
   1380  C2         6.3930   57.7630   27.1330 C.ar   64  G64         0.2606
   1381  N2         6.4740   57.2040   25.9170 N.pl3  64  G64        -0.0859
   1382  N3         5.5120   57.3040   28.0220 N.ar   64  G64        -0.1918
   1383  C4         5.5600   57.9830   29.2020 C.ar   64  G64         0.1723
   1384  C5         6.3880   59.0310   29.5400 C.ar   64  G64         0.1748
   1385  C6         7.3240   59.5070   28.5880 C.ar   64  G64         0.3023
   1386  O6         8.1330   60.4320   28.7230 O.2    64  G64        -0.2633
   1387  N7         6.1420   59.4630   30.8330 N.ar   64  G64        -0.2173
   1388  C8         5.1880   58.6830   31.2500 C.ar   64  G64         0.1817
   1389  N9         4.7770   57.7610   30.3170 N.ar   64  G64        -0.2693
   1390  OP1        2.8870   58.8770   36.2930 O.3    64  G64        -0.4373
   1391  OP2        4.6240   60.2070   34.9480 O.co2  64  G64        -0.5172
   1392  P          5.7940   54.2290   33.9070 P.3    65  A65         0.2141
   1393  C5'        6.4850   51.9480   32.7790 C.3    65  A65         0.1812
   1394  O5'        6.4230   53.3640   32.7140 O.3    65  A65        -0.3114
   1395  C4'        5.1700   51.3010   32.3870 C.3    65  A65         0.1773
   1396  O4'        4.6280   51.9080   31.1880 O.3    65  A65        -0.3307
   1397  C3'        5.3050   49.8310   32.0240 C.3    65  A65         0.1860
   1398  O3'        5.3010   49.0190   33.1910 O.3    65  A65        -0.3112
   1399  C2'        4.0880   49.6000   31.1380 C.3    65  A65         0.2309
   1400  O2'        2.8790   49.4850   31.8600 O.3    65  A65        -0.2156
   1401  C1'        4.1060   50.8960   30.3320 C.3    65  A65         0.2408
   1402  N1         4.6800   48.6950   25.6590 N.ar   65  A65        -0.2040
   1403  C2         3.8000   48.4720   26.6460 C.ar   65  A65         0.2016
   1404  N3         3.7090   49.0740   27.8350 N.ar   65  A65        -0.2048
   1405  C4         4.6610   50.0160   27.9870 C.ar   65  A65         0.1692
   1406  C5         5.6320   50.3540   27.0580 C.ar   65  A65         0.1518
   1407  C6         5.6240   49.6460   25.8350 C.ar   65  A65         0.1919
   1408  N6         6.4970   49.8600   24.8480 N.pl3  65  A65        -0.1054
   1409  N7         6.4370   51.3630   27.5450 N.ar   65  A65        -0.2193
   1410  C8         5.9500   51.6120   28.7360 C.ar   65  A65         0.1816
   1411  N9         4.8760   50.8390   29.0780 N.ar   65  A65        -0.2693
   1412  OP1        5.6070   53.3750   35.1020 O.3    65  A65        -0.4373
   1413  OP2        6.5820   55.4820   34.0150 O.co2  65  A65        -0.5172
   1414  P          6.4890   47.9720   33.4030 P.3    66  A66         0.2141
   1415  C5'        4.8750   46.1270   32.4870 C.3    66  A66         0.1812
   1416  O5'        6.1050   46.8400   32.3410 O.3    66  A66        -0.3114
   1417  C4'        4.4820   45.4390   31.1950 C.3    66  A66         0.1773
   1418  O4'        4.3850   46.3990   30.1130 O.3    66  A66        -0.3307
   1419  C3'        5.4960   44.4370   30.6820 C.3    66  A66         0.1860
   1420  O3'        5.3840   43.2180   31.3920 O.3    66  A66        -0.3112
   1421  C2'        5.0810   44.3290   29.2210 C.3    66  A66         0.2309
   1422  O2'        3.8950   43.5840   29.0460 O.3    66  A66        -0.2156
   1423  C1'        4.8130   45.7930   28.9040 C.3    66  A66         0.2408
   1424  N1         7.8650   46.6840   24.8330 N.ar   66  A66        -0.2040
   1425  C2         6.8130   45.8700   24.9950 C.ar   66  A66         0.2016
   1426  N3         6.0660   45.6810   26.0800 N.ar   66  A66        -0.2048
   1427  C4         6.4930   46.4490   27.1000 C.ar   66  A66         0.1692
   1428  C5         7.5580   47.3370   27.0800 C.ar   66  A66         0.1518
   1429  C6         8.2720   47.4460   25.8710 C.ar   66  A66         0.1919
   1430  N6         9.3210   48.2630   25.7090 N.pl3  66  A66        -0.1054
   1431  N7         7.7030   47.9630   28.3050 N.ar   66  A66        -0.2193
   1432  C8         6.7370   47.4480   29.0310 C.ar   66  A66         0.1816
   1433  N9         5.9640   46.5280   28.3710 N.ar   66  A66        -0.2693
   1434  OP1        6.3550   47.4110   34.7680 O.3    66  A66        -0.4373
   1435  OP2        7.7710   48.5900   32.9900 O.co2  66  A66        -0.5172
   1436  P          6.6590   42.2560   31.4970 P.3    67  A67         0.2141
   1437  C5'        5.5490   40.6980   29.6860 C.3    67  A67         0.1812
   1438  O5'        6.6450   41.5060   30.0870 O.3    67  A67        -0.3114
   1439  C4'        5.7210   40.3030   28.2350 C.3    67  A67         0.1773
   1440  O4'        5.7230   41.4920   27.4060 O.3    67  A67        -0.3307
   1441  C3'        7.0540   39.6500   27.9040 C.3    67  A67         0.1860
   1442  O3'        7.0600   38.2790   28.2610 O.3    67  A67        -0.3112
   1443  C2'        7.1070   39.8790   26.3980 C.3    67  A67         0.2309
   1444  O2'        6.2280   39.0400   25.6700 O.3    67  A67        -0.2156
   1445  C1'        6.6210   41.3190   26.3230 C.3    67  A67         0.2408
   1446  N1        10.1210   44.0630   23.7010 N.ar   67  A67        -0.2040
   1447  C2         9.2410   43.1330   23.3080 C.ar   67  A67         0.2016
   1448  N3         8.3610   42.4560   24.0500 N.ar   67  A67        -0.2048
   1449  C4         8.4330   42.8100   25.3450 C.ar   67  A67         0.1692
   1450  C5         9.2930   43.7450   25.8970 C.ar   67  A67         0.1518
   1451  C6        10.1750   44.3980   25.0130 C.ar   67  A67         0.1919
   1452  N6        11.0520   45.3240   25.4130 N.pl3  67  A67        -0.1054
   1453  N7         9.0900   43.8570   27.2580 N.ar   67  A67        -0.2193
   1454  C8         8.1280   42.9960   27.5000 C.ar   67  A67         0.1816
   1455  N9         7.6800   42.3270   26.3920 N.ar   67  A67        -0.2693
   1456  OP1        6.4020   41.2760   32.5750 O.3    67  A67        -0.4373
   1457  OP2        7.8890   43.0870   31.5310 O.co2  67  A67        -0.5172
   1458  P          8.4420   37.5650   28.6390 P.3    68  G68         0.2141
   1459  C5'        8.8430   36.6720   26.2070 C.3    68  G68         0.1812
   1460  O5'        9.2310   37.5520   27.2500 O.3    68  G68        -0.3114
   1461  C4'        9.5370   37.0490   24.9140 C.3    68  G68         0.1773
   1462  O4'        9.3340   38.4550   24.6430 O.3    68  G68        -0.3307
   1463  C3'       11.0470   36.9350   24.9400 C.3    68  G68         0.1860
   1464  O3'       11.4580   35.5970   24.7860 O.3    68  G68        -0.3112
   1465  C2'       11.4040   37.8050   23.7430 C.3    68  G68         0.2309
   1466  O2'       11.1450   37.1710   22.5060 O.3    68  G68        -0.2156
   1467  C1'       10.4590   38.9820   23.9660 C.3    68  G68         0.2408
   1468  N1        13.5370   43.0330   23.8700 N.ar   68  G68        -0.1709
   1469  C2        13.0900   42.2350   22.8350 C.ar   68  G68         0.2606
   1470  N2        13.5140   42.5410   21.6010 N.pl3  68  G68        -0.0859
   1471  N3        12.2760   41.1990   22.9950 N.ar   68  G68        -0.1918
   1472  C4        11.9340   41.0110   24.2960 C.ar   68  G68         0.1723
   1473  C5        12.3240   41.7440   25.4030 C.ar   68  G68         0.1748
   1474  C6        13.2000   42.8530   25.2170 C.ar   68  G68         0.3023
   1475  O6        13.6590   43.6280   26.0730 O.2    68  G68        -0.2633
   1476  N7        11.7420   41.2240   26.5580 N.ar   68  G68        -0.2173
   1477  C8        11.0340   40.2090   26.1380 C.ar   68  G68         0.1817
   1478  N9        11.1020   40.0210   24.7710 N.ar   68  G68        -0.2693
   1479  OP1        8.1380   36.1700   29.0270 O.2    68  G68        -0.5172
   1480  OP2        9.1940   38.4560   29.5580 O.co2  68  G68        -0.4373
   1481  P         12.4730   34.9720   25.8500 P.3    69  G69         0.2141
   1482  C5'       14.4260   35.6410   24.1940 C.3    69  G69         0.1812
   1483  O5'       13.8530   35.7100   25.4990 O.3    69  G69        -0.3114
   1484  C4'       15.5770   36.6180   24.0220 C.3    69  G69         0.1773
   1485  O4'       15.0790   37.9710   23.8070 O.3    69  G69        -0.3307
   1486  C3'       16.5180   36.7660   25.2130 C.3    69  G69         0.1860
   1487  O3'       17.4830   35.7360   25.2650 O.3    69  G69        -0.3112
   1488  C2'       17.1440   38.1070   24.8710 C.3    69  G69         0.2309
   1489  O2'       18.0370   38.0350   23.7800 O.3    69  G69        -0.2156
   1490  C1'       15.8840   38.8940   24.5200 C.3    69  G69         0.2408
   1491  N1        16.1910   42.0170   28.5320 N.ar   69  G69        -0.1709
   1492  C2        17.0220   41.9030   27.4410 C.ar   69  G69         0.2606
   1493  N2        18.0810   42.7200   27.4030 N.pl3  69  G69        -0.0859
   1494  N3        16.8300   41.0470   26.4450 N.ar   69  G69        -0.1918
   1495  C4        15.7170   40.2940   26.6280 C.ar   69  G69         0.1723
   1496  C5        14.8280   40.3290   27.6790 C.ar   69  G69         0.1748
   1497  C6        15.0430   41.2480   28.7360 C.ar   69  G69         0.3023
   1498  O6        14.3450   41.4210   29.7460 O.2    69  G69        -0.2633
   1499  N7        13.8210   39.3970   27.5020 N.ar   69  G69        -0.2173
   1500  C8        14.1080   38.8280   26.3670 C.ar   69  G69         0.1817
   1501  N9        15.2450   39.3260   25.7710 N.ar   69  G69        -0.2693
   1502  OP1       12.5860   33.5290   25.5510 O.2    69  G69        -0.5172
   1503  OP2       12.0560   35.4060   27.2010 O.co2  69  G69        -0.4373
   1504  P         18.0420   35.2090   26.6680 P.3    70  C70         0.2141
   1505  C5'       20.2190   36.7090   26.7190 C.3    70  C70         0.1812
   1506  O5'       18.9170   36.4280   27.2070 O.3    70  C70        -0.3114
   1507  C4'       20.7950   37.8750   27.4960 C.3    70  C70         0.1773
   1508  O4'       19.7750   38.8940   27.6570 O.3    70  C70        -0.3307
   1509  C3'       21.2100   37.5550   28.9270 C.3    70  C70         0.1860
   1510  O3'       22.5140   36.9930   28.9580 O.3    70  C70        -0.3112
   1511  C2'       21.1940   38.9480   29.5410 C.3    70  C70         0.2309
   1512  O2'       22.3000   39.7380   29.1510 O.3    70  C70        -0.2156
   1513  C1'       19.9290   39.5270   28.9220 C.3    70  C70         0.2420
   1514  N1        18.6900   39.3730   29.7700 N.ar   70  C70        -0.2535
   1515  C2        18.5920   40.0460   31.0090 C.ar   70  C70         0.3532
   1516  O2        19.5240   40.7520   31.4150 O.2    70  C70        -0.2443
   1517  N3        17.4660   39.9070   31.7560 N.ar   70  C70        -0.1739
   1518  C4        16.4590   39.1450   31.3160 C.ar   70  C70         0.1759
   1519  N4        15.3770   39.0460   32.0940 N.pl3  70  C70        -0.1070
   1520  C5        16.5300   38.4540   30.0620 C.ar   70  C70         0.0566
   1521  C6        17.6470   38.5970   29.3300 C.ar   70  C70         0.0850
   1522  OP1       18.9080   34.0480   26.3630 O.2    70  C70        -0.5172
   1523  OP2       16.9240   35.0670   27.6210 O.co2  70  C70        -0.4373
   1524  P         22.8700   35.7530   29.9130 P.3    71  G71         0.2141
   1525  C5'       23.6810   37.4480   31.7890 C.3    71  G71         0.1812
   1526  O5'       22.8290   36.3860   31.3780 O.3    71  G71        -0.3114
   1527  C4'       23.1010   38.0720   33.0500 C.3    71  G71         0.1773
   1528  O4'       21.7560   38.5390   32.7790 O.3    71  G71        -0.3307
   1529  C3'       22.9280   37.1150   34.2260 C.3    71  G71         0.1860
   1530  O3'       24.1030   37.0780   35.0190 O.3    71  G71        -0.3112
   1531  C2'       21.7730   37.7250   35.0110 C.3    71  G71         0.2309
   1532  O2'       22.2090   38.7400   35.8940 O.3    71  G71        -0.2156
   1533  C1'       20.9290   38.3520   33.9120 C.3    71  G71         0.2408
   1534  N1        16.0700   37.0120   34.8610 N.ar   71  G71        -0.1709
   1535  C2        16.8950   37.8100   35.6100 C.ar   71  G71         0.2606
   1536  N2        16.3630   38.3110   36.7340 N.pl3  71  G71        -0.0859
   1537  N3        18.1510   38.0960   35.2740 N.ar   71  G71        -0.1918
   1538  C4        18.5270   37.5050   34.1080 C.ar   71  G71         0.1723
   1539  C5        17.7670   36.6920   33.2980 C.ar   71  G71         0.1748
   1540  C6        16.4360   36.4050   33.6660 C.ar   71  G71         0.3023
   1541  O6        15.6260   35.6970   33.0510 O.2    71  G71        -0.2633
   1542  N7        18.4850   36.2750   32.1920 N.ar   71  G71        -0.2173
   1543  C8        19.6520   36.8300   32.3440 C.ar   71  G71         0.1817
   1544  N9        19.7580   37.5880   33.4860 N.ar   71  G71        -0.2693
   1545  OP1       24.2500   35.3360   29.5630 O.2    71  G71        -0.5172
   1546  OP2       21.7700   34.7660   29.8850 O.co2  71  G71        -0.4373
   1547  P         25.2760   36.0260   34.7150 P.3    72  A72         0.2141
   1548  C5'       27.0200   36.6790   36.5860 C.3    72  A72         0.1812
   1549  O5'       25.8970   35.8830   36.1880 O.3    72  A72        -0.3114
   1550  C4'       27.1890   36.6270   38.0920 C.3    72  A72         0.1773
   1551  O4'       26.0660   37.3130   38.6880 O.3    72  A72        -0.3307
   1552  C3'       27.1910   35.2270   38.6900 C.3    72  A72         0.1860
   1553  O3'       28.5220   34.7900   38.9150 O.3    72  A72        -0.3112
   1554  C2'       26.4490   35.3830   40.0130 C.3    72  A72         0.2309
   1555  O2'       27.3020   35.6620   41.1050 O.3    72  A72        -0.2156
   1556  C1'       25.5410   36.5780   39.7750 C.3    72  A72         0.2408
   1557  N1        20.5920   37.4230   40.9220 N.ar   72  A72        -0.2040
   1558  C2        21.7220   37.9120   41.4450 C.ar   72  A72         0.2016
   1559  N3        22.9800   37.6460   41.0940 N.ar   72  A72        -0.2048
   1560  C4        23.0350   36.7600   40.0850 C.ar   72  A72         0.1692
   1561  C5        21.9640   36.1720   39.4490 C.ar   72  A72         0.1518
   1562  C6        20.6840   36.5350   39.9080 C.ar   72  A72         0.1919
   1563  N6        19.5680   36.0340   39.3760 N.pl3  72  A72        -0.1054
   1564  N7        22.3860   35.3120   38.4520 N.ar   72  A72        -0.2193
   1565  C8        23.6920   35.3950   38.5030 C.ar   72  A72         0.1816
   1566  N9        24.1520   36.2470   39.4700 N.ar   72  A72        -0.2693
   1567  OP1       26.2600   36.6990   33.8330 O.2    72  A72        -0.5172
   1568  OP2       24.6880   34.7240   34.3230 O.co2  72  A72        -0.4373
   1569  P         29.3040   33.7960   37.9290 P.3    73  G73         0.2141
   1570  C5'       29.0460   31.3380   38.9270 C.3    73  G73         0.1812
   1571  O5'       29.7130   32.6050   38.9270 O.3    73  G73        -0.3114
   1572  C4'       27.9500   31.2880   39.9770 C.3    73  G73         0.1773
   1573  O4'       26.9290   32.2460   39.6150 O.3    73  G73        -0.3307
   1574  C3'       27.1790   29.9810   40.0590 C.3    73  G73         0.1860
   1575  O3'       27.8230   29.0540   40.9170 O.3    73  G73        -0.3112
   1576  C2'       25.8490   30.4420   40.6380 C.3    73  G73         0.2309
   1577  O2'       25.9350   30.7610   42.0140 O.3    73  G73        -0.2156
   1578  C1'       25.6310   31.7210   39.8490 C.3    73  G73         0.2408
   1579  N1        21.1260   30.8460   37.5230 N.ar   73  G73        -0.1709
   1580  C2        21.4030   30.9150   38.8710 C.ar   73  G73         0.2606
   1581  N2        20.3650   30.7380   39.7060 N.pl3  73  G73        -0.0859
   1582  N3        22.6190   31.1500   39.3640 N.ar   73  G73        -0.1918
   1583  C4        23.5610   31.3150   38.3980 C.ar   73  G73         0.1723
   1584  C5        23.3760   31.2660   37.0330 C.ar   73  G73         0.1748
   1585  C6        22.0790   31.0150   36.5190 C.ar   73  G73         0.3023
   1586  O6        21.7410   30.9380   35.3320 O.2    73  G73        -0.2633
   1587  N7        24.5740   31.4810   36.3640 N.ar   73  G73        -0.2173
   1588  C8        25.4460   31.6540   37.3170 C.ar   73  G73         0.1817
   1589  N9        24.9100   31.5630   38.5810 N.ar   73  G73        -0.2693
   1590  OP1       30.5340   34.5100   37.5160 O.3    73  G73        -0.4373
   1591  OP2       28.3750   33.2530   36.9060 O.co2  73  G73        -0.5172
   1592  P         27.9560   27.5260   40.4620 P.3    74  G74         0.2141
   1593  C5'       26.0330   26.7260   42.0390 C.3    74  G74         0.1812
   1594  O5'       26.4980   26.9270   40.7170 O.3    74  G74        -0.3114
   1595  C4'       24.5200   26.6250   42.0750 C.3    74  G74         0.1773
   1596  O4'       23.9040   27.7480   41.3900 O.3    74  G74        -0.3307
   1597  C3'       23.9100   25.4180   41.3800 C.3    74  G74         0.1860
   1598  O3'       24.0520   24.2610   42.1880 O.3    74  G74        -0.3112
   1599  C2'       22.4630   25.8880   41.2720 C.3    74  G74         0.2309
   1600  O2'       21.7780   25.8930   42.5070 O.3    74  G74        -0.2156
   1601  C1'       22.6750   27.3260   40.8240 C.3    74  G74         0.2408
   1602  N1        20.0120   27.1640   36.4930 N.ar   74  G74        -0.1709
   1603  C2        19.5880   26.9650   37.7900 C.ar   74  G74         0.2606
   1604  N2        18.2920   26.6860   37.9770 N.pl3  74  G74        -0.0859
   1605  N3        20.3900   27.0380   38.8440 N.ar   74  G74        -0.1918
   1606  C4        21.6690   27.3280   38.4990 C.ar   74  G74         0.1723
   1607  C5        22.1900   27.5420   37.2410 C.ar   74  G74         0.1748
   1608  C6        21.3250   27.4670   36.1180 C.ar   74  G74         0.3023
   1609  O6        21.6140   27.6330   34.9220 O.2    74  G74        -0.2633
   1610  N7        23.5510   27.8110   37.3110 N.ar   74  G74        -0.2173
   1611  C8        23.8200   27.7550   38.5860 C.ar   74  G74         0.1817
   1612  N9        22.7250   27.4650   39.3690 N.ar   74  G74        -0.2693
   1613  OP1       28.9110   26.8810   41.3900 O.3    74  G74        -0.4373
   1614  OP2       28.1900   27.4870   38.9990 O.co2  74  G74        -0.5172
   1615  P         24.1570   22.8040   41.5370 P.3    75  G75         0.2141
   1616  C5'       21.6720   22.2990   42.2110 C.3    75  G75         0.1812
   1617  O5'       22.6390   22.4510   41.1750 O.3    75  G75        -0.3114
   1618  C4'       20.2690   22.2800   41.6360 C.3    75  G75         0.1773
   1619  O4'       20.0270   23.5000   40.8840 O.3    75  G75        -0.3307
   1620  C3'       19.9940   21.1790   40.6200 C.3    75  G75         0.1860
   1621  O3'       19.7220   19.9340   41.2630 O.3    75  G75        -0.3112
   1622  C2'       18.7850   21.7630   39.8900 C.3    75  G75         0.2309
   1623  O2'       17.5730   21.6320   40.6090 O.3    75  G75        -0.2156
   1624  C1'       19.1910   23.2330   39.7720 C.3    75  G75         0.2408
   1625  N1        19.1000   23.6660   34.6690 N.ar   75  G75        -0.1709
   1626  C2        18.0680   23.3660   35.5310 C.ar   75  G75         0.2606
   1627  N2        16.8630   23.1460   34.9840 N.pl3  75  G75        -0.0859
   1628  N3        18.2080   23.2800   36.8470 N.ar   75  G75        -0.1918
   1629  C4        19.4800   23.5270   37.2510 C.ar   75  G75         0.1723
   1630  C5        20.5720   23.8350   36.4720 C.ar   75  G75         0.1748
   1631  C6        20.4190   23.9280   35.0680 C.ar   75  G75         0.3023
   1632  O6        21.3010   24.1950   34.2330 O.2    75  G75        -0.2633
   1633  N7        21.7060   24.0170   37.2450 N.ar   75  G75        -0.2173
   1634  C8        21.2840   23.8190   38.4620 C.ar   75  G75         0.1817
   1635  N9        19.9430   23.5190   38.5500 N.ar   75  G75        -0.2693
   1636  OP1       24.6020   21.8930   42.6100 O.3    75  G75        -0.4373
   1637  OP2       24.9350   22.8840   40.2810 O.co2  75  G75        -0.5172
   1638  P         20.3070   18.5640   40.6600 P.3    76  C76         0.2141
   1639  C5'       17.9790   18.1700   39.4840 C.3    76  C76         0.1812
   1640  O5'       19.3930   18.2990   39.3790 O.3    76  C76        -0.3114
   1641  C4'       17.3630   18.2420   38.0990 C.3    76  C76         0.1773
   1642  O4'       17.6040   19.5490   37.5230 O.3    76  C76        -0.3307
   1643  C3'       17.9880   17.3230   37.0660 C.3    76  C76         0.1860
   1644  O3'       17.5600   15.9800   37.2380 O.3    76  C76        -0.3112
   1645  C2'       17.4840   17.9790   35.7820 C.3    76  C76         0.2309
   1646  O2'       16.1110   17.7760   35.5150 O.3    76  C76        -0.2156
   1647  C1'       17.7180   19.4440   36.1140 C.3    76  C76         0.2420
   1648  N1        19.0520   19.9530   35.6300 N.ar   76  C76        -0.2535
   1649  C2        19.1930   20.3480   34.2860 C.ar   76  C76         0.3532
   1650  O2        18.2270   20.2800   33.5120 O.2    76  C76        -0.2443
   1651  N3        20.3990   20.8030   33.8610 N.ar   76  C76        -0.1739
   1652  C4        21.4380   20.8640   34.7040 C.ar   76  C76         0.1759
   1653  N4        22.5990   21.3210   34.2280 N.pl3  76  C76        -0.1070
   1654  C5        21.3210   20.4700   36.0700 C.ar   76  C76         0.0566
   1655  C6        20.1260   20.0250   36.4820 C.ar   76  C76         0.0850
   1656  OP1       20.0460   17.5010   41.6550 O.3    76  C76        -0.4373
   1657  OP2       21.6810   18.8060   40.1650 O.co2  76  C76        -0.5172
   1658  P         18.4810   14.7670   36.7320 P.3    77  G77         0.2141
   1659  C5'       17.1580   14.5620   34.4900 C.3    77  G77         0.1812
   1660  O5'       18.3860   14.8380   35.1430 O.3    77  G77        -0.3114
   1661  C4'       17.2780   14.9570   33.0340 C.3    77  G77         0.1773
   1662  O4'       17.6980   16.3430   32.9190 O.3    77  G77        -0.3307
   1663  C3'       18.3400   14.2000   32.2520 C.3    77  G77         0.1860
   1664  O3'       17.8640   12.9130   31.9100 O.3    77  G77        -0.3112
   1665  C2'       18.4980   15.1240   31.0480 C.3    77  G77         0.2309
   1666  O2'       17.4630   14.9990   30.0860 O.3    77  G77        -0.2156
   1667  C1'       18.4370   16.4960   31.7200 C.3    77  G77         0.2408
   1668  N1        22.6710   18.7320   29.9190 N.ar   77  G77        -0.1709
   1669  C2        21.5390   18.3370   29.2410 C.ar   77  G77         0.2606
   1670  N2        21.5060   18.5500   27.9190 N.pl3  77  G77        -0.0859
   1671  N3        20.4940   17.7600   29.8250 N.ar   77  G77        -0.1918
   1672  C4        20.6590   17.6000   31.1650 C.ar   77  G77         0.1723
   1673  C5        21.7450   17.9610   31.9280 C.ar   77  G77         0.1748
   1674  C6        22.8580   18.5770   31.2980 C.ar   77  G77         0.3023
   1675  O6        23.9130   18.9620   31.8310 O.2    77  G77        -0.2633
   1676  N7        21.5340   17.6260   33.2600 N.ar   77  G77        -0.2173
   1677  C8        20.3490   17.0860   33.2750 C.ar   77  G77         0.1817
   1678  N9        19.7550   17.0360   32.0410 N.ar   77  G77        -0.2693
   1679  OP1       17.8170   13.5130   37.1580 O.3    77  G77        -0.4373
   1680  OP2       19.8850   15.0630   37.0880 O.co2  77  G77        -0.5172
   1681  P         18.8700   11.7020   31.6260 P.3    78  C78         0.2141
   1682  C5'       20.8630   11.9490   29.9140 C.3    78  C78         0.1812
   1683  O5'       19.4940   12.1370   30.2190 O.3    78  C78        -0.3114
   1684  C4'       21.2740   12.9910   28.8940 C.3    78  C78         0.1773
   1685  O4'       21.4750   14.2660   29.5490 O.3    78  C78        -0.3307
   1686  C3'       22.5930   12.7150   28.1980 C.3    78  C78         0.1860
   1687  O3'       22.3930   11.8200   27.1100 O.3    78  C78        -0.3112
   1688  C2'       22.9670   14.1050   27.7120 C.3    78  C78         0.2309
   1689  O2'       22.3440   14.4360   26.4830 O.3    78  C78        -0.2156
   1690  C1'       22.4610   14.9970   28.8480 C.3    78  C78         0.2420
   1691  N1        23.5410   15.4550   29.7910 N.ar   78  C78        -0.2535
   1692  C2        24.5780   16.2660   29.3080 C.ar   78  C78         0.3532
   1693  O2        24.5890   16.5950   28.1190 O.2    78  C78        -0.2443
   1694  N3        25.5530   16.6740   30.1610 N.ar   78  C78        -0.1739
   1695  C4        25.5200   16.3100   31.4460 C.ar   78  C78         0.1759
   1696  N4        26.5100   16.7490   32.2280 N.pl3  78  C78        -0.1070
   1697  C5        24.4780   15.4830   31.9720 C.ar   78  C78         0.0566
   1698  C6        23.5250   15.0860   31.1150 C.ar   78  C78         0.0850
   1699  OP1       18.0520   10.4950   31.4080 O.2    78  C78        -0.5172
   1700  OP2       19.9290   11.6860   32.6640 O.co2  78  C78        -0.4373
   1701  P         23.5670   10.8310   26.6530 P.3    79  C79         0.2141
   1702  C5'       24.1950   12.3990   24.6110 C.3    79  C79         0.1812
   1703  O5'       24.5460   11.8140   25.8580 O.3    79  C79        -0.3114
   1704  C4'       25.4590   12.8670   23.9060 C.3    79  C79         0.1773
   1705  O4'       26.0760   13.9130   24.6970 O.3    79  C79        -0.3307
   1706  C3'       26.5190   11.7790   23.7310 C.3    79  C79         0.1860
   1707  O3'       27.1600   11.8810   22.4790 O.3    79  C79        -0.3112
   1708  C2'       27.5070   12.0840   24.8480 C.3    79  C79         0.2309
   1709  O2'       28.8100   11.6390   24.5450 O.3    79  C79        -0.2156
   1710  C1'       27.4380   13.6070   24.9000 C.3    79  C79         0.2420
   1711  N1        27.9160   14.1390   26.2110 N.ar   79  C79        -0.2535
   1712  C2        29.1200   14.8590   26.2820 C.ar   79  C79         0.3532
   1713  O2        29.7670   15.0650   25.2460 O.2    79  C79        -0.2443
   1714  N3        29.5470   15.3160   27.4930 N.ar   79  C79        -0.1739
   1715  C4        28.8230   15.0760   28.5950 C.ar   79  C79         0.1759
   1716  N4        29.2710   15.5350   29.7680 N.pl3  79  C79        -0.1070
   1717  C5        27.5970   14.3450   28.5430 C.ar   79  C79         0.0566
   1718  C6        27.1890   13.9010   27.3470 C.ar   79  C79         0.0850
   1719  OP1       22.9680    9.8250   25.7440 O.2    79  C79        -0.5172
   1720  OP2       24.3210   10.4020   27.8540 O.co2  79  C79        -0.4373
   1721  P         26.6080   11.1850   21.1540 P.3    80  G80         0.2141
   1722  C5'       24.3920   11.6760   19.8460 C.3    80  G80         0.1812
   1723  O5'       25.3360   12.0720   20.8150 O.3    80  G80        -0.3114
   1724  C4'       23.5440   12.8930   19.5270 C.3    80  G80         0.1773
   1725  O4'       24.3310   13.7660   18.6810 O.3    80  G80        -0.3307
   1726  C3'       22.2330   12.6230   18.7890 C.3    80  G80         0.1860
   1727  O3'       21.1890   13.4030   19.3630 O.3    80  G80        -0.3112
   1728  C2'       22.5100   13.1180   17.3710 C.3    80  G80         0.2309
   1729  O2'       21.3580   13.6540   16.7420 O.3    80  G80        -0.2156
   1730  C1'       23.4980   14.2450   17.6480 C.3    80  G80         0.2408
   1731  N1        26.8050   17.6460   15.7630 N.ar   80  G80        -0.1709
   1732  C2        26.1890   17.6300   16.9970 C.ar   80  G80         0.2606
   1733  N2        26.4850   18.6380   17.8330 N.pl3  80  G80        -0.0859
   1734  N3        25.3350   16.6890   17.3820 N.ar   80  G80        -0.1918
   1735  C4        25.1470   15.7370   16.4290 C.ar   80  G80         0.1723
   1736  C5        25.7180   15.6680   15.1790 C.ar   80  G80         0.1748
   1737  C6        26.6150   16.6810   14.7730 C.ar   80  G80         0.3023
   1738  O6        27.2130   16.7660   13.6920 O.2    80  G80        -0.2633
   1739  N7        25.2750   14.5440   14.4920 N.ar   80  G80        -0.2173
   1740  C8        24.4540   13.9610   15.3170 C.ar   80  G80         0.1817
   1741  N9        24.3280   14.6270   16.5150 N.ar   80  G80        -0.2693
   1742  OP1       26.1860    9.7950   21.4470 O.3    80  G80        -0.4373
   1743  OP2       27.6380   11.4400   20.1230 O.co2  80  G80        -0.5172
   1744  P         20.3700   12.9310   20.6490 P.3    81  A81         0.2141
   1745  C5'       21.2370   15.0170   21.9870 C.3    81  A81         0.1812
   1746  O5'       21.2390   13.6010   21.8180 O.3    81  A81        -0.3114
   1747  C4'       22.1730   15.4120   23.1090 C.3    81  A81         0.1773
   1748  O4'       23.5340   15.4130   22.6180 O.3    81  A81        -0.3307
   1749  C3'       21.9560   16.8100   23.6640 C.3    81  A81         0.1860
   1750  O3'       20.9980   16.7470   24.7140 O.3    81  A81        -0.3112
   1751  C2'       23.3350   17.1230   24.2320 C.3    81  A81         0.2309
   1752  O2'       23.4790   16.6890   25.5700 O.3    81  A81        -0.2156
   1753  C1'       24.2970   16.3710   23.3120 C.3    81  A81         0.2408
   1754  N1        28.2910   19.4820   22.4320 N.ar   81  A81        -0.2040
   1755  C2        28.0280   18.6370   23.4350 C.ar   81  A81         0.2016
   1756  N3        26.9620   17.8510   23.6010 N.ar   81  A81        -0.2048
   1757  C4        26.1010   17.9810   22.5730 C.ar   81  A81         0.1692
   1758  C5        26.2450   18.7980   21.4660 C.ar   81  A81         0.1518
   1759  C6        27.4060   19.5870   21.4120 C.ar   81  A81         0.1919
   1760  N6        27.6740   20.4270   20.4110 N.pl3  81  A81        -0.1054
   1761  N7        25.1600   18.6660   20.6150 N.ar   81  A81        -0.2193
   1762  C8        24.3930   17.7810   21.2120 C.ar   81  A81         0.1816
   1763  N9        24.9050   17.3180   22.3920 N.ar   81  A81        -0.2693
   1764  OP1       20.4610   11.4560   20.7510 O.3    81  A81        -0.4373
   1765  OP2       19.0520   13.6020   20.6100 O.co2  81  A81        -0.5172
   1766  P         19.6080   17.5330   24.6860 P.3    82  A82         0.2141
   1767  C5'       19.4180   19.3800   22.7970 C.3    82  A82         0.1812
   1768  O5'       19.9770   18.9400   24.0250 O.3    82  A82        -0.3114
   1769  C4'       20.4550   20.2360   22.0990 C.3    82  A82         0.1773
   1770  O4'       21.5170   19.4060   21.5660 O.3    82  A82        -0.3307
   1771  C3'       19.9780   20.9870   20.8760 C.3    82  A82         0.1860
   1772  O3'       19.1820   22.1270   21.2230 O.3    82  A82        -0.3112
   1773  C2'       21.3200   21.3340   20.2380 C.3    82  A82         0.2309
   1774  O2'       21.9900   22.3730   20.9250 O.3    82  A82        -0.2156
   1775  C1'       22.0600   20.0100   20.4040 C.3    82  A82         0.2408
   1776  N1        23.3940   18.7700   15.5340 N.ar   82  A82        -0.2040
   1777  C2        23.7880   19.7780   16.3340 C.ar   82  A82         0.2016
   1778  N3        23.4110   20.0460   17.5910 N.ar   82  A82        -0.2048
   1779  C4        22.5110   19.1440   18.0370 C.ar   82  A82         0.1692
   1780  C5        22.0090   18.0660   17.3290 C.ar   82  A82         0.1518
   1781  C6        22.4810   17.8840   16.0090 C.ar   82  A82         0.1919
   1782  N6        22.0770   16.8800   15.2250 N.pl3  82  A82        -0.1054
   1783  N7        21.1070   17.3530   18.0960 N.ar   82  A82        -0.2193
   1784  C8        21.0740   18.0000   19.2310 C.ar   82  A82         0.1816
   1785  N9        21.8960   19.0930   19.2720 N.ar   82  A82        -0.2693
   1786  OP1       19.2620   17.8360   26.0920 O.3    82  A82        -0.4373
   1787  OP2       18.6750   16.7660   23.8250 O.co2  82  A82        -0.5172
   1788  P         18.1790   22.6940   20.1120 P.3    83  G83         0.2141
   1789  C5'       19.8790   24.5670   19.3530 C.3    83  G83         0.1812
   1790  O5'       19.2050   23.3600   19.0830 O.3    83  G83        -0.3114
   1791  C4'       20.7290   24.9180   18.1470 C.3    83  G83         0.1773
   1792  O4'       21.6220   23.8080   17.8660 O.3    83  G83        -0.3307
   1793  C3'       19.9830   25.0860   16.8280 C.3    83  G83         0.1860
   1794  O3'       19.3140   26.3400   16.7190 O.3    83  G83        -0.3112
   1795  C2'       21.1410   24.9180   15.8520 C.3    83  G83         0.2309
   1796  O2'       22.0080   26.0350   15.7860 O.3    83  G83        -0.2156
   1797  C1'       21.8420   23.7120   16.4680 C.3    83  G83         0.2408
   1798  N1        21.9500   20.4930   12.5350 N.ar   83  G83        -0.1709
   1799  C2        22.6530   21.6580   12.7510 C.ar   83  G83         0.2606
   1800  N2        23.5110   22.0430   11.7980 N.pl3  83  G83        -0.0859
   1801  N3        22.5230   22.4050   13.8360 N.ar   83  G83        -0.1918
   1802  C4        21.6280   21.8990   14.7130 C.ar   83  G83         0.1723
   1803  C5        20.8780   20.7530   14.5990 C.ar   83  G83         0.1748
   1804  C6        21.0190   19.9550   13.4270 C.ar   83  G83         0.3023
   1805  O6        20.4360   18.9000   13.1250 O.2    83  G83        -0.2633
   1806  N7        20.0760   20.5930   15.7230 N.ar   83  G83        -0.2173
   1807  C8        20.3500   21.6210   16.4750 C.ar   83  G83         0.1817
   1808  N9        21.2980   22.4590   15.9250 N.ar   83  G83        -0.2693
   1809  OP1       17.3060   23.7210   20.7190 O.3    83  G83        -0.4373
   1810  OP2       17.5740   21.5610   19.3880 O.co2  83  G83        -0.5172
   1811  P         17.9140   26.4500   15.9330 P.3    84  G84         0.2141
   1812  C5'       19.1270   27.4010   13.8450 C.3    84  G84         0.1812
   1813  O5'       18.4100   26.3190   14.4190 O.3    84  G84        -0.3114
   1814  C4'       19.7560   26.9900   12.5340 C.3    84  G84         0.1773
   1815  O4'       20.5440   25.7860   12.7260 O.3    84  G84        -0.3307
   1816  C3'       18.7900   26.6110   11.4220 C.3    84  G84         0.1860
   1817  O3'       18.2250   27.7470   10.8030 O.3    84  G84        -0.3112
   1818  C2'       19.7560   25.8820   10.5020 C.3    84  G84         0.2309
   1819  O2'       20.5870   26.7490    9.7580 O.3    84  G84        -0.2156
   1820  C1'       20.5470   25.0530   11.5160 C.3    84  G84         0.2408
   1821  N1        19.3820   20.6240    9.3490 N.ar   84  G84        -0.1709
   1822  C2        20.1490   21.6610    8.8650 C.ar   84  G84         0.2606
   1823  N2        20.6820   21.5130    7.6440 N.pl3  84  G84        -0.0859
   1824  N3        20.3840   22.7760    9.5440 N.ar   84  G84        -0.1918
   1825  C4        19.7860   22.7770   10.7630 C.ar   84  G84         0.1723
   1826  C5        19.0000   21.8030   11.3340 C.ar   84  G84         0.1748
   1827  C6        18.7550   20.6200   10.6000 C.ar   84  G84         0.3023
   1828  O6        18.0800   19.6490   10.9530 O.2    84  G84        -0.2633
   1829  N7        18.5710   22.1870   12.5970 N.ar   84  G84        -0.2173
   1830  C8        19.0920   23.3710   12.7640 C.ar   84  G84         0.1817
   1831  N9        19.8510   23.7860   11.6940 N.ar   84  G84        -0.2693
   1832  OP1       17.3790   27.8090   16.1660 O.2    84  G84        -0.5172
   1833  OP2       17.0510   25.2760   16.2100 O.co2  84  G84        -0.4373
   1834  P         16.7900   27.6590   10.0870 P.3    85  G85         0.2141
   1835  C5'       17.8310   27.3110    7.6840 C.3    85  G85         0.1812
   1836  O5'       17.0710   26.7880    8.7730 O.3    85  G85        -0.3114
   1837  C4'       18.0350   26.2510    6.6170 C.3    85  G85         0.1773
   1838  O4'       18.6060   25.0530    7.2050 O.3    85  G85        -0.3307
   1839  C3'       16.7580   25.7540    5.9600 C.3    85  G85         0.1860
   1840  O3'       16.3500   26.6320    4.9210 O.3    85  G85        -0.3112
   1841  C2'       17.1970   24.3850    5.4440 C.3    85  G85         0.2309
   1842  O2'       18.0010   24.4390    4.2820 O.3    85  G85        -0.2156
   1843  C1'       18.0410   23.8940    6.6090 C.3    85  G85         0.2408
   1844  N1        15.5490   19.5710    7.9120 N.ar   85  G85        -0.1709
   1845  C2        16.1400   19.8930    6.7100 C.ar   85  G85         0.2606
   1846  N2        16.0740   18.9670    5.7500 N.pl3  85  G85        -0.0859
   1847  N3        16.7600   21.0460    6.4680 N.ar   85  G85        -0.1918
   1848  C4        16.7510   21.8790    7.5450 C.ar   85  G85         0.1723
   1849  C5        16.1880   21.6430    8.7790 C.ar   85  G85         0.1748
   1850  C6        15.5290   20.4130    9.0260 C.ar   85  G85         0.3023
   1851  O6        14.9700   20.0560   10.0750 O.2    85  G85        -0.2633
   1852  N7        16.3730   22.7250    9.6240 N.ar   85  G85        -0.2173
   1853  C8        17.0340   23.5810    8.9040 C.ar   85  G85         0.1817
   1854  N9        17.3030   23.1440    7.6300 N.ar   85  G85        -0.2693
   1855  OP1       16.4270   29.0290    9.6780 O.2    85  G85        -0.5172
   1856  OP2       15.8740   26.8850   10.9530 O.co2  85  G85        -0.4373
   1857  P         14.8160   27.0860    4.7860 P.3    86  U86         0.2141
   1858  C5'       14.4930   25.1620    2.9900 C.3    86  U86         0.1812
   1859  O5'       14.0880   25.7740    4.2210 O.3    86  U86        -0.3114
   1860  C4'       13.9470   23.7490    2.8560 C.3    86  U86         0.1773
   1861  O4'       14.5890   22.8730    3.8190 O.3    86  U86        -0.3307
   1862  C3'       12.4680   23.5790    3.1780 C.3    86  U86         0.1860
   1863  O3'       11.6360   23.9750    2.1030 O.3    86  U86        -0.3112
   1864  C2'       12.3910   22.0850    3.4530 C.3    86  U86         0.2309
   1865  O2'       12.4860   21.2880    2.2880 O.3    86  U86        -0.2156
   1866  C1'       13.6490   21.9180    4.2900 C.3    86  U86         0.2420
   1867  N1        13.4190   22.0680    5.7700 N.ar   86  U86        -0.2534
   1868  C2        12.9120   20.9880    6.4760 C.ar   86  U86         0.3546
   1869  O2        12.6290   19.9110    5.9840 O.2    86  U86        -0.2443
   1870  N3        12.7420   21.2040    7.8160 N.ar   86  U86        -0.1530
   1871  C4        13.0120   22.3630    8.5140 C.ar   86  U86         0.2846
   1872  O4        12.8020   22.3760    9.7140 O.2    86  U86        -0.2650
   1873  C5        13.5350   23.4540    7.7270 C.ar   86  U86         0.0814
   1874  C6        13.7160   23.2660    6.4100 C.ar   86  U86         0.0870
   1875  OP1       14.7690   28.1580    3.7700 O.2    86  U86        -0.5172
   1876  OP2       14.2810   27.3150    6.1420 O.co2  86  U86        -0.4373
   1877  P         10.2540   24.6830    2.4680 P.3    87  G87         0.2141
   1878  C5'        9.0230   22.4450    1.8460 C.3    87  G87         0.1812
   1879  O5'        9.2870   23.4590    2.8170 O.3    87  G87        -0.3114
   1880  C4'        8.3240   21.2530    2.4750 C.3    87  G87         0.1773
   1881  O4'        9.1930   20.6030    3.4370 O.3    87  G87        -0.3307
   1882  C3'        7.0800   21.5990    3.2760 C.3    87  G87         0.1860
   1883  O3'        5.9830   21.7140    2.4100 O.3    87  G87        -0.3112
   1884  C2'        6.9620   20.3910    4.1930 C.3    87  G87         0.2309
   1885  O2'        6.4740   19.2380    3.5430 O.3    87  G87        -0.2156
   1886  C1'        8.4230   20.1700    4.5520 C.3    87  G87         0.2408
   1887  N1         8.2810   20.1700    9.6510 N.ar   87  G87        -0.1709
   1888  C2         7.7300   19.2790    8.7590 C.ar   87  G87         0.2606
   1889  N2         7.0600   18.2460    9.2760 N.pl3  87  G87        -0.0859
   1890  N3         7.8370   19.3840    7.4410 N.ar   87  G87        -0.1918
   1891  C4         8.5450   20.4820    7.0720 C.ar   87  G87         0.1723
   1892  C5         9.1300   21.4310    7.8830 C.ar   87  G87         0.1748
   1893  C6         9.0150   21.3040    9.2910 C.ar   87  G87         0.3023
   1894  O6         9.4730   22.0550   10.1710 O.2    87  G87        -0.2633
   1895  N7         9.7620   22.4020    7.1210 N.ar   87  G87        -0.2173
   1896  C8         9.5550   22.0250    5.8900 C.ar   87  G87         0.1817
   1897  N9         8.8260   20.8660    5.7800 N.ar   87  G87        -0.2693
   1898  OP1        9.7670   25.3680    1.2530 O.2    87  G87        -0.5172
   1899  OP2       10.4460   25.4440    3.7200 O.co2  87  G87        -0.4373
   1900  P          4.8170   22.7500    2.7430 P.3    88  C88         0.2141
   1901  C5'        3.3870   20.7960    3.7560 C.3    88  C88         0.1812
   1902  O5'        4.0500   22.0480    3.9590 O.3    88  C88        -0.3114
   1903  C4'        2.8600   20.2440    5.0630 C.3    88  C88         0.1773
   1904  O4'        3.9690   19.8500    5.9110 O.3    88  C88        -0.3307
   1905  C3'        2.1090   21.2350    5.9350 C.3    88  C88         0.1860
   1906  O3'        0.7960   21.4490    5.4680 O.3    88  C88        -0.3112
   1907  C2'        2.1420   20.4860    7.2570 C.3    88  C88         0.2309
   1908  O2'        1.2560   19.3830    7.2860 O.3    88  C88        -0.2156
   1909  C1'        3.5970   20.0190    7.2660 C.3    88  C88         0.2420
   1910  N1         4.4890   21.0190    7.9410 N.ar   88  C88        -0.2535
   1911  C2         4.5310   21.0640    9.3450 C.ar   88  C88         0.3532
   1912  O2         3.8470   20.2690   10.0080 O.2    88  C88        -0.2443
   1913  N3         5.3300   21.9820    9.9490 N.ar   88  C88        -0.1739
   1914  C4         6.0610   22.8330    9.2240 C.ar   88  C88         0.1759
   1915  N4         6.8340   23.7160    9.8760 N.pl3  88  C88        -0.1070
   1916  C5         6.0260   22.8110    7.7950 C.ar   88  C88         0.0566
   1917  C6         5.2400   21.9000    7.2050 C.ar   88  C88         0.0850
   1918  OP1        3.9250   22.7750    1.5600 O.2    88  C88        -0.5172
   1919  OP2        5.4080   24.0100    3.2440 O.co2  88  C88        -0.4373
   1920  P          0.1090   22.8830    5.6470 P.3    89  A89         0.2141
   1921  C5'       -1.1010   22.0950    7.8580 C.3    89  A89         0.1812
   1922  O5'       -0.1610   22.9630    7.2240 O.3    89  A89        -0.3114
   1923  C4'       -1.0290   22.1380    9.3780 C.3    89  A89         0.1773
   1924  O4'        0.2790   21.7200    9.8580 O.3    89  A89        -0.3307
   1925  C3'       -1.2080   23.5050   10.0230 C.3    89  A89         0.1860
   1926  O3'       -2.5650   23.9250   10.0210 O.3    89  A89        -0.3112
   1927  C2'       -0.6690   23.2050   11.4180 C.3    89  A89         0.2309
   1928  O2'       -1.5510   22.4110   12.1860 O.3    89  A89        -0.2156
   1929  C1'        0.5910   22.4200   11.0530 C.3    89  A89         0.2408
   1930  N1         4.1930   25.4300   13.2170 N.ar   89  A89        -0.2040
   1931  C2         3.2320   24.6610   13.7470 C.ar   89  A89         0.2016
   1932  N3         2.3300   23.9030   13.1180 N.ar   89  A89        -0.2048
   1933  C4         2.4660   23.9680   11.7820 C.ar   89  A89         0.1692
   1934  C5         3.4050   24.7110   11.0900 C.ar   89  A89         0.1518
   1935  C6         4.3080   25.4770   11.8670 C.ar   89  A89         0.1919
   1936  N6         5.2690   26.2380   11.3380 N.pl3  89  A89        -0.1054
   1937  N7         3.2540   24.5320    9.7250 N.ar   89  A89        -0.2193
   1938  C8         2.2410   23.7010    9.6200 C.ar   89  A89         0.1816
   1939  N9         1.7220   23.3130   10.8240 N.ar   89  A89        -0.2693
   1940  OP1       -1.1780   22.8460    4.9090 O.2    89  A89        -0.5172
   1941  OP2        1.0750   23.9550    5.3240 O.co2  89  A89        -0.4373
   1942  P         -2.9130   25.4900   10.0840 P.3    90  G90         0.2141
   1943  C5'       -3.4810   25.4890   12.6250 C.3    90  G90         0.1812
   1944  O5'       -2.5780   25.8710   11.6000 O.3    90  G90        -0.3114
   1945  C4'       -2.9410   25.8460   13.9930 C.3    90  G90         0.1773
   1946  O4'       -1.6000   25.3100   14.1440 O.3    90  G90        -0.3307
   1947  C3'       -2.7710   27.3330   14.2530 C.3    90  G90         0.1860
   1948  O3'       -4.0140   27.9310   14.6010 O.3    90  G90        -0.3112
   1949  C2'       -1.7680   27.3030   15.4010 C.3    90  G90         0.2309
   1950  O2'       -2.3480   26.9920   16.6510 O.3    90  G90        -0.2156
   1951  C1'       -0.8230   26.1920   14.9310 C.3    90  G90         0.2408
   1952  N1         3.4410   28.9470   14.9060 N.ar   90  G90        -0.1709
   1953  C2         2.6640   28.5400   15.9700 C.ar   90  G90         0.2606
   1954  N2         3.0670   28.9120   17.1880 N.pl3  90  G90        -0.0859
   1955  N3         1.5630   27.8090   15.8470 N.ar   90  G90        -0.1918
   1956  C4         1.2940   27.5100   14.5530 C.ar   90  G90         0.1723
   1957  C5         1.9960   27.8670   13.4250 C.ar   90  G90         0.1748
   1958  C6         3.1720   28.6470   13.5690 C.ar   90  G90         0.3023
   1959  O6         3.9280   29.0590   12.6820 O.2    90  G90        -0.2633
   1960  N7         1.3840   27.3600   12.2850 N.ar   90  G90        -0.2173
   1961  C8         0.3420   26.7220   12.7370 C.ar   90  G90         0.1817
   1962  N9         0.2310   26.7640   14.1050 N.ar   90  G90        -0.2693
   1963  OP1       -4.3720   25.6150    9.8490 O.3    90  G90        -0.4373
   1964  OP2       -1.9680   26.2380    9.2210 O.co2  90  G90        -0.5172
   1965  P         -4.3920   29.3940   14.0630 P.3    91  A91         0.2141
   1966  C5'       -3.7680   30.3370   16.4180 C.3    91  A91         0.1812
   1967  O5'       -3.5240   30.3400   15.0130 O.3    91  A91        -0.3114
   1968  C4'       -2.6530   31.0320   17.1740 C.3    91  A91         0.1773
   1969  O4'       -1.3870   30.3590   16.9520 O.3    91  A91        -0.3307
   1970  C3'       -2.3730   32.4540   16.7290 C.3    91  A91         0.1860
   1971  O3'       -3.2960   33.3530   17.3110 O.3    91  A91        -0.3112
   1972  C2'       -0.9600   32.6570   17.2550 C.3    91  A91         0.2309
   1973  O2'       -0.9440   32.9160   18.6460 O.3    91  A91        -0.2156
   1974  C1'       -0.3340   31.3080   16.9050 C.3    91  A91         0.2408
   1975  N1         3.6490   32.8180   14.0080 N.ar   91  A91        -0.2040
   1976  C2         3.3690   32.9890   15.3070 C.ar   91  A91         0.2016
   1977  N3         2.3120   32.5620   15.9930 N.ar   91  A91        -0.2048
   1978  C4         1.4630   31.8870   15.2000 C.ar   91  A91         0.1692
   1979  C5         1.6140   31.6380   13.8450 C.ar   91  A91         0.1518
   1980  C6         2.7840   32.1400   13.2310 C.ar   91  A91         0.1919
   1981  N6         3.0910   31.9920   11.9390 N.pl3  91  A91        -0.1054
   1982  N7         0.5360   30.9130   13.3660 N.ar   91  A91        -0.2193
   1983  C8        -0.2310   30.7470   14.4210 C.ar   91  A91         0.1816
   1984  N9         0.2690   31.3060   15.5680 N.ar   91  A91        -0.2693
   1985  OP1       -5.8300   29.6090   14.3530 O.3    91  A91        -0.4373
   1986  OP2       -3.9090   29.5450   12.6700 O.co2  91  A91        -0.5172
   1987  P         -3.6200   34.7180   16.5480 P.3    92  G92         0.2141
   1988  C5'       -1.9260   36.1200   17.9900 C.3    92  G92         0.1812
   1989  O5'       -2.2910   35.5740   16.7370 O.3    92  G92        -0.3114
   1990  C4'       -0.5790   36.7860   17.8220 C.3    92  G92         0.1773
   1991  O4'        0.3520   35.8360   17.2530 O.3    92  G92        -0.3307
   1992  C3'       -0.5420   37.9120   16.8030 C.3    92  G92         0.1860
   1993  O3'       -1.1150   39.0990   17.3340 O.3    92  G92        -0.3112
   1994  C2'        0.9600   38.0070   16.5480 C.3    92  G92         0.2309
   1995  O2'        1.6980   38.6530   17.5620 O.3    92  G92        -0.2156
   1996  C1'        1.3370   36.5350   16.5170 C.3    92  G92         0.2408
   1997  N1         4.0520   36.3900   12.2420 N.ar   92  G92        -0.1709
   1998  C2         4.3400   37.0060   13.4390 C.ar   92  G92         0.2606
   1999  N2         5.5000   37.6730   13.5130 N.pl3  92  G92        -0.0859
   2000  N3         3.5350   36.9660   14.4930 N.ar   92  G92        -0.1918
   2001  C4         2.4050   36.2520   14.2520 C.ar   92  G92         0.1723
   2002  C5         2.0290   35.6030   13.0990 C.ar   92  G92         0.1748
   2003  C6         2.8980   35.6520   11.9810 C.ar   92  G92         0.3023
   2004  O6         2.7430   35.1390   10.8670 O.2    92  G92        -0.2633
   2005  N7         0.7960   34.9860   13.2590 N.ar   92  G92        -0.2173
   2006  C8         0.4520   35.2720   14.4820 C.ar   92  G92         0.1817
   2007  N9         1.3880   36.0310   15.1470 N.ar   92  G92        -0.2693
   2008  OP1       -4.7270   35.3720   17.2730 O.3    92  G92        -0.4373
   2009  OP2       -3.7440   34.4420   15.0980 O.co2  92  G92        -0.5172
   2010  P         -1.9480   40.0680   16.3720 P.3    93  U93         0.2141
   2011  C5'        0.2130   41.5430   16.0250 C.3    93  U93         0.1812
   2012  O5'       -0.8020   40.7180   15.4630 O.3    93  U93        -0.3114
   2013  C4'        1.2380   41.8690   14.9620 C.3    93  U93         0.1773
   2014  O4'        1.8650   40.6440   14.5230 O.3    93  U93        -0.3307
   2015  C3'        0.6610   42.4430   13.6760 C.3    93  U93         0.1860
   2016  O3'        0.4270   43.8200   13.8170 O.3    93  U93        -0.3112
   2017  C2'        1.7670   42.1410   12.6790 C.3    93  U93         0.2309
   2018  O2'        2.8620   43.0330   12.7750 O.3    93  U93        -0.2156
   2019  C1'        2.1790   40.7470   13.1460 C.3    93  U93         0.2420
   2020  N1         1.5340   39.6390   12.3540 N.ar   93  U93        -0.2534
   2021  C2         2.1970   39.1820   11.2330 C.ar   93  U93         0.3546
   2022  O2         3.2680   39.6350   10.8700 O.2    93  U93        -0.2443
   2023  N3         1.5590   38.1720   10.5490 N.ar   93  U93        -0.1530
   2024  C4         0.3480   37.5810   10.8660 C.ar   93  U93         0.2846
   2025  O4        -0.0940   36.6830   10.1590 O.2    93  U93        -0.2650
   2026  C5        -0.2880   38.1080   12.0460 C.ar   93  U93         0.0814
   2027  C6         0.3150   39.0940   12.7300 C.ar   93  U93         0.0870
   2028  OP1       -2.5600   41.1230   17.2090 O.3    93  U93        -0.4373
   2029  OP2       -2.8010   39.2570   15.4700 O.co2  93  U93        -0.5172
   2030  P         -1.0690   44.3620   13.7160 P.3    94  U94         0.2141
   2031  C5'       -0.6750   46.4950   12.1740 C.3    94  U94         0.1812
   2032  O5'       -1.0230   45.1160   12.3030 O.3    94  U94        -0.3114
   2033  C4'       -1.7120   47.2150   11.3230 C.3    94  U94         0.1773
   2034  O4'       -1.8220   46.5740   10.0250 O.3    94  U94        -0.3307
   2035  C3'       -3.1200   47.2380   11.9070 C.3    94  U94         0.1860
   2036  O3'       -3.5940   48.5710   11.8910 O.3    94  U94        -0.3112
   2037  C2'       -3.9300   46.3210   10.9920 C.3    94  U94         0.2309
   2038  O2'       -5.2880   46.6850   10.8270 O.3    94  U94        -0.2156
   2039  C1'       -3.1770   46.4250    9.6730 C.3    94  U94         0.2420
   2040  N1        -3.3520   45.1780    8.8810 N.ar   94  U94        -0.2534
   2041  C2        -4.1460   45.1930    7.7440 C.ar   94  U94         0.3546
   2042  O2        -4.7090   46.1840    7.3240 O.2    94  U94        -0.2443
   2043  N3        -4.2560   43.9850    7.1000 N.ar   94  U94        -0.1530
   2044  C4        -3.6630   42.7920    7.4790 C.ar   94  U94         0.2846
   2045  O4        -3.8500   41.7870    6.8090 O.2    94  U94        -0.2650
   2046  C5        -2.8550   42.8460    8.6720 C.ar   94  U94         0.0814
   2047  C6        -2.7350   44.0140    9.3140 C.ar   94  U94         0.0870
   2048  OP1       -1.2590   45.3070   14.8420 O.3    94  U94        -0.4373
   2049  OP2       -2.0020   43.2250   13.5530 O.co2  94  U94        -0.5172
   2050  P         -4.3110   49.1980   13.1760 P.3    95  C95         0.2141
   2051  C5'       -6.8160   48.7350   13.8660 C.3    95  C95         0.1812
   2052  O5'       -5.8500   48.9310   12.8380 O.3    95  C95        -0.3114
   2053  C4'       -8.1780   48.4860   13.2460 C.3    95  C95         0.1773
   2054  O4'       -8.4310   49.4850   12.2240 O.3    95  C95        -0.3307
   2055  C3'       -8.3150   47.1790   12.4830 C.3    95  C95         0.1860
   2056  O3'       -8.5640   46.0870   13.3490 O.3    95  C95        -0.3112
   2057  C2'       -9.5070   47.4800   11.5890 C.3    95  C95         0.2309
   2058  O2'      -10.7330   47.4150   12.2890 O.3    95  C95        -0.2156
   2059  C1'       -9.2060   48.9170   11.1810 C.3    95  C95         0.2420
   2060  N1        -8.4930   49.0550    9.8570 N.ar   95  C95        -0.2535
   2061  C2        -9.2400   49.0640    8.6640 C.ar   95  C95         0.3532
   2062  O2       -10.4730   48.9490    8.7100 O.2    95  C95        -0.2443
   2063  N3        -8.5850   49.2010    7.4760 N.ar   95  C95        -0.1739
   2064  C4        -7.2510   49.3240    7.4460 C.ar   95  C95         0.1759
   2065  N4        -6.6580   49.4560    6.2550 N.pl3  95  C95        -0.1070
   2066  C5        -6.4720   49.3160    8.6450 C.ar   95  C95         0.0566
   2067  C6        -7.1270   49.1850    9.8100 C.ar   95  C95         0.0850
   2068  OP1       -4.0780   50.6600   13.1320 O.2    95  C95        -0.5172
   2069  OP2       -3.9360   48.4150   14.3800 O.co2  95  C95        -0.4373
   2070  P         -8.0760   44.6320   12.8980 P.3    96  C96         0.2141
   2071  C5'      -10.4600   43.9200   12.0010 C.3    96  C96         0.1812
   2072  O5'       -9.1030   44.2650   11.7250 O.3    96  C96        -0.3114
   2073  C4'      -11.1660   43.4900   10.7280 C.3    96  C96         0.1773
   2074  O4'      -11.1840   44.5990    9.7990 O.3    96  C96        -0.3307
   2075  C3'      -10.4800   42.3930    9.9270 C.3    96  C96         0.1860
   2076  O3'      -10.7120   41.0940   10.4600 O.3    96  C96        -0.3112
   2077  C2'      -11.0940   42.5930    8.5440 C.3    96  C96         0.2309
   2078  O2'      -12.4090   42.0920    8.4160 O.3    96  C96        -0.2156
   2079  C1'      -11.1320   44.1130    8.4660 C.3    96  C96         0.2420
   2080  N1        -9.9760   44.7270    7.7130 N.ar   96  C96        -0.2535
   2081  C2       -10.0320   44.8000    6.3110 C.ar   96  C96         0.3532
   2082  O2       -11.0230   44.3580    5.7160 O.2    96  C96        -0.2443
   2083  N3        -8.9970   45.3640    5.6320 N.ar   96  C96        -0.1739
   2084  C4        -7.9430   45.8400    6.2960 C.ar   96  C96         0.1759
   2085  N4        -6.9530   46.3800    5.5810 N.pl3  96  C96        -0.1070
   2086  C5        -7.8590   45.7720    7.7220 C.ar   96  C96         0.0566
   2087  C6        -8.8850   45.2170    8.3810 C.ar   96  C96         0.0850
   2088  OP1       -8.2790   43.7190   14.0460 O.3    96  C96        -0.4373
   2089  OP2       -6.7350   44.7570   12.2820 O.co2  96  C96        -0.5172
   2090  P         -9.5540   39.9920   10.3210 P.3    97  U97         0.2141
   2091  C5'      -11.0210   38.8290    8.4420 C.3    97  U97         0.1812
   2092  O5'       -9.7760   39.4150    8.8410 O.3    97  U97        -0.3114
   2093  C4'      -11.0740   38.5560    6.9460 C.3    97  U97         0.1773
   2094  O4'      -11.1390   39.8050    6.2110 O.3    97  U97        -0.3307
   2095  C3'       -9.8500   37.8650    6.3600 C.3    97  U97         0.1860
   2096  O3'       -9.8750   36.4560    6.5420 O.3    97  U97        -0.3112
   2097  C2'       -9.9080   38.2770    4.8930 C.3    97  U97         0.2309
   2098  O2'      -10.8500   37.5460    4.1360 O.3    97  U97        -0.2156
   2099  C1'      -10.3670   39.7190    5.0210 C.3    97  U97         0.2420
   2100  N1        -9.2400   40.7290    5.0260 N.ar   97  U97        -0.2534
   2101  C2        -8.6930   41.1490    3.8210 C.ar   97  U97         0.3546
   2102  O2        -9.0580   40.7460    2.7330 O.2    97  U97        -0.2443
   2103  N3        -7.6830   42.0770    3.9320 N.ar   97  U97        -0.1530
   2104  C4        -7.1710   42.6210    5.0990 C.ar   97  U97         0.2846
   2105  O4        -6.2630   43.4430    5.0440 O.2    97  U97        -0.2650
   2106  C5        -7.7840   42.1410    6.3120 C.ar   97  U97         0.0814
   2107  C6        -8.7700   41.2360    6.2290 C.ar   97  U97         0.0870
   2108  OP1       -9.8160   38.9200   11.3060 O.3    97  U97        -0.4373
   2109  OP2       -8.2470   40.6840   10.3480 O.co2  97  U97        -0.5172
   2110  P         -8.4690   35.7110    6.7150 P.3    98  C98         0.2141
   2111  C5'       -8.4840   34.9930    4.1790 C.3    98  C98         0.1812
   2112  O5'       -7.8790   35.7530    5.2260 O.3    98  C98        -0.3114
   2113  C4'       -7.7590   35.1970    2.8600 C.3    98  C98         0.1773
   2114  O4'       -7.8760   36.5820    2.4440 O.3    98  C98        -0.3307
   2115  C3'       -6.2550   34.9600    2.8860 C.3    98  C98         0.1860
   2116  O3'       -5.9250   33.5800    2.8200 O.3    98  C98        -0.3112
   2117  C2'       -5.8380   35.7180    1.6330 C.3    98  C98         0.2309
   2118  O2'       -6.1500   35.0230    0.4450 O.3    98  C98        -0.2156
   2119  C1'       -6.7010   36.9680    1.7530 C.3    98  C98         0.2420
   2120  N1        -6.0020   38.1040    2.4660 N.ar   98  C98        -0.2535
   2121  C2        -5.0690   38.8840    1.7570 C.ar   98  C98         0.3532
   2122  O2        -4.8270   38.6370    0.5700 O.2    98  C98        -0.2443
   2123  N3        -4.4420   39.9020    2.3970 N.ar   98  C98        -0.1739
   2124  C4        -4.7050   40.1590    3.6810 C.ar   98  C98         0.1759
   2125  N4        -4.0500   41.1760    4.2440 N.pl3  98  C98        -0.1070
   2126  C5        -5.6460   39.3820    4.4280 C.ar   98  C98         0.0566
   2127  C6        -6.2620   38.3760    3.7880 C.ar   98  C98         0.0850
   2128  OP1       -8.7230   34.3050    7.1080 O.2    98  C98        -0.5172
   2129  OP2       -7.5890   36.5570    7.5580 O.co2  98  C98        -0.4373
   2130  P         -4.5050   33.0740    3.3640 P.3    99  C99         0.2141
   2131  C5'       -3.3900   32.9980    0.9820 C.3    99  C99         0.1812
   2132  O5'       -3.4740   33.6050    2.2660 O.3    99  C99        -0.3114
   2133  C4'       -2.3030   33.6720    0.1660 C.3    99  C99         0.1773
   2134  O4'       -2.6230   35.0800    0.0310 O.3    99  C99        -0.3307
   2135  C3'       -0.9210   33.6850    0.8080 C.3    99  C99         0.1860
   2136  O3'       -0.2140   32.4490    0.6730 O.3    99  C99        -0.3112
   2137  C2'       -0.2700   34.8360    0.0460 C.3    99  C99         0.2309
   2138  O2'        0.1840   34.4960   -1.2500 O.3    99  C99        -0.2156
   2139  C1'       -1.4240   35.8340   -0.0290 C.3    99  C99         0.2420
   2140  N1        -1.3650   36.8430    1.0790 N.ar   99  C99        -0.2535
   2141  C2        -0.4340   37.8960    1.0110 C.ar   99  C99         0.3532
   2142  O2         0.3250   37.9940    0.0380 O.2    99  C99        -0.2443
   2143  N3        -0.3850   38.7970    2.0240 N.ar   99  C99        -0.1739
   2144  C4        -1.2080   38.6810    3.0690 C.ar   99  C99         0.1759
   2145  N4        -1.1160   39.5970    4.0370 N.pl3  99  C99        -0.1070
   2146  C5        -2.1550   37.6160    3.1680 C.ar   99  C99         0.0566
   2147  C6        -2.1990   36.7320    2.1600 C.ar   99  C99         0.0850
   2148  OP1       -4.5190   31.5970    3.3400 O.2    99  C99        -0.5172
   2149  OP2       -4.1940   33.7850    4.6240 O.co2  99  C99        -0.4373
   2150  P          0.8830   32.0350    1.7730 P.3   100  C100        0.2141
   2151  C5'        2.8460   33.0620    0.3490 C.3   100  C100        0.1812
   2152  O5'        2.0610   33.0890    1.5330 O.3   100  C100       -0.3114
   2153  C4'        3.7290   34.2960    0.2680 C.3   100  C100        0.1773
   2154  O4'        2.9280   35.5060    0.3580 O.3   100  C100       -0.3307
   2155  C3'        4.7300   34.4700    1.4020 C.3   100  C100        0.1860
   2156  O3'        5.8420   33.6100    1.2630 O.3   100  C100       -0.3112
   2157  C2'        5.0850   35.9390    1.1970 C.3   100  C100        0.2309
   2158  O2'        5.9000   36.1800    0.0650 O.3   100  C100       -0.2156
   2159  C1'        3.6920   36.5270    0.9810 C.3   100  C100        0.2420
   2160  N1         3.0470   36.9540    2.2680 N.ar  100  C100       -0.2535
   2161  C2         3.5020   38.1060    2.9330 C.ar  100  C100        0.3532
   2162  O2         4.4280   38.7690    2.4540 O.2   100  C100       -0.2443
   2163  N3         2.9040   38.4690    4.1000 N.ar  100  C100       -0.1739
   2164  C4         1.9040   37.7350    4.6000 C.ar  100  C100        0.1759
   2165  N4         1.3460   38.1310    5.7480 N.pl3 100  C100       -0.1070
   2166  C5         1.4280   36.5590    3.9450 C.ar  100  C100        0.0566
   2167  C6         2.0220   36.2140    2.7990 C.ar  100  C100        0.0850
   2168  OP1        1.3930   30.6830    1.4520 O.2   100  C100       -0.5172
   2169  OP2        0.3180   32.3090    3.1150 O.co2 100  C100       -0.4373
   2170  P          6.6260   33.0820    2.5580 P.3   101  G101        0.2141
   2171  C5'        8.3930   35.0230    2.4400 C.3   101  G101        0.1812
   2172  O5'        7.3250   34.3970    3.1400 O.3   101  G101       -0.3114
   2173  C4'        8.8000   36.2810    3.1780 C.3   101  G101        0.1773
   2174  O4'        7.6660   37.1820    3.2840 O.3   101  G101       -0.3307
   2175  C3'        9.2140   36.0430    4.6230 C.3   101  G101        0.1860
   2176  O3'       10.5590   35.6320    4.6900 O.3   101  G101       -0.3112
   2177  C2'        8.9910   37.4250    5.2280 C.3   101  G101        0.2309
   2178  O2'       10.0180   38.3450    4.9110 O.3   101  G101       -0.2156
   2179  C1'        7.6880   37.8300    4.5480 C.3   101  G101        0.2408
   2180  N1         4.6050   39.0060    8.4640 N.ar  101  G101       -0.1709
   2181  C2         5.7450   39.6390    8.0340 C.ar  101  G101        0.2606
   2182  N2         6.1200   40.7220    8.7270 N.pl3 101  G101       -0.0859
   2183  N3         6.4690   39.2390    6.9960 N.ar  101  G101       -0.1918
   2184  C4         5.9600   38.1300    6.4020 C.ar  101  G101        0.1723
   2185  C5         4.8250   37.4280    6.7540 C.ar  101  G101        0.1748
   2186  C6         4.0550   37.8710    7.8640 C.ar  101  G101        0.3023
   2187  O6         3.0170   37.3750    8.3250 O.2   101  G101       -0.2633
   2188  N7         4.6320   36.3490    5.9030 N.ar  101  G101       -0.2173
   2189  C8         5.6330   36.4200    5.0700 C.ar  101  G101        0.1817
   2190  N9         6.4840   37.4740    5.3070 N.ar  101  G101       -0.2693
   2191  OP1        7.7010   32.1730    2.1010 O.2   101  G101       -0.5172
   2192  OP2        5.6220   32.6100    3.5380 O.co2 101  G101       -0.4373
   2193  P         11.0300   34.5610    5.7830 P.3   102  C102        0.2141
   2194  C5'       11.8250   36.5210    7.3870 C.3   102  C102        0.1812
   2195  O5'       11.0250   35.3550    7.1720 O.3   102  C102       -0.3114
   2196  C4'       11.2970   37.3230    8.5680 C.3   102  C102        0.1773
   2197  O4'        9.9560   37.8170    8.3030 O.3   102  C102       -0.3307
   2198  C3'       11.1190   36.5330    9.8530 C.3   102  C102        0.1860
   2199  O3'       12.3540   36.3810   10.5100 O.3   102  C102       -0.3112
   2200  C2'       10.1590   37.4340   10.6190 C.3   102  C102        0.2309
   2201  O2'       10.7800   38.5820   11.1610 O.3   102  C102       -0.2156
   2202  C1'        9.2050   37.8450    9.5060 C.3   102  C102        0.2420
   2203  N1         8.0000   36.9600    9.4130 N.ar  102  C102       -0.2535
   2204  C2         6.9020   37.2010   10.2540 C.ar  102  C102        0.3532
   2205  O2         6.9300   38.1380   11.0640 O.2   102  C102       -0.2443
   2206  N3         5.8160   36.3940   10.1610 N.ar  102  C102       -0.1739
   2207  C4         5.7890   35.3870    9.2870 C.ar  102  C102        0.1759
   2208  N4         4.6860   34.6380    9.2460 N.pl3 102  C102       -0.1070
   2209  C5         6.8920   35.1180    8.4210 C.ar  102  C102        0.0566
   2210  C6         7.9600   35.9210    8.5200 C.ar  102  C102        0.0850
   2211  OP1       12.4260   34.2090    5.4590 O.2   102  C102       -0.5172
   2212  OP2       10.0070   33.4930    5.8780 O.co2 102  C102       -0.4373
   2213  P         12.6270   35.1140   11.4410 P.3   103  U103        0.2141
   2214  C5'       11.9780   36.3490   13.6750 C.3   103  U103        0.1812
   2215  O5'       11.6730   35.3540   12.7050 O.3   103  U103       -0.3114
   2216  C4'       10.9580   36.3510   14.7910 C.3   103  U103        0.1773
   2217  O4'        9.6540   36.7290   14.2760 O.3   103  U103       -0.3307
   2218  C3'       10.7150   34.9850   15.4040 C.3   103  U103        0.1860
   2219  O3'       11.7190   34.6830   16.3440 O.3   103  U103       -0.3112
   2220  C2'        9.3450   35.1840   16.0400 C.3   103  U103        0.2309
   2221  O2'        9.3930   35.9400   17.2350 O.3   103  U103       -0.2156
   2222  C1'        8.6470   35.9700   14.9340 C.3   103  U103        0.2420
   2223  N1         7.9040   35.0970   13.9510 N.ar  103  U103       -0.2534
   2224  C2         6.6270   34.6480   14.2600 C.ar  103  U103        0.3546
   2225  O2         6.0470   34.9150   15.2970 O.2   103  U103       -0.2443
   2226  N3         6.0390   33.8620   13.2920 N.ar  103  U103       -0.1530
   2227  C4         6.5780   33.4840   12.0720 C.ar  103  U103        0.2846
   2228  O4         5.9320   32.7770   11.3090 O.2   103  U103       -0.2650
   2229  C5         7.9060   33.9790   11.8150 C.ar  103  U103        0.0814
   2230  C6         8.4970   34.7460   12.7440 C.ar  103  U103        0.0870
   2231  OP1       14.0470   35.1890   11.8580 O.3   103  U103       -0.4373
   2232  OP2       12.1410   33.9020   10.7570 O.co2 103  U103       -0.5172
   2233  P         12.1560   33.1650   16.5850 P.3   104  C104        0.2141
   2234  C5'       10.7580   33.0290   18.8020 C.3   104  C104        0.1812
   2235  O5'       10.9540   32.5880   17.4660 O.3   104  C104       -0.3114
   2236  C4'        9.4220   32.5350   19.3130 C.3   104  C104        0.1773
   2237  O4'        8.3730   33.0270   18.4410 O.3   104  C104       -0.3307
   2238  C3'        9.2350   31.0290   19.2540 C.3   104  C104        0.1860
   2239  O3'        9.8680   30.3670   20.3440 O.3   104  C104       -0.3112
   2240  C2'        7.7140   30.9260   19.2890 C.3   104  C104        0.2309
   2241  O2'        7.1670   31.1070   20.5830 O.3   104  C104       -0.2156
   2242  C1'        7.3250   32.0740   18.3580 C.3   104  C104        0.2420
   2243  N1         7.0910   31.6160   16.9290 N.ar  104  C104       -0.2535
   2244  C2         5.8590   31.0280   16.5920 C.ar  104  C104        0.3532
   2245  O2         4.9850   30.9100   17.4610 O.2   104  C104       -0.2443
   2246  N3         5.6470   30.6060   15.3160 N.ar  104  C104       -0.1739
   2247  C4         6.5990   30.7450   14.3890 C.ar  104  C104        0.1759
   2248  N4         6.3350   30.3120   13.1490 N.pl3 104  C104       -0.1070
   2249  C5         7.8630   31.3310   14.7060 C.ar  104  C104        0.0566
   2250  C6         8.0610   31.7470   15.9680 C.ar  104  C104        0.0850
   2251  OP1       13.3930   33.2110   17.4000 O.3   104  C104       -0.4373
   2252  OP2       12.1470   32.4470   15.2850 O.co2 104  C104       -0.5172
   2253  P         10.4350   28.8870   20.1160 P.3   105  U105        0.2141
   2254  C5'        8.2690   27.9000   21.1720 C.3   105  U105        0.1812
   2255  O5'        9.1080   28.0050   20.0320 O.3   105  U105       -0.3114
   2256  C4'        7.0270   27.1230   20.8090 C.3   105  U105        0.1773
   2257  O4'        6.2730   27.8490   19.8070 O.3   105  U105       -0.3307
   2258  C3'        7.2790   25.7880   20.1350 C.3   105  U105        0.1860
   2259  O3'        7.7050   24.8080   21.0820 O.3   105  U105       -0.3112
   2260  C2'        5.8850   25.5530   19.5650 C.3   105  U105        0.2309
   2261  O2'        4.9270   25.2430   20.5550 O.3   105  U105       -0.2156
   2262  C1'        5.5880   26.9310   18.9750 C.3   105  U105        0.2420
   2263  N1         6.0440   27.0620   17.5340 N.ar  105  U105       -0.2534
   2264  C2         5.2850   26.4790   16.5250 C.ar  105  U105        0.3546
   2265  O2         4.2490   25.8690   16.7250 O.2   105  U105       -0.2443
   2266  N3         5.7860   26.6370   15.2520 N.ar  105  U105       -0.1530
   2267  C4         6.9480   27.3020   14.8940 C.ar  105  U105        0.2846
   2268  O4         7.2720   27.3630   13.7130 O.2   105  U105       -0.2650
   2269  C5         7.6870   27.8790   15.9890 C.ar  105  U105        0.0814
   2270  C6         7.2180   27.7420   17.2350 C.ar  105  U105        0.0870
   2271  OP1       11.1780   28.4820   21.3280 O.3   105  U105       -0.4373
   2272  OP2       11.0970   28.8400   18.7960 O.co2 105  U105       -0.5172
   2273  P          8.5500   23.5380   20.6110 P.3   106  G106        0.2141
   2274  C5'        6.3890   22.0490   20.8230 C.3   106  G106        0.1812
   2275  O5'        7.4020   22.6070   19.9980 O.3   106  G106       -0.3114
   2276  C4'        5.3930   21.2710   19.9840 C.3   106  G106        0.1773
   2277  O4'        4.7240   22.1680   19.0590 O.3   106  G106       -0.3307
   2278  C3'        5.9840   20.2080   19.0670 C.3   106  G106        0.1860
   2279  O3'        6.2560   19.0130   19.7690 O.3   106  G106       -0.3112
   2280  C2'        4.8370   20.0340   18.0850 C.3   106  G106        0.2309
   2281  O2'        3.7350   19.3550   18.6530 O.3   106  G106       -0.2156
   2282  C1'        4.4850   21.4930   17.8330 C.3   106  G106        0.2408
   2283  N1         5.1130   21.8130   12.7820 N.ar  106  G106       -0.1709
   2284  C2         4.1800   21.1080   13.5050 C.ar  106  G106        0.2606
   2285  N2         3.2970   20.3920   12.7970 N.pl3 106  G106       -0.0859
   2286  N3         4.1220   21.1070   14.8330 N.ar  106  G106       -0.1918
   2287  C4         5.0860   21.8810   15.3990 C.ar  106  G106        0.1723
   2288  C5         6.0600   22.6230   14.7650 C.ar  106  G106        0.1748
   2289  C6         6.1070   22.6140   13.3430 C.ar  106  G106        0.3023
   2290  O6         6.8910   23.2010   12.5910 O.2   106  G106       -0.2633
   2291  N7         6.8610   23.2790   15.6980 N.ar  106  G106       -0.2173
   2292  C8         6.3600   22.9280   16.8510 C.ar  106  G106        0.1817
   2293  N9         5.2780   22.0800   16.7480 N.ar  106  G106       -0.2693
   2294  OP1        9.1320   22.8760   21.8000 O.3   106  G106       -0.4373
   2295  OP2        9.4580   23.9360   19.5130 O.co2 106  G106       -0.5172
   2296  P          7.4690   18.0660   19.3340 P.3   107  C107        0.2141
   2297  C5'        5.8920   16.5520   17.8720 C.3   107  C107        0.1812
   2298  O5'        6.9810   17.4630   17.9370 O.3   107  C107       -0.3114
   2299  C4'        5.5630   16.2540   16.4210 C.3   107  C107        0.1773
   2300  O4'        5.1970   17.4750   15.7250 O.3   107  C107       -0.3307
   2301  C3'        6.7340   15.7380   15.5930 C.3   107  C107        0.1860
   2302  O3'        7.0120   14.3780   15.8510 O.3   107  C107       -0.3112
   2303  C2'        6.1950   15.9860   14.1900 C.3   107  C107        0.2309
   2304  O2'        5.1730   15.0830   13.8020 O.3   107  C107       -0.2156
   2305  C1'        5.6390   17.3950   14.3800 C.3   107  C107        0.2420
   2306  N1         6.6560   18.4590   14.0520 N.ar  107  C107       -0.2535
   2307  C2         6.8430   18.8190   12.7040 C.ar  107  C107        0.3532
   2308  O2         6.1750   18.2760   11.8140 O.2   107  C107       -0.2443
   2309  N3         7.7600   19.7680   12.3970 N.ar  107  C107       -0.1739
   2310  C4         8.4740   20.3540   13.3590 C.ar  107  C107        0.1759
   2311  N4         9.3510   21.2840   12.9740 N.pl3 107  C107       -0.1070
   2312  C5         8.3120   20.0100   14.7370 C.ar  107  C107        0.0566
   2313  C6         7.4020   19.0670   15.0300 C.ar  107  C107        0.0850
   2314  OP1        7.5330   16.9670   20.3220 O.3   107  C107       -0.4373
   2315  OP2        8.6690   18.8940   19.0710 O.co2 107  C107       -0.5172
   2316  P          8.4980   13.8050   15.6730 P.3   108  A108        0.2141
   2317  C5'        7.9080   12.9490   13.2430 C.3   108  A108        0.1812
   2318  O5'        8.6950   13.8030   14.0790 O.3   108  A108       -0.3114
   2319  C4'        8.1580   13.2060   11.7660 C.3   108  A108        0.1773
   2320  O4'        7.8580   14.5840   11.4290 O.3   108  A108       -0.3307
   2321  C3'        9.5970   13.0260   11.3040 C.3   108  A108        0.1860
   2322  O3'        9.8610   11.6620   11.0480 O.3   108  A108       -0.3112
   2323  C2'        9.6000   13.8400   10.0140 C.3   108  A108        0.2309
   2324  O2'        9.0840   13.1320    8.9000 O.3   108  A108       -0.2156
   2325  C1'        8.7120   15.0220   10.3870 C.3   108  A108        0.2408
   2326  N1        11.5160   19.1710    9.1670 N.ar  108  A108       -0.2040
   2327  C2        10.8780   18.2770    8.4000 C.ar  108  A108        0.2016
   2328  N3        10.1610   17.2190    8.7790 N.ar  108  A108       -0.2048
   2329  C4        10.1360   17.1100   10.1190 C.ar  108  A108        0.1692
   2330  C5        10.7490   17.9520   11.0320 C.ar  108  A108        0.1518
   2331  C6        11.4720   19.0380   10.5060 C.ar  108  A108        0.1919
   2332  N6        12.1100   19.9320   11.2610 N.pl3 108  A108       -0.1054
   2333  N7        10.5100   17.5360   12.3300 N.ar  108  A108       -0.2193
   2334  C8         9.7670   16.4650   12.1770 C.ar  108  A108        0.1816
   2335  N9         9.4980   16.1510   10.8720 N.ar  108  A108       -0.2693
   2336  OP1        8.4420   12.4160   16.1710 O.2   108  A108       -0.5172
   2337  OP2        9.4820   14.7340   16.2710 O.co2 108  A108       -0.4373
   2338  P         11.3110   11.0470   11.2910 P.3   109  U109        0.2141
   2339  C5'       11.9760   11.3970    8.7540 C.3   109  U109        0.1812
   2340  O5'       12.1870   11.7220   10.1350 O.3   109  U109       -0.3114
   2341  C4'       12.7480   12.3490    7.8560 C.3   109  U109        0.1773
   2342  O4'       12.2900   13.7060    8.0790 O.3   109  U109       -0.3307
   2343  C3'       14.2490   12.4120    8.1100 C.3   109  U109        0.1860
   2344  O3'       14.9130   11.3590    7.4100 O.3   109  U109       -0.3112
   2345  C2'       14.6020   13.8000    7.5750 C.3   109  U109        0.2309
   2346  O2'       14.7740   13.8310    6.1720 O.3   109  U109       -0.2156
   2347  C1'       13.3680   14.6180    7.9630 C.3   109  U109        0.2420
   2348  N1        13.5390   15.4070    9.2390 N.ar  109  U109       -0.2534
   2349  C2        14.0820   16.6790    9.1710 C.ar  109  U109        0.3546
   2350  O2        14.4240   17.2070    8.1280 O.2   109  U109       -0.2443
   2351  N3        14.2090   17.3270   10.3800 N.ar  109  U109       -0.1530
   2352  C4        13.8600   16.8440   11.6310 C.ar  109  U109        0.2846
   2353  O4        14.0300   17.5420   12.6270 O.2   109  U109       -0.2650
   2354  C5        13.3040   15.5130   11.6270 C.ar  109  U109        0.0814
   2355  C6        13.1680   14.8620   10.4600 C.ar  109  U109        0.0870
   2356  OP1       11.2050    9.5940   11.0310 O.2   109  U109       -0.5172
   2357  OP2       11.8190   11.5280   12.5960 O.co2 109  U109       -0.4373
   2358  P         15.5640   10.1060    8.1730 P.3   110  G110        0.2141
   2359  C5'       18.0160   10.5850    7.4610 C.3   110  G110        0.1812
   2360  O5'       17.0440   10.6130    8.4860 O.3   110  G110       -0.3114
   2361  C4'       19.0970   11.6120    7.7330 C.3   110  G110        0.1773
   2362  O4'       19.7340   11.2790    8.9950 O.3   110  G110       -0.3307
   2363  C3'       20.1850   11.6570    6.6620 C.3   110  G110        0.1860
   2364  O3'       19.9390   12.7290    5.7130 O.3   110  G110       -0.3112
   2365  C2'       21.4810   11.8030    7.4740 C.3   110  G110        0.2309
   2366  O2'       21.8820   13.1510    7.6720 O.3   110  G110       -0.2156
   2367  C1'       21.1360   11.1700    8.8330 C.3   110  G110        0.2408
   2368  N1        21.2390    6.2820    7.1400 N.ar  110  G110       -0.1709
   2369  C2        20.7140    7.3970    6.5180 C.ar  110  G110        0.2606
   2370  N2        20.1480    7.2200    5.3130 N.pl3 110  G110       -0.0859
   2371  N3        20.7440    8.6150    7.0470 N.ar  110  G110       -0.1918
   2372  C4        21.3440    8.6530    8.2680 C.ar  110  G110        0.1723
   2373  C5        21.8930    7.5940    8.9660 C.ar  110  G110        0.1748
   2374  C6        21.8590    6.2960    8.3950 C.ar  110  G110        0.3023
   2375  O6        22.3020    5.2430    8.8760 O.2   110  G110       -0.2633
   2376  N7        22.4140    8.0180   10.1800 N.ar  110  G110       -0.2173
   2377  C8        22.1730    9.3010   10.1940 C.ar  110  G110        0.1817
   2378  N9        21.5300    9.7680    9.0680 N.ar  110  G110       -0.2693
   2379  OP1       15.6140    8.9970    7.1920 O.2   110  G110       -0.5172
   2380  OP2       14.9170    9.9070    9.4860 O.co2 110  G110       -0.4373
   2381  P         18.8240   12.5890    4.5540 P.3   111  C111        0.2141
   2382  C5'       20.2830   14.1270    2.9570 C.3   111  C111        0.1812
   2383  O5'       19.0450   13.8360    3.5750 O.3   111  C111       -0.3114
   2384  C4'       20.4850   15.6270    2.8090 C.3   111  C111        0.1773
   2385  O4'       19.3030   16.3720    3.1980 O.3   111  C111       -0.3307
   2386  C3'       21.5680   16.1850    3.7120 C.3   111  C111        0.1860
   2387  O3'       22.8290   15.9960    3.1080 O.3   111  C111       -0.3112
   2388  C2'       21.1810   17.6560    3.8260 C.3   111  C111        0.2309
   2389  O2'       21.5900   18.4410    2.7200 O.3   111  C111       -0.2156
   2390  C1'       19.6580   17.5510    3.9010 C.3   111  C111        0.2420
   2391  N1        19.1230   17.4750    5.3080 N.ar  111  C111       -0.2535
   2392  C2        19.3260   18.5360    6.2160 C.ar  111  C111        0.3532
   2393  O2        19.9440   19.5490    5.8670 O.2   111  C111       -0.2443
   2394  N3        18.8310   18.4320    7.4760 N.ar  111  C111       -0.1739
   2395  C4        18.1650   17.3390    7.8520 C.ar  111  C111        0.1759
   2396  N4        17.7010   17.2930    9.1040 N.pl3 111  C111       -0.1070
   2397  C5        17.9440   16.2490    6.9560 C.ar  111  C111        0.0566
   2398  C6        18.4330   16.3610    5.7120 C.ar  111  C111        0.0850
   2399  OP1       17.4900   12.7940    5.1670 O.3   111  C111       -0.4373
   2400  OP2       19.1160   11.3370    3.8160 O.co2 111  C111       -0.5172
   2401  P         24.0330   15.4780    4.0120 P.3   112  C112        0.2141
   2402  C5'       24.9400   17.9530    4.1020 C.3   112  C112        0.1812
   2403  O5'       24.4510   16.8060    4.7960 O.3   112  C112       -0.3114
   2404  C4'       25.1490   19.1060    5.0680 C.3   112  C112        0.1773
   2405  O4'       23.8830   19.5280    5.6340 O.3   112  C112       -0.3307
   2406  C3'       25.9700   18.7790    6.3020 C.3   112  C112        0.1860
   2407  O3'       27.3430   18.7850    6.0050 O.3   112  C112       -0.3112
   2408  C2'       25.5980   19.9310    7.2170 C.3   112  C112        0.2309
   2409  O2'       26.2400   21.1370    6.8560 O.3   112  C112       -0.2156
   2410  C1'       24.1010   20.0270    6.9430 C.3   112  C112        0.2420
   2411  N1        23.2300   19.2950    7.9450 N.ar  112  C112       -0.2535
   2412  C2        23.0560   19.8210    9.2410 C.ar  112  C112        0.3532
   2413  O2        23.6180   20.8710    9.5630 O.2   112  C112       -0.2443
   2414  N3        22.2660   19.1620   10.1260 N.ar  112  C112       -0.1739
   2415  C4        21.6640   18.0230    9.7710 C.ar  112  C112        0.1759
   2416  N4        20.8930   17.4150   10.6830 N.pl3 112  C112       -0.1070
   2417  C5        21.8280   17.4650    8.4670 C.ar  112  C112        0.0566
   2418  C6        22.6080   18.1260    7.5990 C.ar  112  C112        0.0850
   2419  OP1       25.1400   15.0810    3.1150 O.2   112  C112       -0.5172
   2420  OP2       23.5050   14.5300    5.0190 O.co2 112  C112       -0.4373
   2421  P         28.2920   17.7550    6.7740 P.3   113  U113        0.2141
   2422  C5'       29.2150   19.6440    8.3950 C.3   113  U113        0.1812
   2423  O5'       28.4770   18.4390    8.2110 O.3   113  U113       -0.3114
   2424  C4'       28.9810   20.1990    9.7860 C.3   113  U113        0.1773
   2425  O4'       27.5610   20.3340   10.0230 O.3   113  U113       -0.3307
   2426  C3'       29.4100   19.3050   10.9380 C.3   113  U113        0.1860
   2427  O3'       30.8050   19.3810   11.1440 O.3   113  U113       -0.3112
   2428  C2'       28.6390   19.9270   12.0940 C.3   113  U113        0.2309
   2429  O2'       29.2370   21.1180   12.5610 O.3   113  U113       -0.2156
   2430  C1'       27.3150   20.2690   11.4210 C.3   113  U113        0.2420
   2431  N1        26.1990   19.3060   11.7120 N.ar  113  U113       -0.2534
   2432  C2        25.4410   19.4810   12.8500 C.ar  113  U113        0.3546
   2433  O2        25.6300   20.3750   13.6500 O.2   113  U113       -0.2443
   2434  N3        24.4340   18.5600   13.0310 N.ar  113  U113       -0.1530
   2435  C4        24.1120   17.5000   12.2030 C.ar  113  U113        0.2846
   2436  O4        23.1820   16.7580   12.4990 O.2   113  U113       -0.2650
   2437  C5        24.9430   17.3830   11.0310 C.ar  113  U113        0.0814
   2438  C6        25.9310   18.2670   10.8350 C.ar  113  U113        0.0870
   2439  OP1       29.5740   17.7370    6.0320 O.2   113  U113       -0.5172
   2440  OP2       27.5490   16.4930    7.0130 O.co2 113  U113       -0.4373
   2441  P         31.7140   18.0690   11.1790 P.3   114  G114        0.2141
   2442  C5'       30.5910   16.6740   13.1370 C.3   114  G114        0.1812
   2443  O5'       31.5760   17.5970   12.7020 O.3   114  G114       -0.3114
   2444  C4'       30.8260   16.4050   14.6070 C.3   114  G114        0.1773
   2445  O4'       32.0430   15.6300   14.7780 O.3   114  G114       -0.3307
   2446  C3'       31.0740   17.6440   15.4540 C.3   114  G114        0.1860
   2447  O3'       29.8460   18.2430   15.8170 O.3   114  G114       -0.3112
   2448  C2'       31.7880   17.0220   16.6470 C.3   114  G114        0.2309
   2449  O2'       30.9350   16.2950   17.5060 O.3   114  G114       -0.2156
   2450  C1'       32.7220   16.0530   15.9400 C.3   114  G114        0.2408
   2451  N1        37.0270   18.3050   17.5260 N.ar  114  G114       -0.1709
   2452  C2        35.9890   17.7960   18.2790 C.ar  114  G114        0.2606
   2453  N2        36.0990   17.8940   19.6160 N.pl3 114  G114       -0.0859
   2454  N3        34.9090   17.2250   17.7520 N.ar  114  G114       -0.1918
   2455  C4        34.9400   17.1990   16.3920 C.ar  114  G114        0.1723
   2456  C5        35.9220   17.6740   15.5590 C.ar  114  G114        0.1748
   2457  C6        37.0660   18.2820   16.1260 C.ar  114  G114        0.3023
   2458  O6        38.0270   18.7570   15.5140 O.2   114  G114       -0.2633
   2459  N7        35.5910   17.4640   14.2280 N.ar  114  G114       -0.2173
   2460  C8        34.4370   16.8730   14.2710 C.ar  114  G114        0.1817
   2461  N9        33.9790   16.6790   15.5490 N.ar  114  G114       -0.2693
   2462  OP1       33.1200   18.5300   11.0430 O.3   114  G114       -0.4373
   2463  OP2       31.1540   17.0480   10.2510 O.co2 114  G114       -0.5172
   2464  P         29.6980   19.8330   15.8970 P.3   115  G115        0.2141
   2465  C5'       30.1940   19.7130   18.4790 C.3   115  G115        0.1812
   2466  O5'       30.5410   20.2290   17.2000 O.3   115  G115       -0.3114
   2467  C4'       31.2010   20.1350   19.5290 C.3   115  G115        0.1773
   2468  O4'       32.4880   19.5100   19.2910 O.3   115  G115       -0.3307
   2469  C3'       31.5180   21.6170   19.5600 C.3   115  G115        0.1860
   2470  O3'       30.4960   22.2670   20.2820 O.3   115  G115       -0.3112
   2471  C2'       32.8470   21.5990   20.2980 C.3   115  G115        0.2309
   2472  O2'       32.7090   21.3280   21.6770 O.3   115  G115       -0.2156
   2473  C1'       33.5280   20.4140   19.6260 C.3   115  G115        0.2408
   2474  N1        37.7480   22.5200   17.6120 N.ar  115  G115       -0.1709
   2475  C2        37.3990   22.3760   18.9360 C.ar  115  G115        0.2606
   2476  N2        38.2800   22.8440   19.8310 N.pl3 115  G115       -0.0859
   2477  N3        36.2670   21.8120   19.3500 N.ar  115  G115       -0.1918
   2478  C4        35.4940   21.3900   18.3200 C.ar  115  G115        0.1723
   2479  C5        35.7580   21.4930   16.9700 C.ar  115  G115        0.1748
   2480  C6        36.9640   22.0970   16.5410 C.ar  115  G115        0.3023
   2481  O6        37.3560   22.2680   15.3800 O.2   115  G115       -0.2633
   2482  N7        34.7260   20.9480   16.2210 N.ar  115  G115       -0.2173
   2483  C8        33.8700   20.5310   17.1130 C.ar  115  G115        0.1817
   2484  N9        34.2680   20.7610   18.4110 N.ar  115  G115       -0.2693
   2485  OP1       28.2560   20.0960   16.1030 O.3   115  G115       -0.4373
   2486  OP2       30.4130   20.4430   14.7590 O.co2 115  G115       -0.5172
   2487  P         29.9440   23.6970   19.8460 P.3   116  G116        0.2141
   2488  C5'       31.0290   24.8540   21.9190 C.3   116  G116        0.1812
   2489  O5'       31.0150   24.6750   20.5060 O.3   116  G116       -0.3114
   2490  C4'       32.3530   25.4320   22.3770 C.3   116  G116        0.1773
   2491  O4'       33.4430   24.5360   22.0250 O.3   116  G116       -0.3307
   2492  C3'       32.7510   26.7290   21.6970 C.3   116  G116        0.1860
   2493  O3'       32.0570   27.8620   22.2250 O.3   116  G116       -0.3112
   2494  C2'       34.2510   26.7230   21.9760 C.3   116  G116        0.2309
   2495  O2'       34.5880   27.0260   23.3150 O.3   116  G116       -0.2156
   2496  C1'       34.5790   25.2720   21.6310 C.3   116  G116        0.2408
   2497  N1        37.9320   26.0000   17.8570 N.ar  116  G116       -0.1709
   2498  C2        38.0560   26.2410   19.2090 C.ar  116  G116        0.2606
   2499  N2        39.2230   26.7490   19.6200 N.pl3 116  G116       -0.0859
   2500  N3        37.0990   26.0030   20.1020 N.ar  116  G116       -0.1918
   2501  C4        35.9780   25.4910   19.5300 C.ar  116  G116        0.1723
   2502  C5        35.7520   25.2160   18.1980 C.ar  116  G116        0.1748
   2503  C6        36.7840   25.4750   17.2560 C.ar  116  G116        0.3023
   2504  O6        36.7620   25.2860   16.0290 O.2   116  G116       -0.2633
   2505  N7        34.4750   24.6970   18.0170 N.ar  116  G116       -0.2173
   2506  C8        33.9600   24.6750   19.2150 C.ar  116  G116        0.1817
   2507  N9        34.8200   25.1320   20.1930 N.ar  116  G116       -0.2693
   2508  OP1       28.6540   23.8710   20.5450 O.3   116  G116       -0.4373
   2509  OP2       30.0010   23.8270   18.3790 O.co2 116  G116       -0.5172
   2510  P         31.8410   29.1380   21.2870 P.3   117  G117        0.2141
   2511  C5'       34.1010   30.2160   22.1260 C.3   117  G117        0.1812
   2512  O5'       33.3330   29.6900   21.0420 O.3   117  G117       -0.3114
   2513  C4'       35.5450   30.4730   21.7330 C.3   117  G117        0.1773
   2514  O4'       36.0680   29.3400   21.0050 O.3   117  G117       -0.3307
   2515  C3'       35.7350   31.6270   20.7680 C.3   117  G117        0.1860
   2516  O3'       35.7290   32.8760   21.4420 O.3   117  G117       -0.3112
   2517  C2'       37.0850   31.2980   20.1490 C.3   117  G117        0.2309
   2518  O2'       38.1770   31.6170   20.9880 O.3   117  G117       -0.2156
   2519  C1'       36.9730   29.7880   20.0060 C.3   117  G117        0.2408
   2520  N1        38.0970   29.3340   15.0120 N.ar  117  G117       -0.1709
   2521  C2        38.8520   29.8970   16.0140 C.ar  117  G117        0.2606
   2522  N2        40.0400   30.3890   15.6320 N.pl3 117  G117       -0.0859
   2523  N3        38.4590   29.9680   17.2860 N.ar  117  G117       -0.1918
   2524  C4        37.2300   29.4160   17.4840 C.ar  117  G117        0.1723
   2525  C5        36.4050   28.8330   16.5430 C.ar  117  G117        0.1748
   2526  C6        36.8340   28.7670   15.1940 C.ar  117  G117        0.3023
   2527  O6        36.2420   28.2830   14.2220 O.2   117  G117       -0.2633
   2528  N7        35.2290   28.3860   17.1230 N.ar  117  G117       -0.2173
   2529  C8        35.3530   28.6980   18.3800 C.ar  117  G117        0.1817
   2530  N9        36.5400   29.3270   18.6790 N.ar  117  G117       -0.2693
   2531  OP1       31.0860   30.1420   22.0650 O.3   117  G117       -0.4373
   2532  OP2       31.3470   28.6650   19.9820 O.co2 117  G117       -0.5172
   2533  P         35.1910   34.1650   20.6540 P.3   118  G118        0.2141
   2534  C5'       37.6840   34.9090   20.1960 C.3   118  G118        0.1812
   2535  O5'       36.4180   34.4900   19.6800 O.3   118  G118       -0.3114
   2536  C4'       38.6730   35.1420   19.0650 C.3   118  G118        0.1773
   2537  O4'       38.9930   33.8930   18.3870 O.3   118  G118       -0.3307
   2538  C3'       38.1630   36.0360   17.9440 C.3   118  G118        0.1860
   2539  O3'       38.2770   37.4020   18.2980 O.3   118  G118       -0.3112
   2540  C2'       39.0920   35.6370   16.8050 C.3   118  G118        0.2309
   2541  O2'       40.3840   36.2050   16.9270 O.3   118  G118       -0.2156
   2542  C1'       39.1250   34.1240   16.9930 C.3   118  G118        0.2408
   2543  N1        37.4850   32.2390   12.5190 N.ar  118  G118       -0.1709
   2544  C2        38.6660   32.8890   12.8120 C.ar  118  G118        0.2606
   2545  N2        39.5200   33.0670   11.7940 N.pl3 118  G118       -0.0859
   2546  N3        38.9870   33.3340   14.0250 N.ar  118  G118       -0.1918
   2547  C4        38.0160   33.0840   14.9430 C.ar  118  G118        0.1723
   2548  C5        36.8090   32.4430   14.7480 C.ar  118  G118        0.1748
   2549  C6        36.4790   31.9660   13.4520 C.ar  118  G118        0.3023
   2550  O6        35.4470   31.3810   13.0910 O.2   118  G118       -0.2633
   2551  N7        36.0890   32.3830   15.9280 N.ar  118  G118       -0.2173
   2552  C8        36.8600   32.9710   16.7980 C.ar  118  G118        0.1817
   2553  N9        38.0500   33.4260   16.2780 N.ar  118  G118       -0.2693
   2554  OP1       35.0120   35.2610   21.6340 O.3   118  G118       -0.4373
   2555  OP2       34.0540   33.7500   19.7970 O.co2 118  G118       -0.5172
   2556  P         37.1060   38.4290   17.9180 P.3   119  U119        0.2141
   2557  C5'       38.4450   39.2110   15.7930 C.3   119  U119        0.1812
   2558  O5'       37.2740   38.5940   16.3320 O.3   119  U119       -0.3114
   2559  C4'       38.5970   38.9230   14.3100 C.3   119  U119        0.1773
   2560  O4'       38.6420   37.4920   14.0870 O.3   119  U119       -0.3307
   2561  C3'       37.4500   39.3670   13.4120 C.3   119  U119        0.1860
   2562  O3'       37.4460   40.7730   13.1880 O.3   119  U119       -0.3112
   2563  C2'       37.7600   38.5420   12.1630 C.3   119  U119        0.2309
   2564  O2'       38.8690   38.9990   11.4130 O.3   119  U119       -0.2156
   2565  C1'       38.0930   37.2020   12.8100 C.3   119  U119        0.2420
   2566  N1        36.8960   36.2840   12.9210 N.ar  119  U119       -0.2534
   2567  C2        36.5160   35.5520   11.8070 C.ar  119  U119        0.3546
   2568  O2        37.0910   35.5980   10.7310 O.2   119  U119       -0.2443
   2569  N3        35.4170   34.7480   11.9900 N.ar  119  U119       -0.1530
   2570  C4        34.6660   34.6010   13.1410 C.ar  119  U119        0.2846
   2571  O4        33.7090   33.8320   13.1380 O.2   119  U119       -0.2650
   2572  C5        35.1170   35.3950   14.2600 C.ar  119  U119        0.0814
   2573  C6        36.1900   36.1860   14.1090 C.ar  119  U119        0.0870
   2574  OP1       37.4330   39.7140   18.5710 O.3   119  U119       -0.4373
   2575  OP2       35.7930   37.7830   18.1760 O.co2 119  U119       -0.5172
   2576  P         36.0610   41.5530   12.9830 P.3   120  A120        0.2141
   2577  C5'       36.3670   41.4180   10.3640 C.3   120  A120        0.1812
   2578  O5'       35.5900   41.0880   11.5230 O.3   120  A120       -0.3114
   2579  C4'       35.8220   40.7290    9.1280 C.3   120  A120        0.1773
   2580  O4'       35.8970   39.2950    9.2990 O.3   120  A120       -0.3307
   2581  C3'       34.3400   40.9520    8.8640 C.3   120  A120        0.1860
   2582  O3'       34.0760   42.2020    8.2580 O.3   120  A120       -0.3112
   2583  C2'       34.0070   39.7820    7.9450 C.3   120  A120        0.2309
   2584  O2'       34.4080   39.9870    6.6000 O.3   120  A120       -0.2156
   2585  C1'       34.8200   38.6760    8.6100 C.3   120  A120        0.2408
   2586  N1        31.5150   34.7570    9.2080 N.ar  120  A120       -0.2040
   2587  C2        32.0950   35.2720    8.1140 C.ar  120  A120        0.2016
   2588  N3        32.9490   36.2950    8.0350 N.ar  120  A120       -0.2048
   2589  C4        33.2030   36.8260    9.2490 C.ar  120  A120        0.1692
   2590  C5        32.6810   36.4050   10.4580 C.ar  120  A120        0.1518
   2591  C6        31.7900   35.3080   10.4120 C.ar  120  A120        0.1919
   2592  N6        31.2070   34.7930   11.4960 N.pl3 120  A120       -0.1054
   2593  N7        33.1650   37.1810   11.5010 N.ar  120  A120       -0.2193
   2594  C8        33.9560   38.0430   10.9100 C.ar  120  A120        0.1816
   2595  N9        34.0290   37.8850    9.5520 N.ar  120  A120       -0.2693
   2596  OP1       36.3510   43.0050   12.9610 O.2   120  A120       -0.5172
   2597  OP2       35.0820   41.0260   13.9560 O.co2 120  A120       -0.4373
   2598  P         32.6990   42.9180    8.6320 P.3   121  U121        0.2141
   2599  C5'       31.7080   42.2380    6.2760 C.3   121  U121        0.1812
   2600  O5'       31.6250   42.1770    7.7040 O.3   121  U121       -0.3114
   2601  C4'       30.8530   41.1560    5.6380 C.3   121  U121        0.1773
   2602  O4'       31.2620   39.8510    6.1350 O.3   121  U121       -0.3307
   2603  C3'       29.3680   41.2070    5.9770 C.3   121  U121        0.1860
   2604  O3'       28.6620   42.1620    5.2000 O.3   121  U121       -0.3112
   2605  C2'       28.9480   39.7740    5.6690 C.3   121  U121        0.2309
   2606  O2'       28.8190   39.5170    4.2840 O.3   121  U121       -0.2156
   2607  C1'       30.1310   39.0010    6.2520 C.3   121  U121        0.2420
   2608  N1        29.9050   38.5690    7.6870 N.ar  121  U121       -0.2534
   2609  C2        29.2080   37.3930    7.9410 C.ar  121  U121        0.3546
   2610  O2        28.7610   36.6570    7.0730 O.2   121  U121       -0.2443
   2611  N3        29.0480   37.0910    9.2740 N.ar  121  U121       -0.1530
   2612  C4        29.4930   37.8210   10.3600 C.ar  121  U121        0.2846
   2613  O4        29.2680   37.4160   11.4950 O.2   121  U121       -0.2650
   2614  C5        30.2030   39.0270   10.0250 C.ar  121  U121        0.0814
   2615  C6        30.3770   39.3470    8.7340 C.ar  121  U121        0.0870
   2616  OP1       32.8230   44.3320    8.2160 O.2   121  U121       -0.5172
   2617  OP2       32.3610   42.5890   10.0340 O.co2 121  U121       -0.4373
   2618  P         27.4450   42.9600    5.8800 P.3   122  G122        0.2141
   2619  C5'       25.5180   41.4570    4.8730 C.3   122  G122        0.1812
   2620  O5'       26.2800   41.8700    5.9970 O.3   122  G122       -0.3114
   2621  C4'       24.7460   40.1980    5.2190 C.3   122  G122        0.1773
   2622  O4'       25.6420   39.2300    5.8270 O.3   122  G122       -0.3307
   2623  C3'       23.6570   40.3480    6.2700 C.3   122  G122        0.1860
   2624  O3'       22.4750   40.9300    5.7580 O.3   122  G122       -0.3112
   2625  C2'       23.4470   38.8860    6.6380 C.3   122  G122        0.2309
   2626  O2'       22.7270   38.1480    5.6670 O.3   122  G122       -0.2156
   2627  C1'       24.8990   38.4190    6.7240 C.3   122  G122        0.2408
   2628  N1        24.6980   36.3160   11.3200 N.ar  122  G122       -0.1709
   2629  C2        24.0710   35.9530   10.1470 C.ar  122  G122        0.2606
   2630  N2        23.2740   34.8780   10.1720 N.pl3 122  G122       -0.0859
   2631  N3        24.2180   36.6030    9.0040 N.ar  122  G122       -0.1918
   2632  C4        25.0520   37.6650    9.1200 C.ar  122  G122        0.1723
   2633  C5        25.7260   38.1140   10.2350 C.ar  122  G122        0.1748
   2634  C6        25.5640   37.4070   11.4590 C.ar  122  G122        0.3023
   2635  O6        26.0750   37.6540   12.5630 O.2   122  G122       -0.2633
   2636  N7        26.4790   39.2400    9.9270 N.ar  122  G122       -0.2173
   2637  C8        26.2490   39.4360    8.6580 C.ar  122  G122        0.1817
   2638  N9        25.3960   38.5150    8.1000 N.ar  122  G122       -0.2693
   2639  OP1       27.0410   44.0370    4.9440 O.2   122  G122       -0.5172
   2640  OP2       27.8160   43.2870    7.2780 O.co2 122  G122       -0.4373
   2641  P         21.4530   41.6780    6.7500 P.3   123  G123        0.2141
   2642  C5'       19.7700   39.6710    6.7980 C.3   123  G123        0.1812
   2643  O5'       20.7170   40.4720    7.5020 O.3   123  G123       -0.3114
   2644  C4'       19.2270   38.5510    7.6640 C.3   123  G123        0.1773
   2645  O4'       20.3070   37.7040    8.1400 O.3   123  G123       -0.3307
   2646  C3'       18.5560   38.9870    8.9540 C.3   123  G123        0.1860
   2647  O3'       17.2530   39.5000    8.7250 O.3   123  G123       -0.3112
   2648  C2'       18.5460   37.6610    9.7000 C.3   123  G123        0.2309
   2649  O2'       17.5940   36.7490    9.1840 O.3   123  G123       -0.2156
   2650  C1'       19.9720   37.1940    9.4190 C.3   123  G123        0.2408
   2651  N1        21.6050   36.8300   14.2580 N.ar  123  G123       -0.1709
   2652  C2        20.5810   36.1500   13.6360 C.ar  123  G123        0.2606
   2653  N2        19.9070   35.2560   14.3760 N.pl3 123  G123       -0.0859
   2654  N3        20.2500   36.3260   12.3600 N.ar  123  G123       -0.1918
   2655  C4        21.0230   37.2610   11.7400 C.ar  123  G123        0.1723
   2656  C5        22.0590   37.9900   12.2790 C.ar  123  G123        0.1748
   2657  C6        22.4090   37.7880   13.6370 C.ar  123  G123        0.3023
   2658  O6        23.3040   38.3610   14.2670 O.2   123  G123       -0.2633
   2659  N7        22.6110   38.8470   11.3370 N.ar  123  G123       -0.2173
   2660  C8        21.9130   38.6220   10.2600 C.ar  123  G123        0.1817
   2661  N9        20.9300   37.6730   10.4230 N.ar  123  G123       -0.2693
   2662  OP1       20.4730   42.3930    5.9020 O.2   123  G123       -0.5172
   2663  OP2       22.2240   42.4150    7.7780 O.co2 123  G123       -0.4373
   2664  P         16.6600   40.5740    9.7550 P.3   124  G124        0.2141
   2665  C5'       15.4670   38.7760   11.2240 C.3   124  G124        0.1812
   2666  O5'       16.5100   39.7350   11.1090 O.3   124  G124       -0.3114
   2667  C4'       15.4570   38.1140   12.5870 C.3   124  G124        0.1773
   2668  O4'       16.7640   37.5600   12.8700 O.3   124  G124       -0.3307
   2669  C3'       15.1740   39.0320   13.7630 C.3   124  G124        0.1860
   2670  O3'       13.7750   39.2460   13.9220 O.3   124  G124       -0.3112
   2671  C2'       15.7380   38.2130   14.9060 C.3   124  G124        0.2309
   2672  O2'       14.8380   37.2140   15.3440 O.3   124  G124       -0.2156
   2673  C1'       16.9860   37.6020   14.2610 C.3   124  G124        0.2408
   2674  N1        20.3470   39.0430   17.7690 N.ar  124  G124       -0.1709
   2675  C2        19.2690   38.1840   17.8720 C.ar  124  G124        0.2606
   2676  N2        19.0320   37.6190   19.0640 N.pl3 124  G124       -0.0859
   2677  N3        18.4650   37.8850   16.8630 N.ar  124  G124       -0.1918
   2678  C4        18.8170   38.5220   15.7220 C.ar  124  G124        0.1723
   2679  C5        19.8590   39.3930   15.5090 C.ar  124  G124        0.1748
   2680  C6        20.7190   39.7030   16.5930 C.ar  124  G124        0.3023
   2681  O6        21.7000   40.4560   16.5880 O.2   124  G124       -0.2633
   2682  N7        19.8700   39.8300   14.1890 N.ar  124  G124       -0.2173
   2683  C8        18.8520   39.2260   13.6420 C.ar  124  G124        0.1817
   2684  N9        18.1710   38.4130   14.5180 N.ar  124  G124       -0.2693
   2685  OP1       15.3210   40.9690    9.2680 O.2   124  G124       -0.5172
   2686  OP2       17.6850   41.6120    9.9910 O.co2 124  G124       -0.4373
   2687  P         13.2450   40.7220   14.2550 P.3   125  G125        0.2141
   2688  C5'       13.5880   40.5400   16.8770 C.3   125  G125        0.1812
   2689  O5'       14.0300   41.0590   15.6190 O.3   125  G125       -0.3114
   2690  C4'       14.4980   40.9760   18.0110 C.3   125  G125        0.1773
   2691  O4'       15.8560   40.5080   17.7960 O.3   125  G125       -0.3307
   2692  C3'       14.6340   42.4810   18.1310 C.3   125  G125        0.1860
   2693  O3'       13.5330   42.9940   18.8620 O.3   125  G125       -0.3112
   2694  C2'       15.9780   42.6290   18.8410 C.3   125  G125        0.2309
   2695  O2'       15.9020   42.5300   20.2500 O.3   125  G125       -0.2156
   2696  C1'       16.7890   41.4760   18.2470 C.3   125  G125        0.2408
   2697  N1        21.2660   43.4820   16.7970 N.ar  125  G125       -0.1709
   2698  C2        20.8680   43.0850   18.0540 C.ar  125  G125        0.2606
   2699  N2        21.7820   43.2410   19.0260 N.pl3 125  G125       -0.0859
   2700  N3        19.6690   42.5650   18.3240 N.ar  125  G125       -0.1918
   2701  C4        18.8920   42.4730   17.2130 C.ar  125  G125        0.1723
   2702  C5        19.2060   42.8450   15.9210 C.ar  125  G125        0.1748
   2703  C6        20.4780   43.4000   15.6510 C.ar  125  G125        0.3023
   2704  O6        20.9210   43.7860   14.5610 O.2   125  G125       -0.2633
   2705  N7        18.1520   42.6050   15.0560 N.ar  125  G125       -0.2173
   2706  C8        17.2350   42.0940   15.8230 C.ar  125  G125        0.1817
   2707  N9        17.6090   41.9750   17.1430 N.ar  125  G125       -0.2693
   2708  OP1       11.7870   40.6500   14.5340 O.3   125  G125       -0.4373
   2709  OP2       13.7380   41.6300   13.1910 O.co2 125  G125       -0.5172
   2710  P         12.7130   44.2430   18.2880 P.3   126  A126        0.2141
   2711  C5'       13.5030   46.7050   17.9520 C.3   126  A126        0.1812
   2712  O5'       13.7630   45.4260   18.4970 O.3   126  A126       -0.3114
   2713  C4'       14.5060   47.6900   18.5120 C.3   126  A126        0.1773
   2714  O4'       14.2120   47.8830   19.9140 O.3   126  A126       -0.3307
   2715  C3'       15.9530   47.2190   18.4900 C.3   126  A126        0.1860
   2716  O3'       16.5470   47.5460   17.2430 O.3   126  A126       -0.3112
   2717  C2'       16.5540   48.0320   19.6280 C.3   126  A126        0.2309
   2718  O2'       16.8280   49.3650   19.2500 O.3   126  A126       -0.2156
   2719  C1'       15.4140   48.0550   20.6320 C.3   126  A126        0.2408
   2720  N1        17.7710   46.4940   24.9610 N.ar  126  A126       -0.2040
   2721  C2        18.0570   47.4920   24.1090 C.ar  126  A126        0.2016
   2722  N3        17.4050   47.8410   22.9970 N.ar  126  A126       -0.2048
   2723  C4        16.3480   47.0360   22.7750 C.ar  126  A126        0.1692
   2724  C5        15.9360   45.9760   23.5610 C.ar  126  A126        0.1518
   2725  C6        16.7000   45.7050   24.7180 C.ar  126  A126        0.1919
   2726  N6        16.4190   44.7120   25.5680 N.pl3 126  A126       -0.1054
   2727  N7        14.8050   45.3750   23.0290 N.ar  126  A126       -0.2193
   2728  C8        14.5600   46.0750   21.9510 C.ar  126  A126        0.1816
   2729  N9        15.4510   47.0890   21.7310 N.ar  126  A126       -0.2693
   2730  OP1       11.5550   44.5100   19.1690 O.3   126  A126       -0.4373
   2731  OP2       12.4840   44.0340   16.8400 O.co2 126  A126       -0.5172
   2732  P         17.6980   46.6350   16.6000 P.3   127  A127        0.2141
   2733  C5'       19.5880   47.9990   17.8070 C.3   127  A127        0.1812
   2734  O5'       18.9260   46.7480   17.6210 O.3   127  A127       -0.3114
   2735  C4'       20.5300   47.9360   18.9900 C.3   127  A127        0.1773
   2736  O4'       19.7900   47.6480   20.1960 O.3   127  A127       -0.3307
   2737  C3'       21.5730   46.8380   18.8720 C.3   127  A127        0.1860
   2738  O3'       22.6840   47.3860   18.1720 O.3   127  A127       -0.3112
   2739  C2'       21.8660   46.4960   20.3300 C.3   127  A127        0.2309
   2740  O2'       22.8460   47.3550   20.8670 O.3   127  A127       -0.2156
   2741  C1'       20.5470   46.7910   21.0360 C.3   127  A127        0.2408
   2742  N1        19.0530   43.3670   24.6460 N.ar  127  A127       -0.2040
   2743  C2        20.0170   44.2990   24.6560 C.ar  127  A127        0.2016
   2744  N3        20.3650   45.1520   23.6920 N.ar  127  A127       -0.2048
   2745  C4        19.6020   44.9880   22.5950 C.ar  127  A127        0.1692
   2746  C5        18.5770   44.0710   22.4410 C.ar  127  A127        0.1518
   2747  C6        18.3010   43.2270   23.5350 C.ar  127  A127        0.1919
   2748  N6        17.3400   42.3000   23.5240 N.pl3 127  A127       -0.1054
   2749  N7        18.0010   44.1770   21.1880 N.ar  127  A127       -0.2193
   2750  C8        18.6780   45.1440   20.6200 C.ar  127  A127        0.1816
   2751  N9        19.6660   45.6770   21.4010 N.ar  127  A127       -0.2693
   2752  OP1       18.0770   47.2780   15.3210 O.2   127  A127       -0.5172
   2753  OP2       17.2560   45.2250   16.6280 O.co2 127  A127       -0.4373
   2754  P         23.8680   46.4950   17.5650 P.3   128  U128        0.2141
   2755  C5'       26.1980   46.5930   18.8210 C.3   128  U128        0.1812
   2756  O5'       24.8110   46.2960   18.8360 O.3   128  U128       -0.3114
   2757  C4'       26.7130   46.5680   20.2460 C.3   128  U128        0.1773
   2758  O4'       25.9850   47.5350   21.0380 O.3   128  U128       -0.3307
   2759  C3'       26.4380   45.2850   21.0110 C.3   128  U128        0.1860
   2760  O3'       27.3360   44.2490   20.6270 O.3   128  U128       -0.3112
   2761  C2'       26.6110   45.7320   22.4620 C.3   128  U128        0.2309
   2762  O2'       27.9500   45.6630   22.9080 O.3   128  U128       -0.2156
   2763  C1'       26.1220   47.1850   22.4120 C.3   128  U128        0.2420
   2764  N1        24.8230   47.5130   23.1490 N.ar  128  U128       -0.2534
   2765  C2        23.8020   46.5800   23.3220 C.ar  128  U128        0.3546
   2766  O2        23.8370   45.4370   22.9130 O.2   128  U128       -0.2443
   2767  N3        22.6920   47.0360   23.9970 N.ar  128  U128       -0.1530
   2768  C4        22.4880   48.3000   24.5210 C.ar  128  U128        0.2846
   2769  O4        21.4360   48.5510   25.1060 O.2   128  U128       -0.2650
   2770  C5        23.5830   49.2200   24.3070 C.ar  128  U128        0.0814
   2771  C6        24.6790   48.8020   23.6480 C.ar  128  U128        0.0870
   2772  OP1       24.5650   47.3240   16.5530 O.2   128  U128       -0.5172
   2773  OP2       23.3400   45.1600   17.2040 O.co2 128  U128       -0.4373
   2774  P         26.8220   42.7410   20.4170 P.3   129  A129        0.2141
   2775  C5'       27.1630   42.2880   22.9830 C.3   129  A129        0.1812
   2776  O5'       26.2740   42.3270   21.8640 O.3   129  A129       -0.3114
   2777  C4'       26.4030   42.1330   24.2850 C.3   129  A129        0.1773
   2778  O4'       25.2300   42.9910   24.3370 O.3   129  A129       -0.3307
   2779  C3'       25.8610   40.7320   24.4770 C.3   129  A129        0.1860
   2780  O3'       26.8780   39.9020   25.0130 O.3   129  A129       -0.3112
   2781  C2'       24.7000   40.9740   25.4360 C.3   129  A129        0.2309
   2782  O2'       25.1180   41.1230   26.7770 O.3   129  A129       -0.2156
   2783  C1'       24.1330   42.2880   24.9020 C.3   129  A129        0.2408
   2784  N1        19.4990   40.2770   23.6500 N.ar  129  A129       -0.2040
   2785  C2        20.1850   40.2760   24.8020 C.ar  129  A129        0.2016
   2786  N3        21.3770   40.8150   25.0750 N.ar  129  A129       -0.2048
   2787  C4        21.8960   41.4230   23.9920 C.ar  129  A129        0.1692
   2788  C5        21.3040   41.5100   22.7440 C.ar  129  A129        0.1518
   2789  C6        20.0440   40.8970   22.5810 C.ar  129  A129        0.1919
   2790  N6        19.3710   40.9160   21.4290 N.pl3 129  A129       -0.1054
   2791  N7        22.1100   42.2030   21.8680 N.ar  129  A129       -0.2193
   2792  C8        23.1560   42.5200   22.5830 C.ar  129  A129        0.1816
   2793  N9        23.1040   42.0860   23.8760 N.ar  129  A129       -0.2693
   2794  OP1       28.0140   41.9100   20.1190 O.3   129  A129       -0.4373
   2795  OP2       25.6740   42.7440   19.4860 O.co2 129  A129       -0.5172
   2796  P         27.2230   38.5140   24.3000 P.3   130  C130        0.2141
   2797  C5'       25.1930   37.2190   25.3950 C.3   130  C130        0.1812
   2798  O5'       25.8100   37.7740   24.2460 O.3   130  C130       -0.3114
   2799  C4'       23.8430   36.6630   24.9910 C.3   130  C130        0.1773
   2800  O4'       22.9870   37.7650   24.5890 O.3   130  C130       -0.3307
   2801  C3'       23.8830   35.7760   23.7590 C.3   130  C130        0.1860
   2802  O3'       24.2470   34.4440   24.0850 O.3   130  C130       -0.3112
   2803  C2'       22.4490   35.9170   23.2510 C.3   130  C130        0.2309
   2804  O2'       21.5050   35.1670   23.9940 O.3   130  C130       -0.2156
   2805  C1'       22.2280   37.4130   23.4460 C.3   130  C130        0.2420
   2806  N1        22.6230   38.2170   22.2250 N.ar  130  C130       -0.2535
   2807  C2        21.7300   38.3040   21.1460 C.ar  130  C130        0.3532
   2808  O2        20.6340   37.7330   21.2120 O.2   130  C130       -0.2443
   2809  N3        22.0880   39.0180   20.0470 N.ar  130  C130       -0.1739
   2810  C4        23.2780   39.6290   19.9880 C.ar  130  C130        0.1759
   2811  N4        23.5780   40.3210   18.8820 N.pl3 130  C130       -0.1070
   2812  C5        24.2050   39.5540   21.0690 C.ar  130  C130        0.0566
   2813  C6        23.8370   38.8460   22.1460 C.ar  130  C130        0.0850
   2814  OP1       28.1480   37.7780   25.1940 O.3   130  C130       -0.4373
   2815  OP2       27.6000   38.7490   22.8930 O.co2 130  C130       -0.5172
   2816  P         24.8930   33.5050   22.9590 P.3   131  C131        0.2141
   2817  C5'       22.5190   32.5340   22.3300 C.3   131  C131        0.1812
   2818  O5'       23.6790   33.2580   21.9450 O.3   131  C131       -0.3114
   2819  C4'       21.5160   32.4960   21.1980 C.3   131  C131        0.1773
   2820  O4'       21.1000   33.8440   20.8540 O.3   131  C131       -0.3307
   2821  C3'       22.0560   31.9710   19.8820 C.3   131  C131        0.1860
   2822  O3'       22.1360   30.5570   19.8750 O.3   131  C131       -0.3112
   2823  C2'       21.0200   32.5270   18.9040 C.3   131  C131        0.2309
   2824  O2'       19.7950   31.8340   18.9250 O.3   131  C131       -0.2156
   2825  C1'       20.8190   33.9270   19.4620 C.3   131  C131        0.2420
   2826  N1        21.7040   34.9500   18.8030 N.ar  131  C131       -0.2535
   2827  C2        21.3330   35.5010   17.5640 C.ar  131  C131        0.3532
   2828  O2        20.2810   35.1470   17.0230 O.2   131  C131       -0.2443
   2829  N3        22.1370   36.4200   16.9800 N.ar  131  C131       -0.1739
   2830  C4        23.2700   36.7980   17.5740 C.ar  131  C131        0.1759
   2831  N4        24.0280   37.7150   16.9580 N.pl3 131  C131       -0.1070
   2832  C5        23.6760   36.2510   18.8320 C.ar  131  C131        0.0566
   2833  C6        22.8700   35.3430   19.4010 C.ar  131  C131        0.0850
   2834  OP1       25.2590   32.2240   23.5940 O.3   131  C131       -0.4373
   2835  OP2       25.9170   34.2800   22.2230 O.co2 131  C131       -0.5172
   2836  P         23.2700   29.8530   18.9890 P.3   132  C132        0.2141
   2837  C5'       21.7050   29.4620   16.9450 C.3   132  C132        0.1812
   2838  O5'       22.8010   30.1650   17.4940 O.3   132  C132       -0.3114
   2839  C4'       21.3720   30.0060   15.5770 C.3   132  C132        0.1773
   2840  O4'       21.2250   31.4490   15.6430 O.3   132  C132       -0.3307
   2841  C3'       22.4490   29.8400   14.5200 C.3   132  C132        0.1860
   2842  O3'       22.5170   28.5140   14.0400 O.3   132  C132       -0.3112
   2843  C2'       21.9120   30.8150   13.4840 C.3   132  C132        0.2309
   2844  O2'       20.7610   30.3330   12.8280 O.3   132  C132       -0.2156
   2845  C1'       21.5410   31.9980   14.3780 C.3   132  C132        0.2420
   2846  N1        22.6530   32.9910   14.5070 N.ar  132  C132       -0.2535
   2847  C2        22.9230   33.8560   13.4330 C.ar  132  C132        0.3532
   2848  O2        22.2260   33.7890   12.4090 O.2   132  C132       -0.2443
   2849  N3        23.9390   34.7550   13.5480 N.ar  132  C132       -0.1739
   2850  C4        24.6760   34.8010   14.6650 C.ar  132  C132        0.1759
   2851  N4        25.6640   35.7030   14.7310 N.pl3 132  C132       -0.1070
   2852  C5        24.4220   33.9250   15.7680 C.ar  132  C132        0.0566
   2853  C6        23.4160   33.0480   15.6440 C.ar  132  C132        0.0850
   2854  OP1       23.1710   28.3900   19.2090 O.3   132  C132       -0.4373
   2855  OP2       24.5490   30.5670   19.2050 O.co2 132  C132       -0.5172
   2856  P         23.9430   27.8900   13.6840 P.3   133  A133        0.2141
   2857  C5'       23.1800   27.9980   11.2160 C.3   133  A133        0.1812
   2858  O5'       24.1450   28.3780   12.1840 O.3   133  A133       -0.3114
   2859  C4'       23.3460   28.8020    9.9460 C.3   133  A133        0.1773
   2860  O4'       23.2290   30.2110   10.2410 O.3   133  A133       -0.3307
   2861  C3'       24.7170   28.6710    9.3050 C.3   133  A133        0.1860
   2862  O3'       24.7510   27.4930    8.5280 O.3   133  A133       -0.3112
   2863  C2'       24.7910   29.9460    8.4740 C.3   133  A133        0.2309
   2864  O2'       24.0320   29.8760    7.2840 O.3   133  A133       -0.2156
   2865  C1'       24.1350   30.9350    9.4290 C.3   133  A133        0.2408
   2866  N1        27.4410   34.8500    9.7890 N.ar  133  A133       -0.2040
   2867  C2        26.7020   34.3960    8.7680 C.ar  133  A133        0.2016
   2868  N3        25.8580   33.3640    8.7530 N.ar  133  A133       -0.2048
   2869  C4        25.8120   32.7550    9.9530 C.ar  133  A133        0.1692
   2870  C5        26.5160   33.1030   11.0910 C.ar  133  A133        0.1518
   2871  C6        27.3740   34.2200   10.9830 C.ar  133  A133        0.1919
   2872  N6        28.1240   34.6840   11.9840 N.pl3 133  A133       -0.1054
   2873  N7        26.2100   32.2440   12.1360 N.ar  133  A133       -0.2193
   2874  C8        25.3410   31.4090   11.6120 C.ar  133  A133        0.1816
   2875  N9        25.0610   31.6590   10.2980 N.ar  133  A133       -0.2693
   2876  OP1       23.7960   26.4230   13.6790 O.2   133  A133       -0.5172
   2877  OP2       24.9960   28.5000   14.5200 O.co2 133  A133       -0.4373
   2878  P         26.0850   26.6210    8.4800 P.3   134  U134        0.2141
   2879  C5'       26.7360   27.6250    6.1520 C.3   134  U134        0.1812
   2880  O5'       27.0400   27.4980    7.5420 O.3   134  U134       -0.3114
   2881  C4'       27.5240   28.7450    5.4940 C.3   134  U134        0.1773
   2882  O4'       27.1940   30.0210    6.1070 O.3   134  U134       -0.3307
   2883  C3'       29.0390   28.6550    5.6320 C.3   134  U134        0.1860
   2884  O3'       29.5660   27.7570    4.6750 O.3   134  U134       -0.3112
   2885  C2'       29.4290   30.1070    5.3550 C.3   134  U134        0.2309
   2886  O2'       29.3560   30.4750    3.9880 O.3   134  U134       -0.2156
   2887  C1'       28.3530   30.8460    6.1490 C.3   134  U134        0.2420
   2888  N1        28.7690   31.1900    7.5730 N.ar  134  U134       -0.2534
   2889  C2        29.5620   32.3100    7.7980 C.ar  134  U134        0.3546
   2890  O2        29.9580   33.0550    6.9160 O.2   134  U134       -0.2443
   2891  N3        29.8880   32.5410    9.1150 N.ar  134  U134       -0.1530
   2892  C4        29.5190   31.7860   10.2120 C.ar  134  U134        0.2846
   2893  O4        29.8880   32.1210   11.3320 O.2   134  U134       -0.2650
   2894  C5        28.7040   30.6390    9.9040 C.ar  134  U134        0.0814
   2895  C6        28.3680   30.3930    8.6300 C.ar  134  U134        0.0870
   2896  OP1       25.7190   25.3580    7.7880 O.2   134  U134       -0.5172
   2897  OP2       26.6960   26.5770    9.8300 O.co2 134  U134       -0.4373
   2898  P         30.9160   26.9440    4.9470 P.3   135  A135        0.2141
   2899  C5'       32.1980   28.6830    3.4190 C.3   135  A135        0.1812
   2900  O5'       32.0600   28.0290    4.6770 O.3   135  A135       -0.3114
   2901  C4'       33.1880   29.8330    3.5280 C.3   135  A135        0.1773
   2902  O4'       32.6290   30.8950    4.3420 O.3   135  A135       -0.3307
   2903  C3'       34.5010   29.5010    4.2260 C.3   135  A135        0.1860
   2904  O3'       35.4130   28.8550    3.3470 O.3   135  A135       -0.3112
   2905  C2'       34.9680   30.8860    4.6610 C.3   135  A135        0.2309
   2906  O2'       35.5270   31.6520    3.6130 O.3   135  A135       -0.2156
   2907  C1'       33.6520   31.5010    5.1170 C.3   135  A135        0.2408
   2908  N1        34.4430   33.2690    9.9170 N.ar  135  A135       -0.2040
   2909  C2        34.9090   33.6880    8.7320 C.ar  135  A135        0.2016
   2910  N3        34.6590   33.1820    7.5220 N.ar  135  A135       -0.2048
   2911  C4        33.8360   32.1130    7.5900 C.ar  135  A135        0.1692
   2912  C5        33.2860   31.5700    8.7420 C.ar  135  A135        0.1518
   2913  C6        33.6200   32.1970    9.9630 C.ar  135  A135        0.1919
   2914  N6        33.1630   31.7860   11.1520 N.pl3 135  A135       -0.1054
   2915  N7        32.4870   30.4780    8.4390 N.ar  135  A135       -0.2193
   2916  C8        32.5720   30.3820    7.1320 C.ar  135  A135        0.1816
   2917  N9        33.3700   31.3320    6.5470 N.ar  135  A135       -0.2693
   2918  OP1       31.0110   25.8870    3.9140 O.2   135  A135       -0.5172
   2919  OP2       30.9700   26.5870    6.3790 O.co2 135  A135       -0.4373
   2920  P         36.5180   27.8330    3.9120 P.3   136  C136        0.2141
   2921  C5'       38.4380   29.6390    3.7740 C.3   136  C136        0.1812
   2922  O5'       37.6010   28.8050    4.5800 O.3   136  C136       -0.3114
   2923  C4'       39.1460   30.6710    4.6340 C.3   136  C136        0.1773
   2924  O4'       38.1660   31.4580    5.3590 O.3   136  C136       -0.3307
   2925  C3'       40.0180   30.1100    5.7490 C.3   136  C136        0.1860
   2926  O3'       41.2750   29.6610    5.2540 O.3   136  C136       -0.3112
   2927  C2'       40.1030   31.3220    6.6750 C.3   136  C136        0.2309
   2928  O2'       40.9200   32.3700    6.1810 O.3   136  C136       -0.2156
   2929  C1'       38.6440   31.7650    6.6600 C.3   136  C136        0.2420
   2930  N1        37.7760   31.1300    7.7360 N.ar  136  C136       -0.2535
   2931  C2        37.7710   31.6530    9.0460 C.ar  136  C136        0.3532
   2932  O2        38.4700   32.6340    9.3290 O.2   136  C136       -0.2443
   2933  N3        36.9880   31.0650    9.9910 N.ar  136  C136       -0.1739
   2934  C4        36.2270   30.0050    9.6820 C.ar  136  C136        0.1759
   2935  N4        35.4710   29.4660   10.6460 N.pl3 136  C136       -0.1070
   2936  C5        36.2160   29.4550    8.3630 C.ar  136  C136        0.0566
   2937  C6        36.9920   30.0440    7.4430 C.ar  136  C136        0.0850
   2938  OP1       37.1350   27.1570    2.7450 O.2   136  C136       -0.5172
   2939  OP2       35.9190   27.0110    4.9900 O.co2 136  C136       -0.4373
   2940  P         41.9890   28.3700    5.8810 P.3   137  C137        0.2141
   2941  C5'       43.4640   29.9070    7.4150 C.3   137  C137        0.1812
   2942  O5'       42.4520   28.8900    7.3160 O.3   137  C137       -0.3114
   2943  C4'       43.5900   30.4440    8.8340 C.3   137  C137        0.1773
   2944  O4'       42.3320   31.0210    9.2770 O.3   137  C137       -0.3307
   2945  C3'       43.8890   29.4030    9.9020 C.3   137  C137        0.1860
   2946  O3'       45.2530   29.0460    9.9110 O.3   137  C137       -0.3112
   2947  C2'       43.4650   30.1400   11.1600 C.3   137  C137        0.2309
   2948  O2'       44.3680   31.1610   11.5400 O.3   137  C137       -0.2156
   2949  C1'       42.1640   30.7530   10.6610 C.3   137  C137        0.2420
   2950  N1        40.9640   29.8850   10.8920 N.ar  137  C137       -0.2535
   2951  C2        40.3690   29.8780   12.1630 C.ar  137  C137        0.3532
   2952  O2        40.8530   30.5760   13.0650 O.2   137  C137       -0.2443
   2953  N3        39.2740   29.1000   12.3720 N.ar  137  C137       -0.1739
   2954  C4        38.7720   28.3540   11.3860 C.ar  137  C137        0.1759
   2955  N4        37.6980   27.6070   11.6550 N.pl3 137  C137       -0.1070
   2956  C5        39.3620   28.3390   10.0840 C.ar  137  C137        0.0566
   2957  C6        40.4400   29.1140    9.8830 C.ar  137  C137        0.0850
   2958  OP1       43.1970   28.1060    5.0660 O.2   137  C137       -0.5172
   2959  OP2       40.9970   27.2940    6.0790 O.co2 137  C137       -0.4373
   2960  P         45.6410   27.5830    9.4060 P.3   138  A138        0.2141
   2961  C5'       46.4180   26.2710   11.5400 C.3   138  A138        0.1812
   2962  O5'       46.7540   27.1410   10.4670 O.3   138  A138       -0.3114
   2963  C4'       46.3940   27.0310   12.8480 C.3   138  A138        0.1773
   2964  O4'       45.3540   28.0420   12.8150 O.3   138  A138       -0.3307
   2965  C3'       46.0530   26.1750   14.0570 C.3   138  A138        0.1860
   2966  O3'       47.2370   25.6100   14.5720 O.3   138  A138       -0.3112
   2967  C2'       45.4590   27.2150   15.0000 C.3   138  A138        0.2309
   2968  O2'       46.4390   28.0540   15.5840 O.3   138  A138       -0.2156
   2969  C1'       44.6040   28.0090   14.0220 C.3   138  A138        0.2408
   2970  N1        39.9930   26.7590   16.0370 N.ar  138  A138       -0.2040
   2971  C2        41.0680   27.3490   16.5750 C.ar  138  A138        0.2016
   2972  N3        42.2370   27.6460   15.9920 N.ar  138  A138       -0.2048
   2973  C4        42.2550   27.2730   14.6960 C.ar  138  A138        0.1692
   2974  C5        41.2250   26.6580   14.0060 C.ar  138  A138        0.1518
   2975  C6        40.0400   26.3950   14.7320 C.ar  138  A138        0.1919
   2976  N6        38.9690   25.8070   14.1860 N.pl3 138  A138       -0.1054
   2977  N7        41.5880   26.4150   12.6930 N.ar  138  A138       -0.2193
   2978  C8        42.8080   26.8820   12.6180 C.ar  138  A138        0.1816
   2979  N9        43.2810   27.4160   13.7870 N.ar  138  A138       -0.2693
   2980  OP1       46.2620   27.7250    8.0710 O.2   138  A138       -0.5172
   2981  OP2       44.4630   26.7010    9.5720 O.co2 138  A138       -0.4373
   2982  P         47.2570   24.1400   15.1960 P.3   139  C139        0.2141
   2983  C5'       46.5870   25.0460   17.5720 C.3   139  C139        0.1812
   2984  O5'       46.2630   24.2410   16.4420 O.3   139  C139       -0.3114
   2985  C4'       45.4460   25.0130   18.5650 C.3   139  C139        0.1773
   2986  O4'       44.2470   25.5680   17.9670 O.3   139  C139       -0.3307
   2987  C3'       45.0170   23.6170   18.9680 C.3   139  C139        0.1860
   2988  O3'       45.8930   23.0980   19.9580 O.3   139  C139       -0.3112
   2989  C2'       43.6260   23.9000   19.5140 C.3   139  C139        0.2309
   2990  O2'       43.6490   24.4280   20.8250 O.3   139  C139       -0.2156
   2991  C1'       43.1060   24.9280   18.5110 C.3   139  C139        0.2420
   2992  N1        42.2750   24.2890   17.4270 N.ar  139  C139       -0.2535
   2993  C2        40.9250   23.9720   17.6800 C.ar  139  C139        0.3532
   2994  O2        40.4390   24.2340   18.7860 O.2   139  C139       -0.2443
   2995  N3        40.1810   23.3860   16.6990 N.ar  139  C139       -0.1739
   2996  C4        40.7370   23.1150   15.5110 C.ar  139  C139        0.1759
   2997  N4        39.9760   22.5370   14.5750 N.pl3 139  C139       -0.1070
   2998  C5        42.1060   23.4190   15.2320 C.ar  139  C139        0.0566
   2999  C6        42.8250   23.9960   16.2050 C.ar  139  C139        0.0850
   3000  OP1       48.6390   23.9040   15.6770 O.3   139  C139       -0.4373
   3001  OP2       46.6380   23.2090   14.2300 O.co2 139  C139       -0.5172
   3002  P         46.1920   21.5280   20.0200 P.3   140  U140        0.2141
   3003  C5'       44.2920   21.1090   21.7700 C.3   140  U140        0.1812
   3004  O5'       44.7830   20.9060   20.4490 O.3   140  U140       -0.3114
   3005  C4'       42.8570   20.6430   21.8770 C.3   140  U140        0.1773
   3006  O4'       42.0490   21.3630   20.9130 O.3   140  U140       -0.3307
   3007  C3'       42.6330   19.1900   21.4920 C.3   140  U140        0.1860
   3008  O3'       43.0380   18.3020   22.5270 O.3   140  U140       -0.3112
   3009  C2'       41.1290   19.2090   21.2360 C.3   140  U140        0.2309
   3010  O2'       40.3310   19.2930   22.4040 O.3   140  U140       -0.2156
   3011  C1'       41.0230   20.5110   20.4390 C.3   140  U140        0.2420
   3012  N1        41.1400   20.3020   18.9490 N.ar  140  U140       -0.2534
   3013  C2        40.0620   19.7600   18.2650 C.ar  140  U140        0.3546
   3014  O2        39.0080   19.4450   18.7950 O.2   140  U140       -0.2443
   3015  N3        40.2530   19.6010   16.9160 N.ar  140  U140       -0.1530
   3016  C4        41.3910   19.9150   16.1930 C.ar  140  U140        0.2846
   3017  O4        41.4090   19.7120   14.9820 O.2   140  U140       -0.2650
   3018  C5        42.4770   20.4700   16.9680 C.ar  140  U140        0.0814
   3019  C6        42.3110   20.6430   18.2880 C.ar  140  U140        0.0870
   3020  OP1       47.1780   21.3050   21.0970 O.3   140  U140       -0.4373
   3021  OP2       46.4720   21.0410   18.6510 O.co2 140  U140       -0.5172
   3022  P         43.8740   16.9720   22.1890 P.3   141  G141        0.2141
   3023  C5'       41.8120   15.6720   23.1760 C.3   141  G141        0.1812
   3024  O5'       42.7410   15.8520   22.1230 O.3   141  G141       -0.3114
   3025  C4'       40.5210   15.0980   22.6370 C.3   141  G141        0.1773
   3026  O4'       39.8940   16.0480   21.7410 O.3   141  G141       -0.3307
   3027  C3'       40.6800   13.8740   21.7540 C.3   141  G141        0.1860
   3028  O3'       40.9550   12.7070   22.5120 O.3   141  G141       -0.3112
   3029  C2'       39.3290   13.8520   21.0490 C.3   141  G141        0.2309
   3030  O2'       38.2580   13.3870   21.8450 O.3   141  G141       -0.2156
   3031  C1'       39.1610   15.3390   20.7580 C.3   141  G141        0.2408
   3032  N1        38.2000   15.2630   15.7460 N.ar  141  G141       -0.1709
   3033  C2        37.4360   14.7980   16.7970 C.ar  141  G141        0.2606
   3034  N2        36.2580   14.2370   16.4920 N.pl3 141  G141       -0.0859
   3035  N3        37.7970   14.8750   18.0720 N.ar  141  G141       -0.1918
   3036  C4        39.0070   15.4660   18.2310 C.ar  141  G141        0.1723
   3037  C5        39.8440   15.9610   17.2570 C.ar  141  G141        0.1748
   3038  C6        39.4510   15.8710   15.8950 C.ar  141  G141        0.3023
   3039  O6        40.0770   16.2610   14.8990 O.2   141  G141       -0.2633
   3040  N7        41.0000   16.4810   17.8280 N.ar  141  G141       -0.2173
   3041  C8        40.8390   16.2980   19.1070 C.ar  141  G141        0.1817
   3042  N9        39.6510   15.6920   19.4270 N.ar  141  G141       -0.2693
   3043  OP1       44.7700   16.7420   23.3390 O.3   141  G141       -0.4373
   3044  OP2       44.4280   17.0280   20.8220 O.co2 141  G141       -0.5172
   3045  P         41.9600   11.6220   21.9030 P.3   142  U142        0.2141
   3046  C5'       39.9500   10.1650   21.0220 C.3   142  U142        0.1812
   3047  O5'       41.1000   10.9500   20.7430 O.3   142  U142       -0.3114
   3048  C4'       39.2610    9.8370   19.7160 C.3   142  U142        0.1773
   3049  O4'       38.9070   11.0720   19.0420 O.3   142  U142       -0.3307
   3050  C3'       40.1380    9.1420   18.6870 C.3   142  U142        0.1860
   3051  O3'       40.2490    7.7630   18.9630 O.3   142  U142       -0.3112
   3052  C2'       39.3330    9.4110   17.4260 C.3   142  U142        0.2309
   3053  O2'       38.1640    8.6220   17.3560 O.3   142  U142       -0.2156
   3054  C1'       38.9640   10.8720   17.6360 C.3   142  U142        0.2420
   3055  N1        39.9390   11.8250   16.9840 N.ar  142  U142       -0.2534
   3056  C2        39.8400   12.0650   15.6150 C.ar  142  U142        0.3546
   3057  O2        39.0060   11.5510   14.8900 O.2   142  U142       -0.2443
   3058  N3        40.7680   12.9470   15.1080 N.ar  142  U142       -0.1530
   3059  C4        41.7720   13.5970   15.8140 C.ar  142  U142        0.2846
   3060  O4        42.5320   14.3550   15.2140 O.2   142  U142       -0.2650
   3061  C5        41.8190   13.3000   17.2290 C.ar  142  U142        0.0814
   3062  C6        40.9210   12.4470   17.7470 C.ar  142  U142        0.0870
   3063  OP1       42.2480   10.6200   22.9510 O.3   142  U142       -0.4373
   3064  OP2       43.0750   12.3400   21.2450 O.co2 142  U142       -0.5172
   3065  P         41.6700    7.0330   19.0420 P.3   143  C143        0.2141
   3066  C5'       40.9180    5.2980   17.2020 C.3   143  C143        0.1812
   3067  O5'       41.8120    6.3290   17.6120 O.3   143  C143       -0.3114
   3068  C4'       40.4710    5.4950   15.7610 C.3   143  C143        0.1773
   3069  O4'       40.0310    6.8620   15.5430 O.3   143  C143       -0.3307
   3070  C3'       41.5380    5.2980   14.6980 C.3   143  C143        0.1860
   3071  O3'       41.7150    3.9200   14.4440 O.3   143  C143       -0.3112
   3072  C2'       40.9200    6.0490   13.5220 C.3   143  C143        0.2309
   3073  O2'       39.8400    5.3740   12.9010 O.3   143  C143       -0.2156
   3074  C1'       40.3570    7.2710   14.2280 C.3   143  C143        0.2420
   3075  N1        41.2810    8.4510   14.2620 N.ar  143  C143       -0.2535
   3076  C2        41.3150    9.3270   13.1670 C.ar  143  C143        0.3532
   3077  O2        40.5960    9.1170   12.1810 O.2   143  C143       -0.2443
   3078  N3        42.1470   10.3970   13.2130 N.ar  143  C143       -0.1739
   3079  C4        42.9210   10.6130   14.2740 C.ar  143  C143        0.1759
   3080  N4        43.7210   11.6860   14.2520 N.pl3 143  C143       -0.1070
   3081  C5        42.9030    9.7390   15.3990 C.ar  143  C143        0.0566
   3082  C6        42.0800    8.6850   15.3480 C.ar  143  C143        0.0850
   3083  OP1       41.5330    5.9910   20.0830 O.3   143  C143       -0.4373
   3084  OP2       42.7440    8.0440   19.1320 O.co2 143  C143       -0.5172
   3085  P         43.1480    3.3380   14.0260 P.3   144  A144        0.2141
   3086  C5'       42.4180    3.4130   11.4890 C.3   144  A144        0.1812
   3087  O5'       43.3170    3.8510   12.5150 O.3   144  A144       -0.3114
   3088  C4'       42.6570    4.1650   10.1930 C.3   144  A144        0.1773
   3089  O4'       42.2640    5.5550   10.3300 O.3   144  A144       -0.3307
   3090  C3'       44.1130    4.2550    9.7730 C.3   144  A144        0.1860
   3091  O3'       44.5290    3.0670    9.1400 O.3   144  A144       -0.3112
   3092  C2'       44.0930    5.4510    8.8290 C.3   144  A144        0.2309
   3093  O2'       43.5700    5.1510    7.5500 O.3   144  A144       -0.2156
   3094  C1'       43.1500    6.3760    9.5800 C.3   144  A144        0.2408
   3095  N1        45.7500   10.8050   10.0730 N.ar  144  A144       -0.2040
   3096  C2        45.2390   10.1930    8.9950 C.ar  144  A144        0.2016
   3097  N3        44.5710    9.0400    8.9320 N.ar  144  A144       -0.2048
   3098  C4        44.4500    8.4850   10.1540 C.ar  144  A144        0.1692
   3099  C5        44.9300    8.9940   11.3500 C.ar  144  A144        0.1518
   3100  C6        45.6180   10.2240   11.2880 C.ar  144  A144        0.1919
   3101  N6        46.1370   10.8250   12.3690 N.pl3 144  A144       -0.1054
   3102  N7        44.6270    8.1550   12.4090 N.ar  144  A144       -0.2193
   3103  C8        43.9770    7.1720   11.8380 C.ar  144  A144        0.1816
   3104  N9        43.8330    7.3000   10.4830 N.ar  144  A144       -0.2693
   3105  OP1       43.0280    1.8640   14.0460 O.2   144  A144       -0.5172
   3106  OP2       44.1990    3.9940   14.8340 O.co2 144  A144       -0.4373
   3107  P         46.0560    2.6130    9.2680 P.3   145  C145        0.2141
   3108  C5'       46.6010    3.6080    6.8940 C.3   145  C145        0.1812
   3109  O5'       46.7940    3.6500    8.3060 O.3   145  C145       -0.3114
   3110  C4'       47.3400    4.7630    6.2610 C.3   145  C145        0.1773
   3111  O4'       46.7550    6.0050    6.7240 O.3   145  C145       -0.3307
   3112  C3'       48.7870    4.8830    6.7070 C.3   145  C145        0.1860
   3113  O3'       49.6240    3.9350    6.0530 O.3   145  C145       -0.3112
   3114  C2'       49.0610    6.3430    6.3530 C.3   145  C145        0.2309
   3115  O2'       49.2490    6.5810    4.9710 O.3   145  C145       -0.2156
   3116  C1'       47.7680    6.9880    6.8510 C.3   145  C145        0.2420
   3117  N1        47.9170    7.4330    8.2800 N.ar  145  C145       -0.2535
   3118  C2        48.4650    8.6980    8.5540 C.ar  145  C145        0.3532
   3119  O2        48.7930    9.4380    7.6160 O.2   145  C145       -0.2443
   3120  N3        48.6150    9.0790    9.8530 N.ar  145  C145       -0.1739
   3121  C4        48.2540    8.2580   10.8450 C.ar  145  C145        0.1759
   3122  N4        48.4210    8.6770   12.1020 N.pl3 145  C145       -0.1070
   3123  C5        47.7020    6.9680   10.5940 C.ar  145  C145        0.0566
   3124  C6        47.5570    6.6070    9.3140 C.ar  145  C145        0.0850
   3125  OP1       46.1360    1.2580    8.6850 O.2   145  C145       -0.5172
   3126  OP2       46.5490    2.8750   10.6400 O.co2 145  C145       -0.4373
   3127  P         50.9280    3.3610    6.7940 P.3   146  G146        0.2141
   3128  C5'       52.4870    4.9880    5.4400 C.3   146  G146        0.1812
   3129  O5'       51.9240    4.6060    6.6950 O.3   146  G146       -0.3114
   3130  C4'       53.2790    6.2760    5.5600 C.3   146  G146        0.1773
   3131  O4'       52.4210    7.3680    5.9840 O.3   146  G146       -0.3307
   3132  C3'       54.3770    6.2790    6.6100 C.3   146  G146        0.1860
   3133  O3'       55.5230    5.5740    6.1630 O.3   146  G146       -0.3112
   3134  C2'       54.6190    7.7780    6.7370 C.3   146  G146        0.2309
   3135  O2'       55.3470    8.3290    5.6560 O.3   146  G146       -0.2156
   3136  C1'       53.1800    8.2870    6.7540 C.3   146  G146        0.2408
   3137  N1        53.3260   10.7910   11.2060 N.ar  146  G146       -0.1709
   3138  C2        53.9920   11.0600   10.0320 C.ar  146  G146        0.2606
   3139  N2        54.7980   12.1290   10.0370 N.pl3 146  G146       -0.0859
   3140  N3        53.8700   10.3260    8.9280 N.ar  146  G146       -0.1918
   3141  C4        53.0140    9.2820    9.0870 C.ar  146  G146        0.1723
   3142  C5        52.3050    8.9320   10.2170 C.ar  146  G146        0.1748
   3143  C6        52.4480    9.7230   11.3890 C.ar  146  G146        0.3023
   3144  O6        51.9010    9.5690   12.4880 O.2   146  G146       -0.2633
   3145  N7        51.5350    7.7950    9.9860 N.ar  146  G146       -0.2173
   3146  C8        51.7870    7.4920    8.7420 C.ar  146  G146        0.1817
   3147  N9        52.6710    8.3520    8.1270 N.ar  146  G146       -0.2693
   3148  OP1       51.4340    2.2310    5.9830 O.2   146  G146       -0.5172
   3149  OP2       50.6550    3.1510    8.2300 O.co2 146  G146       -0.4373
   3150  P         56.3770    4.6920    7.1910 P.3   147  G147        0.2141
   3151  C5'       58.0740    6.6030    7.6670 C.3   147  G147        0.1812
   3152  O5'       57.0080    5.7990    8.1540 O.3   147  G147       -0.3114
   3153  C4'       58.3390    7.7840    8.5790 C.3   147  G147        0.1773
   3154  O4'       57.0980    8.4300    8.9390 O.3   147  G147       -0.3307
   3155  C3'       58.9360    7.4580    9.9360 C.3   147  G147        0.1860
   3156  O3'       60.3210    7.1440    9.8380 O.3   147  G147       -0.3112
   3157  C2'       58.6730    8.7680   10.6700 C.3   147  G147        0.2309
   3158  O2'       59.5620    9.8150   10.3130 O.3   147  G147       -0.2156
   3159  C1'       57.2490    9.0610   10.1970 C.3   147  G147        0.2408
   3160  N1        55.1660    9.5250   14.8090 N.ar  147  G147       -0.1709
   3161  C2        56.1660   10.2630   14.2170 C.ar  147  G147        0.2606
   3162  N2        56.6970   11.2600   14.9390 N.pl3 147  G147       -0.0859
   3163  N3        56.6220   10.0370   12.9940 N.ar  147  G147       -0.1918
   3164  C4        55.9880    9.0020   12.3890 C.ar  147  G147        0.1723
   3165  C5        54.9820    8.2010   12.8880 C.ar  147  G147        0.1748
   3166  C6        54.5020    8.4560   14.2020 C.ar  147  G147        0.3023
   3167  O6        53.6140    7.8620   14.8240 O.2   147  G147       -0.2633
   3168  N7        54.6070    7.2420   11.9520 N.ar  147  G147       -0.2173
   3169  C8        55.3810    7.4770   10.9280 C.ar  147  G147        0.1817
   3170  N9        56.2440    8.5350   11.1200 N.ar  147  G147       -0.2693
   3171  OP1       57.4640    4.0430    6.4210 O.2   147  G147       -0.5172
   3172  OP2       55.4500    3.8560    7.9850 O.co2 147  G147       -0.4373
   3173  P         60.9650    6.1330   10.8990 P.3   148  A148        0.2141
   3174  C5'       62.4460    8.0050   11.9960 C.3   148  A148        0.1812
   3175  O5'       61.3370    7.1140   12.1040 O.3   148  A148       -0.3114
   3176  C4'       62.5520    8.8740   13.2330 C.3   148  A148        0.1773
   3177  O4'       61.3270    9.6340   13.4180 O.3   148  A148       -0.3307
   3178  C3'       62.6860    8.0980   14.5300 C.3   148  A148        0.1860
   3179  O3'       64.0190    7.6940   14.7440 O.3   148  A148       -0.3112
   3180  C2'       62.2220    9.1460   15.5300 C.3   148  A148        0.2309
   3181  O2'       63.2030   10.1410   15.7440 O.3   148  A148       -0.2156
   3182  C1'       61.0010    9.6970   14.7970 C.3   148  A148        0.2408
   3183  N1        57.1800    8.4900   18.0980 N.ar  148  A148       -0.2040
   3184  C2        58.2040    9.3540   18.2030 C.ar  148  A148        0.2016
   3185  N3        59.1640    9.6220   17.3120 N.ar  148  A148       -0.2048
   3186  C4        59.0100    8.8940   16.1880 C.ar  148  A148        0.1692
   3187  C5        58.0060    7.9700   15.9410 C.ar  148  A148        0.1518
   3188  C6        57.0500    7.7710   16.9610 C.ar  148  A148        0.1919
   3189  N6        56.0370    6.9110   16.8500 N.pl3 148  A148       -0.1054
   3190  N7        58.1510    7.4070   14.6870 N.ar  148  A148       -0.2193
   3191  C8        59.2210    7.9900   14.2090 C.ar  148  A148        0.1816
   3192  N9        59.7940    8.9030   15.0520 N.ar  148  A148       -0.2693
   3193  OP1       62.1980    5.5740   10.3010 O.2   148  A148       -0.5172
   3194  OP2       59.9000    5.2310   11.3990 O.co2 148  A148       -0.4373
   3195  P         64.3190    6.3360   15.5320 P.3   149  G149        0.2141
   3196  C5'       64.6620    7.5490   17.8340 C.3   149  G149        0.1812
   3197  O5'       63.8800    6.6630   17.0390 O.3   149  G149       -0.3114
   3198  C4'       63.9470    7.9230   19.1170 C.3   149  G149        0.1773
   3199  O4'       62.6280    8.4480   18.8080 O.3   149  G149       -0.3307
   3200  C3'       63.6760    6.7910   20.0990 C.3   149  G149        0.1860
   3201  O3'       64.8260    6.4900   20.8870 O.3   149  G149       -0.3112
   3202  C2'       62.5610    7.4220   20.9250 C.3   149  G149        0.2309
   3203  O2'       63.0190    8.4020   21.8370 O.3   149  G149       -0.2156
   3204  C1'       61.7200    8.0670   19.8240 C.3   149  G149        0.2408
   3205  N1        57.3330    5.6060   20.6760 N.ar  149  G149       -0.1709
   3206  C2        58.0340    6.4560   21.5060 C.ar  149  G149        0.2606
   3207  N2        57.5250    6.6940   22.7200 N.pl3 149  G149       -0.0859
   3208  N3        59.1740    7.0420   21.1670 N.ar  149  G149       -0.1918
   3209  C4        59.5730    6.7100   19.9100 C.ar  149  G149        0.1723
   3210  C5        58.9460    5.8750   19.0080 C.ar  149  G149        0.1748
   3211  C6        57.7280    5.2550   19.3790 C.ar  149  G149        0.3023
   3212  O6        57.0410    4.4790   18.6970 O.2   149  G149       -0.2633
   3213  N7        59.6670    5.7890   17.8260 N.ar  149  G149       -0.2173
   3214  C8        60.7000    6.5590   18.0330 C.ar  149  G149        0.1817
   3215  N9        60.7110    7.1560   19.2740 N.ar  149  G149       -0.2693
   3216  OP1       65.7860    6.1180   15.4740 O.3   149  G149       -0.4373
   3217  OP2       63.3860    5.3090   15.0150 O.co2 149  G149       -0.5172
   3218  P         65.2100    4.9780   21.2640 P.3   150  G150        0.2141
   3219  C5'       63.9370    5.0310   23.5710 C.3   150  G150        0.1812
   3220  O5'       64.0230    4.5380   22.2390 O.3   150  G150       -0.3114
   3221  C4'       62.6170    4.6370   24.2150 C.3   150  G150        0.1773
   3222  O4'       61.5020    5.1390   23.4270 O.3   150  G150       -0.3307
   3223  C3'       62.3730    3.1380   24.3370 C.3   150  G150        0.1860
   3224  O3'       62.9320    2.6540   25.5540 O.3   150  G150       -0.3112
   3225  C2'       60.8480    3.0720   24.3310 C.3   150  G150        0.2309
   3226  O2'       60.2790    3.3840   25.5880 O.3   150  G150       -0.2156
   3227  C1'       60.4850    4.1550   23.3220 C.3   150  G150        0.2408
   3228  N1        57.8490    1.5540   19.7350 N.ar  150  G150       -0.1709
   3229  C2        57.5410    1.7410   21.0680 C.ar  150  G150        0.2606
   3230  N2        56.4020    1.1740   21.4940 N.pl3 150  G150       -0.0859
   3231  N3        58.2950    2.4350   21.9230 N.ar  150  G150       -0.1918
   3232  C4        59.4090    2.9420   21.3310 C.ar  150  G150        0.1723
   3233  C5        59.8000    2.8020   20.0100 C.ar  150  G150        0.1748
   3234  C6        58.9890    2.0660   19.1080 C.ar  150  G150        0.3023
   3235  O6        59.1950    1.8530   17.9010 O.2   150  G150       -0.2633
   3236  N7        60.9960    3.4600   19.7740 N.ar  150  G150       -0.2173
   3237  C8        61.3040    3.9710   20.9310 C.ar  150  G150        0.1817
   3238  N9        60.3970    3.7040   21.9290 N.ar  150  G150       -0.2693
   3239  OP1       66.4790    5.0150   22.0240 O.3   150  G150       -0.4373
   3240  OP2       65.1160    4.1500   20.0420 O.co2 150  G150       -0.5172
   3241  P         63.6110    1.2040   25.6580 P.3   151  U151        0.2141
   3242  C5'       61.2630    0.1910   26.3790 C.3   151  U151        0.1812
   3243  O5'       62.3800    0.1950   25.4790 O.3   151  U151       -0.3114
   3244  C4'       60.0720   -0.5490   25.7800 C.3   151  U151        0.1773
   3245  O4'       59.8140   -0.1180   24.4170 O.3   151  U151       -0.3307
   3246  C3'       60.2280   -2.0710   25.7300 C.3   151  U151        0.1860
   3247  O3'       59.0200   -2.7350   26.1280 O.3   151  U151       -0.3112
   3248  C2'       60.5740   -2.3420   24.2650 C.3   151  U151        0.2309
   3249  O2'       60.1660   -3.6210   23.8160 O.3   151  U151       -0.2156
   3250  C1'       59.8060   -1.2320   23.5440 C.3   151  U151        0.2420
   3251  N1        60.4070   -0.8470   22.2150 N.ar  151  U151       -0.2534
   3252  C2        59.6630   -0.9940   21.0500 C.ar  151  U151        0.3546
   3253  O2        58.5170   -1.4190   21.0180 O.2   151  U151       -0.2443
   3254  N3        60.3210   -0.6170   19.8970 N.ar  151  U151       -0.1530
   3255  C4        61.6160   -0.1200   19.7880 C.ar  151  U151        0.2846
   3256  O4        62.0710    0.1760   18.6870 O.2   151  U151       -0.2650
   3257  C5        62.3270    0.0030   21.0390 C.ar  151  U151        0.0814
   3258  C6        61.7080   -0.3580   22.1740 C.ar  151  U151        0.0870
   3259  OP1       64.1390    1.0720   27.0320 O.3   151  U151       -0.4373
   3260  OP2       64.5230    1.0130   24.5070 O.co2 151  U151       -0.5172
   3261  P         58.4600   -2.6900   27.6290 P.3   152  C152        0.2141
   3262  C5'       56.1380   -1.5500   28.2030 C.3   152  C152        0.1812
   3263  O5'       57.3880   -1.5000   27.5170 O.3   152  C152       -0.3114
   3264  C4'       54.9550   -1.8110   27.2730 C.3   152  C152        0.1773
   3265  O4'       55.3700   -2.3710   25.9900 O.3   152  C152       -0.3307
   3266  C3'       53.9110   -2.7910   27.8090 C.3   152  C152        0.1860
   3267  O3'       52.6400   -2.3580   27.3370 O.3   152  C152       -0.3112
   3268  C2'       54.3510   -4.0920   27.1420 C.3   152  C152        0.2309
   3269  O2'       53.3540   -5.0940   27.1390 O.3   152  C152       -0.2156
   3270  C1'       54.5990   -3.5400   25.7400 C.3   152  C152        0.2420
   3271  N1        55.2790   -4.4780   24.7570 N.ar  152  C152       -0.2535
   3272  C2        54.5680   -5.5490   24.1610 C.ar  152  C152        0.3532
   3273  O2        53.3730   -5.7450   24.4290 O.2   152  C152       -0.2443
   3274  N3        55.2140   -6.3620   23.2810 N.ar  152  C152       -0.1739
   3275  C4        56.5010   -6.1480   22.9880 C.ar  152  C152        0.1759
   3276  N4        57.0910   -6.9730   22.1200 N.pl3 152  C152       -0.1070
   3277  C5        57.2420   -5.0760   23.5750 C.ar  152  C152        0.0566
   3278  C6        56.5980   -4.2780   24.4400 C.ar  152  C152        0.0850
   3279  OP1       59.5470   -2.2690   28.5460 O.3   152  C152       -0.4373
   3280  OP2       57.7740   -3.9790   27.8840 O.co2 152  C152       -0.5172
   3281  P         51.2560   -2.6660   28.0800 P.3   153  U153        0.2141
   3282  C5'       50.1610   -0.4900   27.0180 C.3   153  U153        0.1812
   3283  O5'       50.1950   -1.9200   27.1320 O.3   153  U153       -0.3114
   3284  C4'       50.8670    0.0390   25.7740 C.3   153  U153        0.1773
   3285  O4'       51.9420   -0.8220   25.3030 O.3   153  U153       -0.3307
   3286  C3'       49.9800    0.2980   24.5520 C.3   153  U153        0.1860
   3287  O3'       50.0170    1.6900   24.2700 O.3   153  U153       -0.3112
   3288  C2'       50.6670   -0.4830   23.4330 C.3   153  U153        0.2309
   3289  O2'       50.5950    0.1540   22.1720 O.3   153  U153       -0.2156
   3290  C1'       52.1010   -0.4570   23.9510 C.3   153  U153        0.2420
   3291  N1        53.1050   -1.3070   23.2110 N.ar  153  U153       -0.2534
   3292  C2        54.4240   -0.8840   23.1450 C.ar  153  U153        0.3546
   3293  O2        54.8390    0.1380   23.6660 O.2   153  U153       -0.2443
   3294  N3        55.2670   -1.7120   22.4390 N.ar  153  U153       -0.1530
   3295  C4        54.9310   -2.8940   21.7990 C.ar  153  U153        0.2846
   3296  O4        55.7960   -3.5300   21.2040 O.2   153  U153       -0.2650
   3297  C5        53.5420   -3.2660   21.9080 C.ar  153  U153        0.0814
   3298  C6        52.7000   -2.4780   22.5910 C.ar  153  U153        0.0870
   3299  OP1       51.2940   -2.0160   29.4110 O.3   153  U153       -0.4373
   3300  OP2       50.9990   -4.1200   27.9790 O.co2 153  U153       -0.5172
   3301  P         48.7070    2.6080   24.2220 P.3   154  C154        0.2141
   3302  C5'       49.7380    4.0360   26.1790 C.3   154  C154        0.1812
   3303  O5'       49.2730    3.9800   24.8260 O.3   154  C154       -0.3114
   3304  C4'       51.0760    4.7440   26.3090 C.3   154  C154        0.1773
   3305  O4'       52.1500    3.8930   25.8360 O.3   154  C154       -0.3307
   3306  C3'       51.2690    6.0000   25.4740 C.3   154  C154        0.1860
   3307  O3'       50.5740    7.1010   26.0220 O.3   154  C154       -0.3112
   3308  C2'       52.7800    6.1580   25.5750 C.3   154  C154        0.2309
   3309  O2'       53.2190    6.6450   26.8320 O.3   154  C154       -0.2156
   3310  C1'       53.2150    4.7080   25.3660 C.3   154  C154        0.2420
   3311  N1        53.5380    4.3970   23.9230 N.ar  154  C154       -0.2535
   3312  C2        54.7540    4.8390   23.3670 C.ar  154  C154        0.3532
   3313  O2        55.5540    5.4750   24.0650 O.2   154  C154       -0.2443
   3314  N3        55.0280    4.5550   22.0660 N.ar  154  C154       -0.1739
   3315  C4        54.1510    3.8660   21.3260 C.ar  154  C154        0.1759
   3316  N4        54.4700    3.6100   20.0540 N.pl3 154  C154       -0.1070
   3317  C5        52.9080    3.4070   21.8640 C.ar  154  C154        0.0566
   3318  C6        52.6490    3.6940   23.1480 C.ar  154  C154        0.0850
   3319  OP1       47.6830    2.0480   25.1400 O.3   154  C154       -0.4373
   3320  OP2       48.3710    2.8480   22.7980 O.co2 154  C154       -0.5172
   3321  P         50.0420    8.2630   25.0590 P.3   155  U155        0.2141
   3322  C5'       51.9780    9.8590   25.8430 C.3   155  U155        0.1812
   3323  O5'       51.3650    9.1250   24.7870 O.3   155  U155       -0.3114
   3324  C4'       53.3220   10.4200   25.4180 C.3   155  U155        0.1773
   3325  O4'       54.1840    9.3330   24.9930 O.3   155  U155       -0.3307
   3326  C3'       53.3070   11.3300   24.1990 C.3   155  U155        0.1860
   3327  O3'       52.8860   12.6520   24.4970 O.3   155  U155       -0.3112
   3328  C2'       54.7690   11.2650   23.7790 C.3   155  U155        0.2309
   3329  O2'       55.6340   12.0020   24.6250 O.3   155  U155       -0.2156
   3330  C1'       55.0130    9.7660   23.9230 C.3   155  U155        0.2420
   3331  N1        54.7360    8.9770   22.6570 N.ar  155  U155       -0.2534
   3332  C2        55.6410    9.0440   21.6080 C.ar  155  U155        0.3546
   3333  O2        56.6620    9.7080   21.6380 O.2   155  U155       -0.2443
   3334  N3        55.3140    8.2940   20.5010 N.ar  155  U155       -0.1530
   3335  C4        54.1950    7.4960   20.3360 C.ar  155  U155        0.2846
   3336  O4        54.0370    6.8840   19.2850 O.2   155  U155       -0.2650
   3337  C5        53.2940    7.4730   21.4640 C.ar  155  U155        0.0814
   3338  C6        53.5940    8.1960   22.5540 C.ar  155  U155        0.0870
   3339  OP1       49.0870    9.0680   25.8530 O.3   155  U155       -0.4373
   3340  OP2       49.6090    7.6790   23.7660 O.co2 155  U155       -0.5172
   3341  P         51.9200   13.4020   23.4580 P.3   156  C156        0.2141
   3342  C5'       53.9980   14.7340   22.5880 C.3   156  C156        0.1812
   3343  O5'       52.9060   13.8750   22.2980 O.3   156  C156       -0.3114
   3344  C4'       55.0110   14.6540   21.4660 C.3   156  C156        0.1773
   3345  O4'       55.4160   13.2760   21.2660 O.3   156  C156       -0.3307
   3346  C3'       54.4960   15.0550   20.0920 C.3   156  C156        0.1860
   3347  O3'       54.4350   16.4610   19.9690 O.3   156  C156       -0.3112
   3348  C2'       55.5790   14.4280   19.2190 C.3   156  C156        0.2309
   3349  O2'       56.8130   15.1250   19.2430 O.3   156  C156       -0.2156
   3350  C1'       55.7310   13.0710   19.9000 C.3   156  C156        0.2420
   3351  N1        54.8520   12.0220   19.2800 N.ar  156  C156       -0.2535
   3352  C2        55.2010   11.5030   18.0220 C.ar  156  C156        0.3532
   3353  O2        56.2240   11.9070   17.4580 O.2   156  C156       -0.2443
   3354  N3        54.4070   10.5600   17.4520 N.ar  156  C156       -0.1739
   3355  C4        53.3080   10.1380   18.0830 C.ar  156  C156        0.1759
   3356  N4        52.5720    9.2080   17.4720 N.pl3 156  C156       -0.1070
   3357  C5        52.9220   10.6520   19.3610 C.ar  156  C156        0.0566
   3358  C6        53.7160   11.5800   19.9150 C.ar  156  C156        0.0850
   3359  OP1       51.3800   14.5960   24.1520 O.3   156  C156       -0.4373
   3360  OP2       51.0010   12.4050   22.8580 O.co2 156  C156       -0.5172
   3361  P         53.4760   17.1530   18.8910 P.3   157  C157        0.2141
   3362  C5'       55.3790   17.5770   17.1460 C.3   157  C157        0.1812
   3363  O5'       54.2070   16.8660   17.4970 O.3   157  C157       -0.3114
   3364  C4'       55.8620   17.1780   15.7660 C.3   157  C157        0.1773
   3365  O4'       56.1660   15.7610   15.7350 O.3   157  C157       -0.3307
   3366  C3'       54.8570   17.3260   14.6390 C.3   157  C157        0.1860
   3367  O3'       54.7190   18.6650   14.2260 O.3   157  C157       -0.3112
   3368  C2'       55.5150   16.4640   13.5750 C.3   157  C157        0.2309
   3369  O2'       56.6140   17.0970   12.9420 O.3   157  C157       -0.2156
   3370  C1'       55.9430   15.2640   14.4270 C.3   157  C157        0.2420
   3371  N1        54.8830   14.2020   14.4650 N.ar  157  C157       -0.2535
   3372  C2        54.6780   13.3800   13.3410 C.ar  157  C157        0.3532
   3373  O2        55.3800   13.5200   12.3300 O.2   157  C157       -0.2443
   3374  N3        53.7020   12.4370   13.3910 N.ar  157  C157       -0.1739
   3375  C4        52.9540   12.2990   14.4890 C.ar  157  C157        0.1759
   3376  N4        52.0110   11.3560   14.4850 N.pl3 157  C157       -0.1070
   3377  C5        53.1390   13.1250   15.6390 C.ar  157  C157        0.0566
   3378  C6        54.1010   14.0520   15.5810 C.ar  157  C157        0.0850
   3379  OP1       53.5330   18.6030   19.1880 O.3   157  C157       -0.4373
   3380  OP2       52.1710   16.4500   18.8560 O.co2 157  C157       -0.5172
   3381  P         53.2690   19.1980   13.8060 P.3   158  G158        0.2141
   3382  C5'       53.7360   18.8250   11.2590 C.3   158  G158        0.1812
   3383  O5'       53.0110   18.4480   12.4150 O.3   158  G158       -0.3114
   3384  C4'       53.5530   17.8320   10.1300 C.3   158  G158        0.1773
   3385  O4'       53.8500   16.4850   10.5800 O.3   158  G158       -0.3307
   3386  C3'       52.1410   17.7020    9.5820 C.3   158  G158        0.1860
   3387  O3'       51.7940   18.8290    8.7760 O.3   158  G158       -0.3112
   3388  C2'       52.3260   16.4160    8.7830 C.3   158  G158        0.2309
   3389  O2'       53.1080   16.5950    7.6200 O.3   158  G158       -0.2156
   3390  C1'       53.1070   15.5750    9.7870 C.3   158  G158        0.2408
   3391  N1        50.1330   11.4440   10.0430 N.ar  158  G158       -0.1709
   3392  C2        50.8400   11.9480    8.9730 C.ar  158  G158        0.2606
   3393  N2        50.7590   11.2810    7.8130 N.pl3 158  G158       -0.0859
   3394  N3        51.5830   13.0460    9.0390 N.ar  158  G158       -0.1918
   3395  C4        51.5730   13.6160   10.2700 C.ar  158  G158        0.1723
   3396  C5        50.9030   13.1950   11.3940 C.ar  158  G158        0.1748
   3397  C6        50.1130   12.0230   11.3120 C.ar  158  G158        0.3023
   3398  O6        49.4500   11.5000   12.2090 O.2   158  G158       -0.2633
   3399  N7        51.1420   14.0520   12.4620 N.ar  158  G158       -0.2173
   3400  C8        51.9420   14.9580   11.9700 C.ar  158  G158        0.1817
   3401  N9        52.2480   14.7560   10.6440 N.ar  158  G158       -0.2693
   3402  OP1       53.4030   20.6530   13.5870 O.2   158  G158       -0.5172
   3403  OP2       52.2570   18.6960   14.7630 O.co2 158  G158       -0.4373
   3404  P         50.2650   19.2640    8.5590 P.3   159  U159        0.2141
   3405  C5'       50.1350   17.8360    6.3400 C.3   159  U159        0.1812
   3406  O5'       49.6750   18.0740    7.6710 O.3   159  U159       -0.3114
   3407  C4'       49.4430   16.6130    5.7720 C.3   159  U159        0.1773
   3408  O4'       49.8220   15.4360    6.5350 O.3   159  U159       -0.3307
   3409  C3'       47.9260   16.6140    5.8880 C.3   159  U159        0.1860
   3410  O3'       47.2890   17.4590    4.9280 O.3   159  U159       -0.3112
   3411  C2'       47.6510   15.1320    5.6710 C.3   159  U159        0.2309
   3412  O2'       47.8080   14.7320    4.3250 O.3   159  U159       -0.2156
   3413  C1'       48.7380   14.5200    6.5510 C.3   159  U159        0.2420
   3414  N1        48.2300   14.2560    7.9470 N.ar  159  U159       -0.2534
   3415  C2        47.5190   13.0910    8.1760 C.ar  159  U159        0.3546
   3416  O2        47.2950   12.2540    7.3160 O.2   159  U159       -0.2443
   3417  N3        47.0790   12.9300    9.4690 N.ar  159  U159       -0.1530
   3418  C4        47.2620   13.7960   10.5340 C.ar  159  U159        0.2846
   3419  O4        46.7990   13.5090   11.6340 O.2   159  U159       -0.2650
   3420  C5        48.0030   14.9920   10.2230 C.ar  159  U159        0.0814
   3421  C6        48.4460   15.1680    8.9710 C.ar  159  U159        0.0870
   3422  OP1       50.2740   20.5090    7.7560 O.2   159  U159       -0.5172
   3423  OP2       49.5400   19.2130    9.8490 O.co2 159  U159       -0.4373
   3424  P         45.8480   18.0870    5.2700 P.3   160  G160        0.2141
   3425  C5'       44.5050   16.1900    4.0430 C.3   160  G160        0.1812
   3426  O5'       44.8400   16.8500    5.2440 O.3   160  G160       -0.3114
   3427  C4'       43.7560   14.9100    4.3630 C.3   160  G160        0.1773
   3428  O4'       44.5000   14.1270    5.3300 O.3   160  G160       -0.3307
   3429  C3'       42.4080   15.0730    5.0440 C.3   160  G160        0.1860
   3430  O3'       41.4040   15.5060    4.1230 O.3   160  G160       -0.3112
   3431  C2'       42.2110   13.6470    5.5540 C.3   160  G160        0.2309
   3432  O2'       41.9090   12.7000    4.5430 O.3   160  G160       -0.2156
   3433  C1'       43.5980   13.3550    6.1040 C.3   160  G160        0.2408
   3434  N1        42.4790   11.9280   10.8830 N.ar  160  G160       -0.1709
   3435  C2        42.1660   11.3090    9.6890 C.ar  160  G160        0.2606
   3436  N2        41.4680   10.1680    9.7650 N.pl3 160  G160       -0.0859
   3437  N3        42.5140   11.7830    8.4970 N.ar  160  G160       -0.1918
   3438  C4        43.2190   12.9440    8.5830 C.ar  160  G160        0.1723
   3439  C5        43.5800   13.6370    9.7220 C.ar  160  G160        0.1748
   3440  C6        43.2010   13.1200   10.9890 C.ar  160  G160        0.3023
   3441  O6        43.4390   13.5980   12.1050 O.2   160  G160       -0.2633
   3442  N7        44.2950   14.7830    9.3940 N.ar  160  G160       -0.2173
   3443  C8        44.3550   14.7640    8.0900 C.ar  160  G160        0.1817
   3444  N9        43.7250   13.6770    7.5270 N.ar  160  G160       -0.2693
   3445  OP1       45.5000   19.0360    4.1880 O.2   160  G160       -0.5172
   3446  OP2       45.8730   18.5350    6.6800 O.co2 160  G160       -0.4373
   3447  P         40.0450   16.1920    4.6410 P.3   161  G161        0.2141
   3448  C5'       38.8420   13.9020    4.2590 C.3   161  G161        0.1812
   3449  O5'       39.2010   14.9470    5.1740 O.3   161  G161       -0.3114
   3450  C4'       38.1180   12.7690    4.9650 C.3   161  G161        0.1773
   3451  O4'       39.0000   12.1340    5.9210 O.3   161  G161       -0.3307
   3452  C3'       36.9310   13.2220    5.7880 C.3   161  G161        0.1860
   3453  O3'       35.8010   13.2920    4.9500 O.3   161  G161       -0.3112
   3454  C2'       36.8280   12.1460    6.8690 C.3   161  G161        0.2309
   3455  O2'       36.1030   10.9930    6.4870 O.3   161  G161       -0.2156
   3456  C1'       38.2860   11.7740    7.0910 C.3   161  G161        0.2408
   3457  N1        38.8450   11.7620   12.1630 N.ar  161  G161       -0.1709
   3458  C2        38.1620   10.8610   11.3720 C.ar  161  G161        0.2606
   3459  N2        37.5560    9.8360   11.9960 N.pl3 161  G161       -0.0859
   3460  N3        38.0860   10.9700   10.0470 N.ar  161  G161       -0.1918
   3461  C4        38.7510   12.0630    9.5700 C.ar  161  G161        0.1723
   3462  C5        39.4530   13.0120   10.2840 C.ar  161  G161        0.1748
   3463  C6        39.5360   12.8840   11.6890 C.ar  161  G161        0.3023
   3464  O6        40.1190   13.6400   12.4780 O.2   161  G161       -0.2633
   3465  N7        39.9940   13.9730    9.4380 N.ar  161  G161       -0.2173
   3466  C8        39.6120   13.6020    8.2500 C.ar  161  G161        0.1817
   3467  N9        38.8620   12.4500    8.2490 N.ar  161  G161       -0.2693
   3468  OP1       39.3370   16.7660    3.4730 O.2   161  G161       -0.5172
   3469  OP2       40.3760   17.0590    5.7930 O.co2 161  G161       -0.4373
   3470  P         34.6680   14.3880    5.2210 P.3   162  A162        0.2141
   3471  C5'       33.2330   12.4720    6.3340 C.3   162  A162        0.1812
   3472  O5'       33.8220   13.7710    6.4320 O.3   162  A162       -0.3114
   3473  C4'       33.0300   11.8380    7.7060 C.3   162  A162        0.1773
   3474  O4'       34.1610   12.0900    8.5860 O.3   162  A162       -0.3307
   3475  C3'       31.8130   12.3190    8.4830 C.3   162  A162        0.1860
   3476  O3'       31.3340   11.2420    9.2780 O.3   162  A162       -0.3112
   3477  C2'       32.3970   13.4270    9.3510 C.3   162  A162        0.2309
   3478  O2'       31.6080   13.6950   10.4930 O.3   162  A162       -0.2156
   3479  C1'       33.7370   12.8030    9.7300 C.3   162  A162        0.2408
   3480  N1        37.1470   14.3910   13.2690 N.ar  162  A162       -0.2040
   3481  C2        36.2630   13.3810   13.2730 C.ar  162  A162        0.2016
   3482  N3        35.4060   13.0230   12.3150 N.ar  162  A162       -0.2048
   3483  C4        35.5050   13.8310   11.2440 C.ar  162  A162        0.1692
   3484  C5        36.3650   14.9090   11.0950 C.ar  162  A162        0.1518
   3485  C6        37.2260   15.1900   12.1780 C.ar  162  A162        0.1919
   3486  N6        38.1080   16.1950   12.1780 N.pl3 162  A162       -0.1054
   3487  N7        36.1890   15.5090    9.8580 N.ar  162  A162       -0.2193
   3488  C8        35.2440   14.7970    9.2970 C.ar  162  A162        0.1816
   3489  N9        34.7810   13.7680   10.0750 N.ar  162  A162       -0.2693
   3490  OP1       33.8320   14.4250    3.9990 O.2   162  A162       -0.5172
   3491  OP2       35.3090   15.6290    5.7200 O.co2 162  A162       -0.4373
   3492  P         29.7890   10.8370    9.3110 P.3   163  G163        0.2141
   3493  C5'       30.3030   10.9410   11.9300 C.3   163  G163        0.1812
   3494  O5'       29.4920   10.5230   10.8480 O.3   163  G163       -0.3114
   3495  C4'       29.5120   10.7190   13.2110 C.3   163  G163        0.1773
   3496  O4'       30.4030   10.6430   14.3460 O.3   163  G163       -0.3307
   3497  C3'       28.5050   11.8030   13.5770 C.3   163  G163        0.1860
   3498  O3'       27.4510   11.2100   14.3160 O.3   163  G163       -0.3112
   3499  C2'       29.3470   12.7210   14.4550 C.3   163  G163        0.2309
   3500  O2'       28.5880   13.5540   15.3080 O.3   163  G163       -0.2156
   3501  C1'       30.0870   11.6660   15.2640 C.3   163  G163        0.2408
   3502  N1        32.4720   12.6880   19.6230 N.ar  163  G163       -0.1709
   3503  C2        31.1810   12.2540   19.4100 C.ar  163  G163        0.2606
   3504  N2        30.4210   12.0630   20.4950 N.pl3 163  G163       -0.0859
   3505  N3        30.6670   12.0210   18.2050 N.ar  163  G163       -0.1918
   3506  C4        31.5620   12.2630   17.2150 C.ar  163  G163        0.1723
   3507  C5        32.8650   12.6940   17.3230 C.ar  163  G163        0.1748
   3508  C6        33.3950   12.9410   18.6100 C.ar  163  G163        0.3023
   3509  O6        34.5300   13.3300   18.8990 O.2   163  G163       -0.2633
   3510  N7        33.4490   12.8170   16.0690 N.ar  163  G163       -0.2173
   3511  C8        32.5030   12.4650   15.2420 C.ar  163  G163        0.1817
   3512  N9        31.3310   12.1180   15.8720 N.ar  163  G163       -0.2693
   3513  OP1       29.6610    9.5330    8.6190 O.2   163  G163       -0.5172
   3514  OP2       28.9820   12.0100    8.9060 O.co2 163  G163       -0.4373
   3515  P         26.0580   10.7970   13.6420 P.3   164  A164        0.2141
   3516  C5'       26.0410    8.1320   13.6630 C.3   164  A164        0.1812
   3517  O5'       26.3940    9.3630   13.0260 O.3   164  A164       -0.3114
   3518  C4'       26.1950    7.0050   12.6530 C.3   164  A164        0.1773
   3519  O4'       25.3550    7.2500   11.4890 O.3   164  A164       -0.3307
   3520  C3'       27.6100    6.8460   12.1070 C.3   164  A164        0.1860
   3521  O3'       27.9200    5.4710   11.9210 O.3   164  A164       -0.3112
   3522  C2'       27.5510    7.5950   10.7780 C.3   164  A164        0.2309
   3523  O2'       28.5180    7.1820    9.8330 O.3   164  A164       -0.2156
   3524  C1'       26.1460    7.2310   10.3140 C.3   164  A164        0.2408
   3525  N1        24.2190    7.9680    5.5530 N.ar  164  A164       -0.2040
   3526  C2        24.5840    6.8450    6.1950 C.ar  164  A164        0.2016
   3527  N3        25.0770    6.7160    7.4360 N.ar  164  A164       -0.2048
   3528  C4        25.1910    7.9150    8.0510 C.ar  164  A164        0.1692
   3529  C5        24.8550    9.1500    7.5140 C.ar  164  A164        0.1518
   3530  C6        24.3470    9.1560    6.1970 C.ar  164  A164        0.1919
   3531  N6        23.9910   10.2840    5.5770 N.pl3 164  A164       -0.1054
   3532  N7        25.0980   10.1720    8.4170 N.ar  164  A164       -0.2193
   3533  C8        25.5700    9.5440    9.4660 C.ar  164  A164        0.1816
   3534  N9        25.6480    8.1840    9.3230 N.ar  164  A164       -0.2693
   3535  OP1       25.7570   11.7240   12.5350 O.2   164  A164       -0.5172
   3536  OP2       25.0820   10.6020   14.7400 O.co2 164  A164       -0.4373
   3537  P         28.8460    4.6830   12.9580 P.3   165  G165        0.2141
   3538  C5'       30.9870    5.8850   11.9600 C.3   165  G165        0.1812
   3539  O5'       30.1420    5.6100   13.0810 O.3   165  G165       -0.3114
   3540  C4'       32.1070    6.8010   12.4150 C.3   165  G165        0.1773
   3541  O4'       31.5560    7.9720   13.0710 O.3   165  G165       -0.3307
   3542  C3'       32.9910    6.1930   13.4880 C.3   165  G165        0.1860
   3543  O3'       33.9790    5.3650   12.9110 O.3   165  G165       -0.3112
   3544  C2'       33.5730    7.4290   14.1690 C.3   165  G165        0.2309
   3545  O2'       34.6090    8.0480   13.4390 O.3   165  G165       -0.2156
   3546  C1'       32.3550    8.3370   14.1850 C.3   165  G165        0.2408
   3547  N1        32.3670    9.2500   19.2040 N.ar  165  G165       -0.1709
   3548  C2        33.3660    9.4360   18.2780 C.ar  165  G165        0.2606
   3549  N2        34.5280    9.9280   18.7300 N.pl3 165  G165       -0.0859
   3550  N3        33.2330    9.1560   16.9870 N.ar  165  G165       -0.1918
   3551  C4        32.0050    8.6640   16.6810 C.ar  165  G165        0.1723
   3552  C5        30.9440    8.4470   17.5320 C.ar  165  G165        0.1748
   3553  C6        31.0980    8.7550   18.9110 C.ar  165  G165        0.3023
   3554  O6        30.2740    8.6240   19.8310 O.2   165  G165       -0.2633
   3555  N7        29.8600    7.9310   16.8310 N.ar  165  G165       -0.2173
   3556  C8        30.2790    7.8510   15.5960 C.ar  165  G165        0.1817
   3557  N9        31.5750    8.2790   15.4270 N.ar  165  G165       -0.2693
   3558  OP1       29.2360    3.4040   12.3220 O.2   165  G165       -0.5172
   3559  OP2       28.1630    4.6730   14.2690 O.co2 165  G165       -0.4373
   3560  P         34.3690    4.0030   13.6500 P.3   166  C166        0.2141
   3561  C5'       36.3620    5.1620   14.9250 C.3   166  C166        0.1812
   3562  O5'       35.1030    4.5020   14.9810 O.3   166  C166       -0.3114
   3563  C4'       36.7460    5.6700   16.3000 C.3   166  C166        0.1773
   3564  O4'       35.7650    6.6230   16.7820 O.3   166  C166       -0.3307
   3565  C3'       36.7680    4.6000   17.3780 C.3   166  C166        0.1860
   3566  O3'       37.9700    3.8570   17.3030 O.3   166  C166       -0.3112
   3567  C2'       36.6730    5.4540   18.6380 C.3   166  C166        0.2309
   3568  O2'       37.8960    6.0550   19.0180 O.3   166  C166       -0.2156
   3569  C1'       35.6760    6.5220   18.1940 C.3   166  C166        0.2420
   3570  N1        34.2780    6.2000   18.6340 N.ar  166  C166       -0.2535
   3571  C2        33.9170    6.4380   19.9720 C.ar  166  C166        0.3532
   3572  O2        34.7620    6.9150   20.7480 O.2   166  C166       -0.2443
   3573  N3        32.6490    6.1400   20.3750 N.ar  166  C166       -0.1739
   3574  C4        31.7650    5.6200   19.5100 C.ar  166  C166        0.1759
   3575  N4        30.5290    5.3420   19.9480 N.pl3 166  C166       -0.1070
   3576  C5        32.1150    5.3700   18.1470 C.ar  166  C166        0.0566
   3577  C6        33.3670    5.6680   17.7590 C.ar  166  C166        0.0850
   3578  OP1       35.3240    3.2900   12.7700 O.2   166  C166       -0.5172
   3579  OP2       33.1280    3.3320   14.1070 O.co2 166  C166       -0.4373
   3580  P         38.0360    2.3280   17.7680 P.3   167  C167        0.2141
   3581  C5'       39.1040    3.0100   20.0690 C.3   167  C167        0.1812
   3582  O5'       38.0040    2.4550   19.3570 O.3   167  C167       -0.3114
   3583  C4'       38.7470    3.1280   21.5350 C.3   167  C167        0.1773
   3584  O4'       37.6000    3.9950   21.7050 O.3   167  C167       -0.3307
   3585  C3'       38.2550    1.8340   22.1430 C.3   167  C167        0.1860
   3586  O3'       39.3420    0.9960   22.4410 O.3   167  C167       -0.3112
   3587  C2'       37.5620    2.3490   23.3890 C.3   167  C167        0.2309
   3588  O2'       38.4560    2.7750   24.3950 O.3   167  C167       -0.2156
   3589  C1'       36.8320    3.5550   22.8150 C.3   167  C167        0.2420
   3590  N1        35.3990    3.2600   22.4290 N.ar  167  C167       -0.2535
   3591  C2        34.4170    3.1630   23.4300 C.ar  167  C167        0.3532
   3592  O2        34.7180    3.3240   24.6160 O.2   167  C167       -0.2443
   3593  N3        33.1340    2.9040   23.0760 N.ar  167  C167       -0.1739
   3594  C4        32.8090    2.7330   21.7960 C.ar  167  C167        0.1759
   3595  N4        31.5280    2.4780   21.5170 N.pl3 167  C167       -0.1070
   3596  C5        33.7880    2.8170   20.7590 C.ar  167  C167        0.0566
   3597  C6        35.0510    3.0770   21.1170 C.ar  167  C167        0.0850
   3598  OP1       39.3480    1.7920   17.3300 O.2   167  C167       -0.5172
   3599  OP2       36.7840    1.6520   17.3560 O.co2 167  C167       -0.4373
   3600  P         39.1930   -0.5690   22.1670 P.3   168  G168        0.2141
   3601  C5'       38.2590   -1.5480   24.4070 C.3   168  G168        0.1812
   3602  O5'       37.9910   -0.9820   23.1430 O.3   168  G168       -0.3114
   3603  C4'       37.0870   -1.4010   25.3490 C.3   168  G168        0.1773
   3604  O4'       36.1800   -0.3640   24.9230 O.3   168  G168       -0.3307
   3605  C3'       36.1730   -2.5980   25.4610 C.3   168  G168        0.1860
   3606  O3'       36.8070   -3.5920   26.2270 O.3   168  G168       -0.3112
   3607  C2'       35.0190   -1.9580   26.2130 C.3   168  G168        0.2309
   3608  O2'       35.3050   -1.7390   27.5790 O.3   168  G168       -0.2156
   3609  C1'       34.9090   -0.6180   25.4910 C.3   168  G168        0.2408
   3610  N1        29.9350   -1.0230   24.2520 N.ar  168  G168       -0.1709
   3611  C2        30.5300   -1.1470   25.4860 C.ar  168  G168        0.2606
   3612  N2        29.7060   -1.4060   26.5080 N.pl3 168  G168       -0.0859
   3613  N3        31.8390   -1.0220   25.7050 N.ar  168  G168       -0.1918
   3614  C4        32.5270   -0.7600   24.5600 C.ar  168  G168        0.1723
   3615  C5        32.0160   -0.6220   23.2850 C.ar  168  G168        0.1748
   3616  C6        30.6210   -0.7550   23.0720 C.ar  168  G168        0.3023
   3617  O6        29.9960   -0.6640   22.0070 O.2   168  G168       -0.2633
   3618  N7        33.0300   -0.3590   22.3760 N.ar  168  G168       -0.2173
   3619  C8        34.1150   -0.3440   23.1010 C.ar  168  G168        0.1817
   3620  N9        33.8940   -0.5790   24.4360 N.ar  168  G168       -0.2693
   3621  OP1       40.4730   -1.1870   22.5790 O.3   168  G168       -0.4373
   3622  OP2       38.6630   -0.7750   20.8020 O.co2 168  G168       -0.5172
   3623  P         36.6940   -5.1210   25.7830 P.3   169  U169        0.2141
   3624  C5'       35.1130   -5.4030   27.8400 C.3   169  U169        0.1812
   3625  O5'       35.3160   -5.5530   26.4460 O.3   169  U169       -0.3114
   3626  C4'       33.6570   -5.6670   28.1390 C.3   169  U169        0.1773
   3627  O4'       32.8620   -4.5750   27.6270 O.3   169  U169       -0.3307
   3628  C3'       33.0790   -6.8540   27.3950 C.3   169  U169        0.1860
   3629  O3'       33.4590   -8.0560   28.0220 O.3   169  U169       -0.3112
   3630  C2'       31.5940   -6.5560   27.5270 C.3   169  U169        0.2309
   3631  O2'       31.1240   -6.7990   28.8330 O.3   169  U169       -0.2156
   3632  C1'       31.5850   -5.0610   27.2530 C.3   169  U169        0.2420
   3633  N1        31.2890   -4.7160   25.8180 N.ar  169  U169       -0.2534
   3634  C2        29.9660   -4.6360   25.4080 C.ar  169  U169        0.3546
   3635  O2        29.0210   -4.8400   26.1500 O.2   169  U169       -0.2443
   3636  N3        29.7810   -4.3170   24.0830 N.ar  169  U169       -0.1530
   3637  C4        30.7730   -4.0710   23.1500 C.ar  169  U169        0.2846
   3638  O4        30.4590   -3.7970   22.0020 O.2   169  U169       -0.2650
   3639  C5        32.1270   -4.1650   23.6400 C.ar  169  U169        0.0814
   3640  C6        32.3280   -4.4770   24.9280 C.ar  169  U169        0.0870
   3641  OP1       37.7930   -5.8550   26.4460 O.3   169  U169       -0.4373
   3642  OP2       36.5250   -5.1840   24.3100 O.co2 169  U169       -0.5172
   3643  P         33.6190   -9.3730   27.1410 P.3   170  C170        0.2141
   3644  C5'       31.4760  -10.0860   25.7380 C.3   170  C170        0.1812
   3645  O5'       32.1020   -9.8590   27.0010 O.3   170  C170       -0.3114
   3646  C4'       29.9760   -9.9720   25.9200 C.3   170  C170        0.1773
   3647  O4'       29.5880   -8.5740   25.8090 O.3   170  C170       -0.3307
   3648  C3'       29.1260  -10.6860   24.8810 C.3   170  C170        0.1860
   3649  O3'       28.9240  -12.0500   25.2230 O.3   170  C170       -0.3112
   3650  C2'       27.8480   -9.8490   24.9430 C.3   170  C170        0.2309
   3651  O2'       27.0740  -10.0710   26.1020 O.3   170  C170       -0.2156
   3652  C1'       28.4360   -8.4440   25.0000 C.3   170  C170        0.2420
   3653  N1        28.7870   -7.8640   23.6460 N.ar  170  C170       -0.2535
   3654  C2        27.7600   -7.4630   22.7680 C.ar  170  C170        0.3532
   3655  O2        26.5770   -7.5800   23.1020 O.2   170  C170       -0.2443
   3656  N3        28.0860   -6.9430   21.5510 N.ar  170  C170       -0.1739
   3657  C4        29.3650   -6.8140   21.1850 C.ar  170  C170        0.1759
   3658  N4        29.6100   -6.2990   19.9790 N.pl3 170  C170       -0.1070
   3659  C5        30.4330   -7.2180   22.0500 C.ar  170  C170        0.0566
   3660  C6        30.0990   -7.7250   23.2530 C.ar  170  C170        0.0850
   3661  OP1       34.3710  -10.3500   27.9570 O.3   170  C170       -0.4373
   3662  OP2       34.1220   -9.0090   25.7940 O.co2 170  C170       -0.5172
   3663  P         28.6920  -13.1590   24.0880 P.3   171  G171        0.2141
   3664  C5'       26.0660  -13.1740   24.2250 C.3   171  G171        0.1812
   3665  O5'       27.2430  -12.8010   23.5070 O.3   171  G171       -0.3114
   3666  C4'       24.7990  -12.8050   23.4730 C.3   171  G171        0.1773
   3667  O4'       24.7670  -11.3700   23.2540 O.3   171  G171       -0.3307
   3668  C3'       24.6510  -13.3800   22.0700 C.3   171  G171        0.1860
   3669  O3'       24.1250  -14.6930   22.0930 O.3   171  G171       -0.3112
   3670  C2'       23.6660  -12.3950   21.4560 C.3   171  G171        0.2309
   3671  O2'       22.3520  -12.5550   21.9520 O.3   171  G171       -0.2156
   3672  C1'       24.2510  -11.0890   21.9620 C.3   171  G171        0.2408
   3673  N1        25.3290   -8.6780   17.5970 N.ar  171  G171       -0.1709
   3674  C2        24.1110   -9.0570   18.1040 C.ar  171  G171        0.2606
   3675  N2        23.0400   -8.7610   17.3570 N.pl3 171  G171       -0.0859
   3676  N3        23.9550   -9.6870   19.2630 N.ar  171  G171       -0.1918
   3677  C4        25.1370   -9.9150   19.8880 C.ar  171  G171        0.1723
   3678  C5        26.4020   -9.5750   19.4640 C.ar  171  G171        0.1748
   3679  C6        26.5520   -8.9030   18.2290 C.ar  171  G171        0.3023
   3680  O6        27.5960   -8.5220   17.6870 O.2   171  G171       -0.2633
   3681  N7        27.3580   -9.9770   20.3870 N.ar  171  G171       -0.2173
   3682  C8        26.6640  -10.5400   21.3350 C.ar  171  G171        0.1817
   3683  N9        25.3060  -10.5430   21.1030 N.ar  171  G171       -0.2693
   3684  OP1       28.6290  -14.4780   24.7560 O.3   171  G171       -0.4373
   3685  OP2       29.6880  -12.9310   23.0180 O.co2 171  G171       -0.5172
   3686  P         24.6550  -15.7790   21.0460 P.3   172  G172        0.2141
   3687  C5'       22.5330  -15.3290   19.5760 C.3   172  G172        0.1812
   3688  O5'       23.9590  -15.3450   19.6710 O.3   172  G172       -0.3114
   3689  C4'       22.0300  -14.5170   18.3910 C.3   172  G172        0.1773
   3690  O4'       22.4460  -13.1270   18.4660 O.3   172  G172       -0.3307
   3691  C3'       22.5450  -14.9800   17.0410 C.3   172  G172        0.1860
   3692  O3'       21.8230  -16.1160   16.6100 O.3   172  G172       -0.3112
   3693  C2'       22.2690  -13.7460   16.1930 C.3   172  G172        0.2309
   3694  O2'       20.9040  -13.5900   15.8580 O.3   172  G172       -0.2156
   3695  C1'       22.7180  -12.6490   17.1530 C.3   172  G172        0.2408
   3696  N1        26.3060  -10.3940   14.2760 N.ar  172  G172       -0.1709
   3697  C2        24.9540  -10.5030   14.0470 C.ar  172  G172        0.2606
   3698  N2        24.4980   -9.9440   12.9210 N.pl3 172  G172       -0.0859
   3699  N3        24.1090  -11.1140   14.8730 N.ar  172  G172       -0.1918
   3700  C4        24.7310  -11.6250   15.9680 C.ar  172  G172        0.1723
   3701  C5        26.0740  -11.5670   16.2800 C.ar  172  G172        0.1748
   3702  C6        26.9630  -10.9080   15.3960 C.ar  172  G172        0.3023
   3703  O6        28.1890  -10.7700   15.5170 O.2   172  G172       -0.2633
   3704  N7        26.3330  -12.2060   17.4820 N.ar  172  G172       -0.2173
   3705  C8        25.1640  -12.6310   17.8680 C.ar  172  G172        0.1817
   3706  N9        24.1390  -12.3140   17.0050 N.ar  172  G172       -0.2693
   3707  OP1       24.1220  -17.0900   21.4730 O.3   172  G172       -0.4373
   3708  OP2       26.1190  -15.5970   20.8950 O.co2 172  G172       -0.5172
   3709  P         22.5570  -17.2640   15.7700 P.3   173  U173        0.2141
   3710  C5'       22.0010  -16.1680   13.4270 C.3   173  U173        0.1813
   3711  O5'       22.9720  -16.5280   14.4070 O.3   173  U173       -0.3114
   3712  C4'       22.5980  -15.2330   12.3930 C.3   173  U173        0.1801
   3713  O4'       23.2590  -14.1370   13.0700 O.3   173  U173       -0.3306
   3714  C3'       23.6910  -15.8340   11.5230 C.3   173  U173        0.2161
   3715  O3'       23.1410  -16.5450   10.4280 O.3   173  U173       -0.2175
   3716  C2'       24.4470  -14.5910   11.0680 C.3   173  U173        0.2338
   3717  O2'       23.8320  -13.9160    9.9840 O.3   173  U173       -0.2155
   3718  C1'       24.3970  -13.7280   12.3280 C.3   173  U173        0.2421
   3719  N1        25.6430  -13.8200   13.1720 N.ar  173  U173       -0.2534
   3720  C2        26.7950  -13.1570   12.7650 C.ar  173  U173        0.3546
   3721  O2        26.8760  -12.4880   11.7500 O.2   173  U173       -0.2443
   3722  N3        27.8750  -13.3040   13.6040 N.ar  173  U173       -0.1530
   3723  C4        27.9210  -14.0320   14.7820 C.ar  173  U173        0.2846
   3724  O4        28.9620  -14.0690   15.4260 O.2   173  U173       -0.2650
   3725  C5        26.6910  -14.6950   15.1440 C.ar  173  U173        0.0814
   3726  C6        25.6240  -14.5650   14.3440 C.ar  173  U173        0.0870
   3727  OP1       21.5400  -18.3010   15.4740 O.2   173  U173       -0.5172
   3728  OP2       23.8120  -17.6270   16.4650 O.co2 173  U173       -0.4373
@<TRIPOS>BOND
     1  1040  1019    2
     2  1003  1019    1
     3  1003  1002    1
     4  1019  1041    1
     5  1019  1021    1
     6  1017   997    2
     7  1020  1021    1
     8  1020  1022    1
     9   998  1000    1
    10   998   999    1
    11  1063  1042    2
    12  1000  1002    1
    13  1000  1001    1
    14  1005  1004    1
    15  1002  1004    1
    16   861   843    2
    17   980   997    1
    18   980   979    1
    19  1025  1042    1
    20  1025  1024    1
    21   982   981    1
    22  1022  1024    1
    23  1022  1023    1
    24   997   999    1
    25   997  1018    1
    26  1042  1064    1
    27  1042  1044    1
    28  1004  1006    1
    29  1001  1006    1
    30   881   863    2
    31   862   843    1
    32   845   843    1
    33   845   844    1
    34   843   827    1
    35  1024  1026    1
    36   977   979    1
    37   977   975    1
    38   977   978    1
    39   979   981    1
    40  1023  1028    1
    41  1006  1016    1
    42   981   983    1
    43   975   976    1
    44   844   846    1
    45  1044  1043    1
    46   882   863    1
    47   863   849    1
    48   863   865    1
    49  1027  1026    1
    50   841   821    2
    51   848   846    1
    52   848   849    1
    53   848   850    1
    54   995   974    2
    55  1026  1028    1
    56   978   983    1
    57   827   826    1
    58   983   994    1
    59  1028  1039    1
    60   826   824    1
    61   826   828    1
    62   846   847    1
    63  1016  1015   ar
    64  1016  1010   ar
    65   850   851    1
    66   850   852    1
    67   823   822    1
    68   823   821    1
    69  1043  1045    1
    70   976   974    1
    71   822   824    1
    72   865   864    1
    73  1015  1014   ar
    74  1038  1039   ar
    75  1038  1037   ar
    76   959   958    1
    77   821   842    1
    78   821   807    1
    79   829   828    1
    80   974   957    1
    81   974   996    1
    82  2138  2137    1
    83   824   825    1
    84   828   830    1
    85  1039  1033   ar
    86   987   988   ar
    87   987   985   ar
    88   957   956    1
    89  1010  1009   ar
    90  1010  1011   ar
    91   994   988   ar
    92   994   993   ar
    93   847   852    1
    94   986   985    1
    95  1009  1008   ar
    96  1037  1034   ar
    97  1045  1046    1
    98  1045  1047    1
    99   852   853    1
   100  1085  1065    2
   101   958   956    1
   102   958   960    1
   103  1014  1011   ar
   104   988   989   ar
   105   985   984   ar
   106   963   962    1
   107   807   806    1
   108   864   866    1
   109  1086  1065    1
   110  2139  2134    1
   111  2139  2137    1
   112  2139  2140    1
   113  2134  2133    1
   114  2142  2141    2
   115  2137  2135    1
   116  2158  2157    1
   117  1011  1012   ar
   118  1046  1051    1
   119   825   830    1
   120   956   954    1
   121   860   853   ar
   122   860   859   ar
   123  1033  1034   ar
   124  1033  1032   ar
   125  1048  1065    1
   126  1048  1047    1
   127  2133  2135    1
   128  2133  2131    1
   129   993   992   ar
   130  1065  1067    1
   131   830   840    1
   132  2153  2151    1
   133  2153  2154    1
   134  2153  2155    1
   135   853   854   ar
   136  2151  2152    1
   137  2154  2159    1
   138  1047  1049    1
   139  2118  2117    1
   140   866   867    1
   141   866   868    1
   142  1008  1007   ar
   143   964   962   ar
   144   964   965   ar
   145  1034  1035   ar
   146  2122  2121    2
   147   962   961   ar
   148  2136  2135    1
   149  2136  2150    1
   150   867   872    1
   151   960   955    1
   152   960   971    1
   153  1061  1060   ar
   154  1061  1062   ar
   155   859   857   ar
   156   954   955    1
   157   954   952    1
   158   819   801    2
   159   989   992   ar
   160   989   990   ar
   161  1032  1030   ar
   162  2159  2157    1
   163  2159  2160    1
   164  2131  2132    1
   165   984   990   ar
   166  2141  2140   ar
   167  2141  2143   ar
   168  2140  2147   ar
   169   806   804    1
   170   806   808    1
   171  2157  2155    1
   172   840   839   ar
   173   840   834   ar
   174   854   855    2
   175   854   856   ar
   176  1898  1877    2
   177  2156  2155    1
   178  2156  2170    1
   179   839   838   ar
   180   809   808    1
   181  1012  1007   ar
   182  1012  1013    1
   183  1060  1057   ar
   184  2168  2150    2
   185  1051  1049    1
   186  1051  1062    1
   187  2152  2150    1
   188  1918  1900    2
   189   965   971   ar
   190   965   966   ar
   191  2117  2119    1
   192  2117  2115    1
   193   802   804    1
   194   802   803    1
   195   990   991    2
   196   872   873    1
   197   872   870    1
   198   971   970   ar
   199   961   967   ar
   200  2119  2114    1
   201  2119  2120    1
   202  2121  2123   ar
   203  2121  2120   ar
   204  1049  1050    1
   205  2150  2169    1
   206  1067  1066    1
   207  1062  1056   ar
   208   869   868    1
   209   869   883    1
   210   804   805    1
   211  1878  1880    1
   212  1878  1879    1
   213   808   810    1
   214   857   856   ar
   215   857   858    2
   216   868   870    1
   217  1035  1036    2
   218  1035  1029   ar
   219   952   953    1
   220  1124  1123    2
   221  2143  2144   ar
   222   803   801    1
   223  2191  2170    2
   224  1863  1877    1
   225  1863  1862    1
   226   904   883    2
   227  2147  2146   ar
   228   801   820    1
   229   801   787    1
   230   903   883    1
   231   880   873   ar
   232   880   879   ar
   233  1030  1029   ar
   234  1030  1031    1
   235  2132  2130    1
   236  2160  2167   ar
   237  2160  2161   ar
   238  1865  1864    1
   239   834   833   ar
   240   834   835   ar
   241   873   874   ar
   242   838   835   ar
   243  2123  2124   ar
   244  1883  1900    1
   245  1883  1882    1
   246  1066  1068    1
   247  2171  2172    1
   248  2171  2173    1
   249  2114  2113    1
   250  2162  2161    2
   251  2120  2127   ar
   252  1877  1879    1
   253  1877  1899    1
   254  1880  1882    1
   255  1880  1881    1
   256   883   885    1
   257  2170  2172    1
   258  2170  2192    1
   259   833   832   ar
   260   966   967   ar
   261   966   969   ar
   262   870   871    1
   263  2389  2388    1
   264   879   877   ar
   265  2102  2101    2
   266  1123  1122   ar
   267  1123  1125   ar
   268  1900  1919    1
   269  1900  1902    1
   270  2938  2920    2
   271  1057  1056   ar
   272  1057  1058   ar
   273  2167  2166   ar
   274  2384  2382    1
   275  2384  2385    1
   276  2384  2386    1
   277  2116  2115    1
   278  2116  2130    1
   279   967   968    2
   280  1108  1087    2
   281  1860  1858    1
   282  1860  1862    1
   283  1860  1861    1
   284   953   951    1
   285  2113  2115    1
   286  2113  2111    1
   287   874   875    2
   288   874   876   ar
   289  1122  1120   ar
   290   970   969   ar
   291  2161  2163   ar
   292   835   836   ar
   293  2382  2383    1
   294  1858  1859    1
   295  1056  1055   ar
   296  2144  2146   ar
   297  2144  2145    1
   298  2387  2386    1
   299  2387  2401    1
   300  2419  2401    2
   301  2173  2174    1
   302  2173  2175    1
   303  1862  1864    1
   304   922   921    2
   305  2385  2390    1
   306   805   810    1
   307   787   786    1
   308   972   951    2
   309  1882  1884    1
   310   810   811    1
   311  2174  2179    1
   312  1103  1102    1
   313   877   876   ar
   314   877   878    1
   315  2148  2130    2
   316  2904  2920    1
   317  2904  2903    1
   318  2130  2149    1
   319  2899  2901    1
   320  2899  2900    1
   321  1881  1886    1
   322  1864  1866    1
   323  1125  1126   ar
   324  3468  3447    2
   325  2901  2903    1
   326  2901  2902    1
   327  1885  1884    1
   328  2383  2381    1
   329  2906  2905    1
   330   940   939    1
   331  2124  2125    1
   332  2124  2126   ar
   333  1120  1121    2
   334  1120  1119   ar
   335  2386  2388    1
   336   832   831   ar
   337  1901  1902    1
   338  1901  1903    1
   339  1875  1857    2
   340  2921  2922    1
   341  2921  2923    1
   342  2127  2126   ar
   343  2400  2381    2
   344  1059  1058    2
   345  1861  1866    1
   346  2101  2103   ar
   347  2101  2100   ar
   348  2388  2390    1
   349  1058  1052   ar
   350  2390  2391    1
   351  1082  1083   ar
   352  1082  1079   ar
   353  2920  2922    1
   354  2920  2939    1
   355  1117  1116    1
   356  2918  2898    2
   357   951   973    1
   358   951   934    1
   359  1083  1084   ar
   360  2103  2104   ar
   361  1068  1069    1
   362  1068  1070    1
   363  2166  2164   ar
   364  2886  2885    1
   365  3490  3470    2
   366  2401  2403    1
   367  2401  2420    1
   368   885   884    1
   369  3425  3427    1
   370  3425  3426    1
   371   836   831   ar
   372   836   837    1
   373  2163  2164   ar
   374  2402  2403    1
   375  2402  2404    1
   376  3430  3447    1
   377  3430  3429    1
   378  1087  1107    1
   379  1087  1071    1
   380  1087  1089    1
   381  2098  2097    1
   382   921   915   ar
   383   921   920   ar
   384  2111  2112    1
   385  3445  3424    2
   386  1884  1886    1
   387  1055  1053   ar
   388   811   818   ar
   389   811   812   ar
   390  1104  1101   ar
   391  1104  1105   ar
   392  1859  1857    1
   393  2903  2905    1
   394  1126  1119   ar
   395  3448  3450    1
   396  3448  3449    1
   397  1842  1841    1
   398  2606  2605    1
   399  1866  1867    1
   400  3412  3411    1
   401  2902  2907    1
   402  1119  1118    1
   403  3427  3429    1
   404  3427  3428    1
   405   813   812    2
   406  1069  1074    1
   407  1070  1071    1
   408  1070  1072    1
   409   915   916   ar
   410  3432  3431    1
   411  2179  2177    1
   412  2179  2190    1
   413  1102  1101   ar
   414  1102  1097   ar
   415  1886  1897    1
   416   789   788    1
   417  2381  2399    1
   418  2381  2364    1
   419  1116  1118    1
   420  1116  1114    1
   421   818   817   ar
   422  2164  2165    1
   423  2175  2176    1
   424  2175  2177    1
   425   786   788    1
   426   786   784    1
   427  2923  2924    1
   428  2923  2925    1
   429  3447  3449    1
   430  3447  3469    1
   431   939   938   ar
   432   939   941   ar
   433  2905  2907    1
   434  2884  2898    1
   435  2884  2883    1
   436  2900  2898    1
   437  2176  2193    1
   438   812   814   ar
   439   927   905    2
   440  1857  1840    1
   441  1857  1876    1
   442   884   886    1
   443   936   935    1
   444  2619  2621    1
   445  2619  2620    1
   446  2097  2099    1
   447  2097  2095    1
   448  1940  1920    2
   449  2178  2177    1
   450  1840  1839    1
   451  3410  3424    1
   452  3410  3409    1
   453  1101  1100   ar
   454  2639  2618    2
   455  2898  2919    1
   456  3453  3470    1
   457  3453  3452    1
   458  3450  3452    1
   459  3450  3451    1
   460  3115  3114    1
   461  1161  1160    1
   462  2099  2100    1
   463  2099  2094    1
   464  2100  2107   ar
   465   934   933    1
   466   923   920   ar
   467   923   924   ar
   468   920   919   ar
   469  2105  2104    2
   470  3429  3431    1
   471  1903  1904    1
   472  1903  1905    1
   473  2958  2940    2
   474  2404  2405    1
   475  2404  2406    1
   476  2189  2190   ar
   477  2189  2188   ar
   478  1052  1053   ar
   479  2104  2106   ar
   480   788   790    1
   481  2907  2917    1
   482  1105  1106   ar
   483   938   944   ar
   484   941   942   ar
   485  1084  1074    1
   486  1084  1078   ar
   487  2604  2618    1
   488  2604  2603    1
   489  2621  2622    1
   490  2621  2623    1
   491  3470  3491    1
   492  3470  3472    1
   493  1118  1113    1
   494  1053  1054    1
   495  2112  2110    1
   496  1079  1080   ar
   497  1079  1078   ar
   498  3426  3424    1
   499  2926  2925    1
   500  2926  2940    1
   501  1089  1088    1
   502  3424  3446    1
   503  1081  1080    1
   504  2190  2184   ar
   505  2391  2398   ar
   506  2391  2392   ar
   507  2370  2369    1
   508  1941  1920    1
   509  3428  3433    1
   510  2885  2883    1
   511  2885  2887    1
   512  2924  2929    1
   513   817   815   ar
   514   935   933    1
   515   935   937    1
   516  3128  3130    1
   517  3128  3129    1
   518  1841  1839    1
   519  1841  1843    1
   520  1159  1160   ar
   521  1159  1165   ar
   522  2211  2193    2
   523  1184  1183    1
   524  1906  1920    1
   525  1906  1905    1
   526   784   782    1
   527   784   785    1
   528  2881  2883    1
   529  2881  2882    1
   530  2881  2879    1
   531  1097  1098   ar
   532  1074  1072    1
   533   799   781    2
   534  3525  3526   ar
   535  3525  3530   ar
   536  3431  3433    1
   537  3130  3131    1
   538  3130  3132    1
   539   782   783    1
   540  3531  3530    1
   541  2085  2084    1
   542   814   815   ar
   543  1128  1109    2
   544   916   917    1
   545   916   918   ar
   546  2083  2084   ar
   547  2083  2081   ar
   548  2405  2410    1
   549  2601  2603    1
   550  2601  2602    1
   551  2601  2599    1
   552  1920  1922    1
   553  3135  3134    1
   554  2626  2625    1
   555  2605  2603    1
   556  2605  2607    1
   557  3411  3409    1
   558  3411  3413    1
   559  1114  1115    1
   560  1114  1112    1
   561  1160  1162   ar
   562  2398  2397   ar
   563  2364  2363    1
   564  2082  2081    2
   565   888   890    1
   566   888   886    1
   567   888   889    1
   568  2925  2927    1
   569  1846  1845    1
   570  2624  2623    1
   571  2624  2641    1
   572  1867  1874   ar
   573  1867  1868   ar
   574  3407  3409    1
   575  3407  3405    1
   576  3407  3408    1
   577  1897  1896   ar
   578  1897  1891   ar
   579  2193  2212    1
   580  2193  2195    1
   581  3452  3454    1
   582  1166  1165    2
   583  1072  1073    1
   584  2622  2627    1
   585  2393  2392    2
   586  2618  2620    1
   587  2618  2640    1
   588  2940  2959    1
   589  2940  2942    1
   590  1896  1895   ar
   591  1080  1075   ar
   592  2662  2641    2
   593  2188  2185   ar
   594   815   816    1
   595  1904  1909    1
   596  3451  3456    1
   597   933   931    1
   598  1905  1907    1
   599  1115  1129    1
   600  1839  1837    1
   601  3148  3127    2
   602  3131  3136    1
   603  1869  1868    2
   604  2407  2406    1
   605  2407  2421    1
   606  1078  1077   ar
   607  2439  2421    2
   608   890   891    1
   609   890   892    1
   610   886   887    1
   611  3113  3112    1
   612  3113  3127    1
   613   924   925   ar
   614   919   918   ar
   615   919   925   ar
   616  1165  1164   ar
   617  3433  3444    1
   618  2882  2887    1
   619  2602  2607    1
   620  2887  2888    1
   621  2879  2880    1
   622  3133  3132    1
   623  3133  3150    1
   624  2346  2345    1
   625  2928  2927    1
   626   942   943   ar
   627   942   948   ar
   628  3526  3527   ar
   629  3530  3529   ar
   630   944   945    2
   631   944   943   ar
   632   783   781    1
   633  2094  2093    1
   634   905   889    1
   635   905   926    1
   636   905   907    1
   637  2392  2394   ar
   638  2107  2106   ar
   639  1147  1129    2
   640    32    31    1
   641  2607  2608    1
   642  2065  2064    1
   643  3110  3112    1
   644  3110  3111    1
   645  3110  3108    1
   646  2623  2625    1
   647  2599  2600    1
   648  1100  1106   ar
   649  1100  1099   ar
   650  2084  2086   ar
   651  2406  2408    1
   652  2081  2080   ar
   653  3471  3472    1
   654  3471  3473    1
   655  1183  1182   ar
   656  1183  1185   ar
   657  3405  3406    1
   658  3114  3112    1
   659  3114  3116    1
   660  2095  2096    1
   661  2095  2093    1
   662  2184  2185   ar
   663  2184  2183   ar
   664  1106  1096    1
   665  1874  1873   ar
   666  3171  3150    2
   667  1113  1112    1
   668  1847  1845   ar
   669  1847  1848   ar
   670  1868  1870   ar
   671  3455  3454    1
   672  1111  1109    1
   673  1111  1110    1
   674  2369  2371   ar
   675  2369  2368   ar
   676   901   900   ar
   677   901   902   ar
   678  3408  3413    1
   679  2096  2110    1
   680  2917  2916   ar
   681  2917  2911   ar
   682  3413  3414    1
   683  1162  1163   ar
   684  2584  2583    1
   685   790   785    1
   686   790   791    1
   687  1843  1838    1
   688  1843  1854    1
   689  1088  1090    1
   690  3132  3134    1
   691  1837  1838    1
   692  1837  1835    1
   693  2625  2627    1
   694   781   800    1
   695   781   767    1
   696  2929  2927    1
   697  2929  2930    1
   698  2363  2365    1
   699  2363  2361    1
   700  3129  3127    1
   701  1182  1188   ar
   702  1845  1844   ar
   703  2110  2128    2
   704  2110  2129    1
   705   937   948    1
   706   937   932    1
   707   887   892    1
   708  2627  2638    1
   709  3111  3116    1
   710  3134  3136    1
   711   925   914    1
   712   943   946   ar
   713  2641  2643    1
   714  2641  2663    1
   715  3136  3147    1
   716  2185  2186   ar
   717  2421  2440    1
   718  2421  2423    1
   719  1098  1099   ar
   720  3127  3149    1
   721  1129  1148    1
   722  1129  1131    1
   723  2642  2643    1
   724  2642  2644    1
   725  1185  1186   ar
   726  2045  2044    2
   727  1109  1127    1
   728  1109  1093    1
   729  3116  3117    1
   730  2409  2408    1
   731  3454  3456    1
   732  1112  1110    1
   733  3108  3109    1
   734  2890  2889    2
   735   948   947   ar
   736  2410  2408    1
   737  2410  2411    1
   738  2093  2091    1
   739  2397  2395   ar
   740  2183  2181   ar
   741  1164  1163   ar
   742  1164  1167   ar
   743  2371  2372   ar
   744   900   897   ar
   745   907   906    1
   746  1891  1890   ar
   747  1891  1892   ar
   748  2610  2609    2
   749  1207  1206    1
   750   793   792    2
   751  3456  3467    1
   752  2043  2044   ar
   753  2043  2041   ar
   754  1895  1892   ar
   755  2916  2915   ar
   756  2368  2374   ar
   757   892   902    1
   758  2195  2194    1
   759  1163  1169   ar
   760  3150  3172    1
   761  3150  3152    1
   762  2379  2358    2
   763  1917  1916   ar
   764  1917  1910   ar
   765  1922  1921    1
   766   931   932    1
   767   931   929    1
   768  1075  1076   ar
   769  1092  1090    1
   770  1092  1093    1
   771  1092  1094    1
   772  1907  1909    1
   773  1907  1908    1
   774  1909  1910    1
   775  2864  2863    1
   776  3416  3415    2
   777  2942  2941    1
   778  2042  2041    2
   779  1077  1076   ar
   780   791   792   ar
   781   791   798   ar
   782  2194  2196    1
   783  2344  2343    1
   784  2344  2358    1
   785  2941  2943    1
   786   913   912    1
   787  3527  3528   ar
   788   902   896   ar
   789  1890  1888   ar
   790  2937  2930   ar
   791  2937  2936   ar
   792  2064  2063   ar
   793  2064  2066   ar
   794  2359  2361    1
   795  2359  2360    1
   796  2365  2366    1
   797  2365  2367    1
   798  2063  2061   ar
   799  2394  2395   ar
   800  2044  2046   ar
   801   912   914    1
   802   912   910    1
   803  1091  1090    1
   804  1091  1096    1
   805  1203  1202    1
   806  3529  3528   ar
   807  3529  3532   ar
   808  2910  2911   ar
   809  2910  2909   ar
   810  3444  3443   ar
   811  3444  3438   ar
   812  2880  2878    1
   813  1848  1854   ar
   814  1848  1849   ar
   815  3093  3092    1
   816   792   794   ar
   817  2888  2889   ar
   818  2888  2895   ar
   819  2345  2347    1
   820  2345  2343    1
   821    48    50    1
   822    48    49    1
   823  2911  2912   ar
   824  2418  2411   ar
   825  2418  2417   ar
   826  1188  1189    2
   827  1188  1187   ar
   828  3119  3118    2
   829  3389  3388    1
   830  1096  1094    1
   831  1854  1853   ar
   832  1823  1822    1
   833    31    33    1
   834    31    29    1
   835  2644  2645    1
   836  2644  2646    1
   837  3151  3152    1
   838  3151  3153    1
   839  3406  3404    1
   840  1186  1187   ar
   841  1186  1192   ar
   842  1835  1836    1
   843  2608  2609   ar
   844  2608  2615   ar
   845  2600  2598    1
   846  3473  3475    1
   847  3473  3474    1
   848  1208  1206   ar
   849  1208  1209   ar
   850  2080  2087   ar
   851  2080  2079    1
   852  2086  2087   ar
   853  1873  1871   ar
   854  2361  2362    1
   855  2930  2931   ar
   856  2041  2040   ar
   857  3422  3404    2
   858    50    51    1
   859    50    52    1
   860  1206  1205   ar
   861  2896  2878    2
   862   946   947   ar
   863  1916  1914   ar
   864  2889  2891   ar
   865  3393  3392    1
   866  1870  1871   ar
   867   767   766    1
   868  1167  1168   ar
   869    30    29    1
   870    30    47    1
   871  2395  2396    1
   872  2341  2342    1
   873  2341  2343    1
   874  2341  2339    1
   875  1921  1923    1
   876  2186  2187    2
   877  2186  2180   ar
   878  1892  1893   ar
   879   914   909    1
   880  1844  1850   ar
   881   798   797   ar
   882  1094  1095    1
   883  2609  2611   ar
   884  1910  1911   ar
   885  2411  2412   ar
   886  2583  2585    1
   887  2583  2581    1
   888  3414  3415   ar
   889  3414  3421   ar
   890    27    28    1
   891    27    29    1
   892    27    25    1
   893  2347  2342    1
   894  2347  2348    1
   895    33    28    1
   896    33    44    1
   897  1204  1199    1
   898  1204  1202    1
   899  1204  1215    1
   900  2181  2180   ar
   901  2181  2182    1
   902  2588  2587   ar
   903  2588  2589   ar
   904  3528  3534   ar
   905    65    47    2
   906  2980  2960    2
   907  3443  3442   ar
   908  2638  2637   ar
   909  2638  2632   ar
   910  1187  1190   ar
   911  2587  2586   ar
   912  3147  3146   ar
   913  3147  3141   ar
   914  2350  2349    2
   915  1180  1179    1
   916  1169  1168   ar
   917  1169  1158    1
   918  2645  2650    1
   919  2358  2360    1
   920  2358  2380    1
   921  3415  3417   ar
   922    51    56    1
   923    55    54    1
   924  1181  1192    1
   925  1181  1179    1
   926  1181  1176    1
   927  2423  2422    1
   928  2616  2598    2
   929   929   930    1
   930  3467  3466   ar
   931  3467  3461   ar
   932  3466  3465   ar
   933  1131  1130    1
   934  2582  2598    1
   935  2582  2581    1
   936   794   795   ar
   937  2372  2373   ar
   938  2372  2378   ar
   939  3117  3118   ar
   940  3117  3124   ar
   941  1199  1198    1
   942  2197  2196    1
   943  2197  2202    1
   944  3109  3107    1
   945  1192  1191   ar
   946  1226  1225    1
   947  2936  2934   ar
   948  2422  2424    1
   949  2374  2375    2
   950  2374  2373   ar
   951  2327  2328   ar
   952  2327  2326   ar
   953   897   896   ar
   954   897   898   ar
   955  2078  2077    1
   956  3532  3533   ar
   957  2209  2210   ar
   958  2209  2207   ar
   959    53    52    1
   960    53    67    1
   961  2915  2912   ar
   962  2091  2092    1
   963  2079  2077    1
   964  2079  2074    1
   965   906   908    1
   966  2417  2415   ar
   967  1209  1215   ar
   968  1209  1210   ar
   969  2863  2861    1
   970  2863  2865    1
   971  2878  2862    1
   972  2878  2897    1
   973   930   928    1
   974  3475  3476    1
   975  3475  3477    1
   976  1202  1200    1
   977  3437  3438   ar
   978  3437  3435   ar
   979  1871  1872    2
   980  2210  2203   ar
   981  2862  2861    1
   982  1205  1211   ar
   983    36    35    1
   984  2077  2075    1
   985  3118  3120   ar
   986  3404  3387    1
   987  3404  3423    1
   988  1222  1227    1
   989  1222  1221    1
   990   910   908    1
   991   910   911    1
   992  2196  2198    1
   993  3153  3154    1
   994  3153  3155    1
   995  3438  3439   ar
   996  3474  3479    1
   997  2585  2580    1
   998  2585  2595    1
   999  1215  1214   ar
  1000  3513  3492    2
  1001   797   795   ar
  1002  2895  2894   ar
  1003  2598  2617    1
  1004   769   768    1
  1005  2066  2067   ar
  1006    85    67    2
  1007  2637  2636   ar
  1008  2061  2062    2
  1009  2061  2060   ar
  1010   896   895   ar
  1011  2046  2047   ar
  1012  3125  3107    2
  1013   909   908    1
  1014  1158  1153    1
  1015  1158  1156    1
  1016    37    35   ar
  1017    37    38   ar
  1018  2647  2646    1
  1019  2647  2664    1
  1020  2909  2908   ar
  1021  2615  2614   ar
  1022  3146  3145   ar
  1023  2912  2913   ar
  1024    13    12    1
  1025  2868  2867   ar
  1026  2868  2869   ar
  1027  2339  2340    1
  1028    47    49    1
  1029    47    66    1
  1030  1888  1889    1
  1031  1888  1887   ar
  1032  2867  2866   ar
  1033  1836  1834    1
  1034  3387  3386    1
  1035  1849  1850   ar
  1036  1849  1852   ar
  1037  2328  2329   ar
  1038  3388  3386    1
  1039  3388  3390    1
  1040   795   796    1
  1041  1227  1225    1
  1042  1227  1238    1
  1043  1179  1177    1
  1044  3092  3094    1
  1045  3092  3090    1
  1046  2367  2362    1
  1047  2367  2378    1
  1048  2943  2944    1
  1049  2943  2945    1
  1050  2092  2090    1
  1051    25    26    1
  1052    52    54    1
  1053  2581  2579    1
  1054  1822  1821   ar
  1055  1822  1824   ar
  1056  2040  2047   ar
  1057  2040  2039    1
  1058  2324  2323    1
  1059  1853  1852   ar
  1060  1176  1175    1
  1061  3514  3492    1
  1062  3140  3141   ar
  1063  3140  3138   ar
  1064  3097  3096   ar
  1065  3097  3098   ar
  1066  3154  3159    1
  1067  2646  2648    1
  1068  2373  2376   ar
  1069  3421  3420   ar
  1070  3392  3394   ar
  1071  3392  3391   ar
  1072  3096  3095   ar
  1073  2631  2632   ar
  1074  2631  2629   ar
  1075  1190  1191   ar
  1076  1850  1851    2
  1077  1145  1146   ar
  1078  1145  1143   ar
  1079  3394  3395   ar
  1080  2931  2932    2
  1081  2931  2933   ar
  1082    56    54    1
  1083    56    57    1
  1084   766   768    1
  1085   766   764    1
  1086  2378  2377   ar
  1087  1221  1219    1
  1088  1221  1223    1
  1089  3141  3142   ar
  1090  2891  2892   ar
  1091  2632  2633   ar
  1092  2579  2580    1
  1093  2579  2577    1
  1094  3091  3107    1
  1095  3091  3090    1
  1096     9     8    1
  1097  1198  1200    1
  1098  1198  1196    1
  1099   768   770    1
  1100  2326  2331   ar
  1101  2349  2348   ar
  1102  2349  2351   ar
  1103  2649  2648    1
  1104  2586  2591   ar
  1105  1964  1942    2
  1106  1914  1915    1
  1107  1914  1913   ar
  1108  2348  2355   ar
  1109  2412  2413    2
  1110  2412  2414   ar
  1111  2208  2207    1
  1112  2589  2595   ar
  1113  2589  2590   ar
  1114    44    38   ar
  1115    44    43   ar
  1116  1210  1211   ar
  1117  1210  1213   ar
  1118    35    34   ar
  1119  3107  3126    1
  1120  2685  2664    2
  1121  2611  2612   ar
  1122  2944  2949    1
  1123  3476  3492    1
  1124  2207  2206   ar
  1125  1893  1887   ar
  1126  1893  1894    2
  1127  3488  3487   ar
  1128  3488  3489   ar
  1129  2861  2859    1
  1130  3492  3494    1
  1131  3124  3123   ar
  1132  1211  1212    2
  1133  3534  3533   ar
  1134  3534  3524    1
  1135  1911  1913   ar
  1136  1911  1912    2
  1137  1821  1827   ar
  1138  3477  3479    1
  1139  3477  3478    1
  1140  1130  1132    1
  1141  1923  1924    1
  1142  1923  1925    1
  1143  1225  1223    1
  1144  3442  3439   ar
  1145  2960  2981    1
  1146  2960  2946    1
  1147  2960  2962    1
  1148  2203  2202    1
  1149  2203  2204   ar
  1150  2650  2648    1
  1151  2650  2661    1
  1152   899   898    1
  1153  2865  2860    1
  1154  2865  2875    1
  1155  3465  3462   ar
  1156    67    86    1
  1157    67    69    1
  1158  3417  3418   ar
  1159  1214  1213   ar
  1160  1146  1139   ar
  1161  2202  2200    1
  1162  1153  1152    1
  1163   898   893   ar
  1164    38    39   ar
  1165  1824  1825   ar
  1166  2595  2594   ar
  1167  3461  3460   ar
  1168  3461  3462   ar
  1169  1144  1143    1
  1170  1156  1157    1
  1171  1156  1154    1
  1172  3094  3089    1
  1173  3094  3104    1
  1174  3386  3384    1
  1175  1938  1937   ar
  1176  1938  1939   ar
  1177  1231  1232   ar
  1178  1231  1229   ar
  1179  1219  1220    1
  1180   911   928    1
  1181  2039  2034    1
  1182  2039  2037    1
  1183  1855  1834    2
  1184  2934  2933   ar
  1185  2934  2935    1
  1186  3435  3436    1
  1187  3435  3434   ar
  1188  1200  1201    1
  1189  1238  1232   ar
  1190  1238  1237   ar
  1191  3439  3440   ar
  1192  1937  1934   ar
  1193  3479  3489    1
  1194  2664  2686    1
  1195  2664  2666    1
  1196  1819  1818    1
  1197  2415  2414   ar
  1198  2415  2416    1
  1199  3090  3088    1
  1200    68    69    1
  1201    68    70    1
  1202  2424  2425    1
  1203  2424  2426    1
  1204  3390  3385    1
  1205  3390  3401    1
  1206  2866  2871   ar
  1207  2074  2073    1
  1208  1230  1229    1
  1209  2067  2060   ar
  1210  3523  3522    1
  1211  3156  3155    1
  1212  3156  3173    1
  1213  1963  1942    1
  1214  3120  3121   ar
  1215  2198  2199    1
  1216  2198  2200    1
  1217  2060  2059    1
  1218  3487  3484   ar
  1219  1924  1929    1
  1220  2957  2956   ar
  1221  2957  2950   ar
  1222   895   894   ar
  1223  2945  2946    1
  1224  2945  2947    1
  1225  2894  2892   ar
  1226  2908  2913   ar
  1227    12    14   ar
  1228    12    11   ar
  1229  2636  2633   ar
  1230  2075  2076    1
  1231  2075  2073    1
  1232   928   950    2
  1233   928   949    1
  1234  3155  3157    1
  1235  2859  2860    1
  1236  2859  2857    1
  1237  2869  2875   ar
  1238  2869  2870   ar
  1239  1175  1177    1
  1240  1175  1173    1
  1241  1143  1142   ar
  1242  2913  2914    1
  1243  3717  3716    1
  1244  3145  3142   ar
  1245    14    15   ar
  1246  2323  2325    1
  1247  2323  2321    1
  1248  1926  1925    1
  1249  1926  1942    1
  1250  2425  2430    1
  1251  1925  1927    1
  1252  2614  2612   ar
  1253  2034  2033    1
  1254  3138  3139    1
  1255  3138  3137   ar
  1256  3391  3397   ar
  1257  3460  3458   ar
  1258  1232  1233   ar
  1259  3095  3100   ar
  1260  3489  3483   ar
  1261  1942  1944    1
  1262  2956  2954   ar
  1263  1223  1224    1
  1264  1834  1817    1
  1265  1834  1856    1
  1266  1201  1218    1
  1267  2329  2335   ar
  1268  2329  2330   ar
  1269  3384  3385    1
  1270  3384  3382    1
  1271  2340  2338    1
  1272  1245  1244    1
  1273  1245  1250    1
  1274  2629  2630    1
  1275  2629  2628   ar
  1276  1229  1228   ar
  1277  3098  3104   ar
  1278  3098  3099   ar
  1279  2025  2024    2
  1280  2206  2204   ar
  1281  2376  2377   ar
  1282  3088  3089    1
  1283  3088  3086    1
  1284  1196  1197    1
  1285  3159  3157    1
  1286  3159  3170    1
  1287  2892  2893    2
  1288    26    24    1
  1289  3142  3143   ar
  1290   764   762    1
  1291   764   765    1
  1292  3420  3418   ar
  1293  2633  2634   ar
  1294  1177  1178    1
  1295  2463  2441    2
  1296  2204  2205    2
  1297  2660  2661   ar
  1298  2660  2659   ar
  1299  3395  3401   ar
  1300  3395  3396   ar
  1301  3462  3463   ar
  1302  1224  1241    1
  1303  2875  2874   ar
  1304  3193  3173    2
  1305  3158  3157    1
  1306  3524  3522    1
  1307  3524  3519    1
  1308  2090  2109    2
  1309  2090  2076    1
  1310  2090  2108    1
  1311  2612  2613    2
  1312     8    10    1
  1313     8     6    1
  1314  2577  2578    1
  1315  2351  2352   ar
  1316  2325  2335    1
  1317  2325  2320    1
  1318    57    64   ar
  1319    57    58   ar
  1320  1237  1236   ar
  1321    43    42   ar
  1322  2591  2590   ar
  1323  2591  2592    1
  1324  2661  2655   ar
  1325  3715  3714    1
  1326  2590  2593   ar
  1327  2355  2354   ar
  1328  2962  2961    1
  1329  3104  3103   ar
  1330  1818  1816    1
  1331  1818  1820    1
  1332  2331  2330   ar
  1333  2331  2332    1
  1334  2199  2213    1
  1335   773   772    2
  1336  3418  3419    2
  1337  1242  1244    1
  1338  1242  1243    1
  1339  2023  2024   ar
  1340  2023  2021   ar
  1341    34    40   ar
  1342  1244  1246    1
  1343  3123  3121   ar
  1344  1827  1828    2
  1345  1827  1826   ar
  1346  2200  2201    1
  1347  3401  3400   ar
  1348  2949  2950    1
  1349  2949  2947    1
  1350   770   771    1
  1351   770   765    1
  1352  1132  1133    1
  1353  1132  1134    1
  1354  1133  1138    1
  1355   762   763    1
  1356  2073  2071    1
  1357  2568  2567    2
  1358  1220  1218    1
  1359    64    63   ar
  1360  2232  2213    2
  1361  1825  1826   ar
  1362  1825  1831   ar
  1363    70    71    1
  1364    70    72    1
  1365   893   894   ar
  1366  3522  3520    1
  1367  1139  1138    1
  1368  1139  1140   ar
  1369  1817  1816    1
  1370  1136  1134    1
  1371  1136  1138    1
  1372  1136  1137    1
  1373  1939  1929    1
  1374  1939  1933   ar
  1375  2038  2037    1
  1376  2438  2437   ar
  1377  2438  2431   ar
  1378  3121  3122    1
  1379  3494  3493    1
  1380    39    42   ar
  1381    39    40   ar
  1382    10    21    1
  1383    10     5    1
  1384  2024  2026   ar
  1385  2004  2003    2
  1386  2022  2021    2
  1387  2335  2334   ar
  1388  3434  3440   ar
  1389  1134  1135    1
  1390  2950  2951   ar
  1391  3173  3194    1
  1392  3173  3175    1
  1393  1152  1154    1
  1394  1152  1150    1
  1395  2594  2593   ar
  1396  1154  1155    1
  1397  3169  3170   ar
  1398  3169  3168   ar
  1399  2426  2427    1
  1400  2426  2428    1
  1401  1233  1236   ar
  1402  1233  1234   ar
  1403  1178  1195    1
  1404  1250  1260    1
  1405  1250  1248    1
  1406  2871  2870   ar
  1407  2871  2872    1
  1408  3440  3441    2
  1409  2037  2035    1
  1410    11    17   ar
  1411    59    58    2
  1412  1197  1195    1
  1413  1228  1234   ar
  1414   772   771   ar
  1415   772   774   ar
  1416    45    24    2
  1417  2356  2338    2
  1418  2437  2435   ar
  1419  2330  2333   ar
  1420  2462  2441    1
  1421  2322  2338    1
  1422  2322  2321    1
  1423  1929  1927    1
  1424    71    76    1
  1425  3716  3714    1
  1426  3716  3718    1
  1427  1934  1933   ar
  1428  1934  1935   ar
  1429  2870  2873   ar
  1430  3484  3483   ar
  1431  3484  3485   ar
  1432  2666  2665    1
  1433  3170  3164   ar
  1434     7    24    1
  1435     7     6    1
  1436  2427  2441    1
  1437  1173  1174    1
  1438  2947  2948    1
  1439   771   778   ar
  1440  2441  2443    1
  1441  2059  2057    1
  1442  2059  2054    1
  1443  1249  1248    1
  1444  3137  3143   ar
  1445  2857  2858    1
  1446  2665  2667    1
  1447  2021  2020   ar
  1448  1142  1140   ar
  1449  3483  3482   ar
  1450    15    21   ar
  1451    15    16   ar
  1452  3382  3383    1
  1453  3100  3099   ar
  1454  3100  3101    1
  1455  2338  2357    1
  1456  2321  2319    1
  1457  2228  2227    2
  1458    58    60   ar
  1459  3397  3396   ar
  1460  3397  3398    2
  1461  2628  2634   ar
  1462  2033  2035    1
  1463  2033  2031    1
  1464  1826  1829   ar
  1465  2659  2656   ar
  1466  1936  1935    1
  1467    24    46    1
  1468  3099  3102   ar
  1469   763   761    1
  1470  1218  1239    2
  1471  1218  1240    1
  1472  3458  3459    1
  1473  3458  3457   ar
  1474  2954  2955    1
  1475  2954  2953   ar
  1476  3143  3144    2
  1477  3396  3399   ar
  1478  2564  2563    1
  1479  1927  1928    1
  1480  2430  2431    1
  1481  2430  2428    1
  1482  1816  1814    1
  1483  2320  2319    1
  1484  2213  2231    1
  1485  2213  2215    1
  1486    40    41    2
  1487  2634  2635    2
  1488   774   775   ar
  1489  1151  1150    1
  1490  1151  1149    1
  1491  1234  1235    2
  1492  3519  3518    1
  1493  3086  3087    1
  1494  1820  1831    1
  1495  1820  1815    1
  1496  3714  3712    1
  1497     6     4    1
  1498  2578  2576    1
  1499  2961  2963    1
  1500  1171  1149    2
  1501  2057  2058    1
  1502  2057  2055    1
  1503  1944  1943    1
  1504  1174  1172    1
  1505  2874  2873   ar
  1506  1243  1241    1
  1507  2354  2352   ar
  1508  2352  2353    2
  1509    21    20   ar
  1510     5     4    1
  1511   779   761    2
  1512  1140  1141    2
  1513  3463  3457   ar
  1514  3463  3464    2
  1515  1831  1830   ar
  1516  2431  2432   ar
  1517  1241  1261    2
  1518  1241  1262    1
  1519  2072  2071    1
  1520  2072  2070    1
  1521   778   777   ar
  1522  2655  2656   ar
  1523  2655  2654   ar
  1524  3721  3720    2
  1525  1260  1259   ar
  1526  1260  1254   ar
  1527  2319  2317    1
  1528  1933  1932   ar
  1529  2545  2544    1
  1530  1800  1799    1
  1531  2567  2569   ar
  1532  2567  2566   ar
  1533  2308  2307    2
  1534  2229  2227   ar
  1535  2229  2230   ar
  1536  1248  1246    1
  1537  3103  3102   ar
  1538     4     2    1
  1539  1935  1930   ar
  1540  2036  2035    1
  1541  2036  2050    1
  1542  3521  3520    1
  1543  3521  3537    1
  1544  3493  3495    1
  1545    63    61   ar
  1546  1981  1980    1
  1547  3168  3165   ar
  1548  3538  3540    1
  1549  3538  3539    1
  1550  3400  3399   ar
  1551  1246  1247    1
  1552  2003  1997   ar
  1553  2003  2002   ar
  1554  1195  1217    2
  1555  1195  1216    1
  1556  2569  2570   ar
  1557  3174  3175    1
  1558  3174  3176    1
  1559  1155  1172    1
  1560   775   777   ar
  1561   775   776    1
  1562  1259  1258   ar
  1563  2026  2027   ar
  1564  2227  2226   ar
  1565  2428  2429    1
  1566  3520  3518    1
  1567    72    73    1
  1568    72    74    1
  1569  1135  1149    1
  1570  2563  2565    1
  1571  2563  2561    1
  1572  2951  2953   ar
  1573  2951  2952    2
  1574  2031  2032    1
  1575  2334  2333   ar
  1576  3485  3486    1
  1577  3485  3480   ar
  1578    73    87    1
  1579  3077  3076    2
  1580  2858  2856    1
  1581  2435  2436    2
  1582  2435  2434   ar
  1583  2054  2053    1
  1584  1997  1998   ar
  1585   761   780    1
  1586   761   747    1
  1587  2656  2657   ar
  1588  2089  2070    2
  1589  1960  1961   ar
  1590  1960  1957   ar
  1591  1247  1263    1
  1592    17    16   ar
  1593    17    18    2
  1594  2032  2030    1
  1595  1149  1170    1
  1596  3482  3481   ar
  1597  3558  3537    2
  1598  3718  3713    1
  1599  3718  3719    1
  1600  3373  3372    2
  1601  2020  2027   ar
  1602  2020  2019    1
  1603  2654  2652   ar
  1604  1254  1253   ar
  1605  1254  1255   ar
  1606    16    19   ar
  1607  3164  3165   ar
  1608  3164  3163   ar
  1609  3712  3713    1
  1610  3712  3710    1
  1611  2309  2307   ar
  1612  2309  2310   ar
  1613    76    74    1
  1614    76    77    1
  1615  2848  2847    2
  1616  1253  1252   ar
  1617  3540  3541    1
  1618  3540  3542    1
  1619  3383  3381    1
  1620  2055  2053    1
  1621  2055  2056    1
  1622  3087  3085    1
  1623  2543  2544   ar
  1624  2543  2549   ar
  1625    60    61   ar
  1626  1814  1815    1
  1627  1814  1812    1
  1628  1798  1799   ar
  1629  1798  1804   ar
  1630  3535  3515    2
  1631  2667  2668    1
  1632  2667  2669    1
  1633  2290  2289    2
  1634  1829  1830   ar
  1635  2978  2977   ar
  1636  2978  2979   ar
  1637  1943  1945    1
  1638  3518  3516    1
  1639  1986  1965    2
  1640  2017  2018    1
  1641  2017  2019    1
  1642  2017  2015    1
  1643  1959  1958    2
  1644  2977  2974   ar
  1645    75    74    1
  1646  2443  2442    1
  1647  2307  2306   ar
  1648  2215  2214    1
  1649  1961  1962   ar
  1650  2230  2223   ar
  1651  1799  1801   ar
  1652  1172  1194    2
  1653  1172  1193    1
  1654  1258  1255   ar
  1655  3720  3719   ar
  1656  3720  3722   ar
  1657  3578  3560    2
  1658  2283  2289   ar
  1659  2283  2284   ar
  1660    84    77   ar
  1661    84    83   ar
  1662  2285  2284    1
  1663  2565  2566    1
  1664  2565  2560    1
  1665  2544  2546   ar
  1666  2964  2963    1
  1667  2964  2969    1
  1668  2844  2843    1
  1669  2052  2050    1
  1670  2052  2051    1
  1671    61    62    1
  1672  2963  2965    1
  1673  2432  2434   ar
  1674  2432  2433    2
  1675   108    87    2
  1676  2668  2673    1
  1677  3165  3166   ar
  1678  2070  2056    1
  1679  2070  2088    1
  1680  3073  3072    1
  1681  3543  3542    1
  1682  3543  3560    1
  1683  2566  2573   ar
  1684  3698  3697    1
  1685  3369  3368    1
  1686  3537  3539    1
  1687  3537  3559    1
  1688  2596  2576    2
  1689  2311  2310    1
  1690  2576  2562    1
  1691  2576  2597    1
  1692  1255  1256   ar
  1693  3163  3161   ar
  1694    20    19   ar
  1695  3517  3515    1
  1696  3517  3516    1
  1697  3541  3546    1
  1698  2550  2549    2
  1699  2002  2005   ar
  1700  2002  2001   ar
  1701  1932  1931   ar
  1702  1252  1251   ar
  1703  1805  1804    2
  1704  2068  2050    2
  1705  2442  2444    1
  1706  2571  2570    2
  1707  2570  2572   ar
  1708  2019  2014    1
  1709  2248  2247    1
  1710   109    87    1
  1711  3076  3078   ar
  1712  3076  3075   ar
  1713    87    89    1
  1714  3719  3726   ar
  1715  2050  2069    1
  1716  2562  2561    1
  1717  2709  2687    2
  1718  3495  3497    1
  1719  3495  3496    1
  1720  3078  3079   ar
  1721    77    78   ar
  1722  1930  1931   ar
  1723  1980  1979   ar
  1724  1980  1975   ar
  1725  3176  3177    1
  1726  3176  3178    1
  1727     2     3    1
  1728  2317  2318    1
  1729  2053  2051    1
  1730  2005  2006   ar
  1731  3480  3481   ar
  1732  2226  2224   ar
  1733  3372  3374   ar
  1734  3372  3371   ar
  1735  2289  2288   ar
  1736  2310  2312   ar
  1737  1982  1979   ar
  1738  1982  1983   ar
  1739  3374  3375   ar
  1740  2561  2559    1
  1741  3177  3182    1
  1742  1957  1958   ar
  1743  1957  1956   ar
  1744  3710  3711    1
  1745  1804  1803   ar
  1746  2847  2849   ar
  1747  2847  2846   ar
  1748  3545  3544    1
  1749  1998  1999    1
  1750  1998  2000   ar
  1751  2549  2548   ar
  1752  2843  2845    1
  1753  2843  2841    1
  1754  3542  3544    1
  1755    83    81   ar
  1756  2284  2286   ar
  1757  3072  3074    1
  1758  3072  3070    1
  1759  2849  2850   ar
  1760  2049  2030    2
  1761  1958  1952   ar
  1762  3368  3370    1
  1763  3368  3366    1
  1764  3497  3498    1
  1765  3497  3499    1
  1766  3402  3381    2
  1767  3722  3723   ar
  1768   747   746    1
  1769  2652  2651   ar
  1770  2652  2653    1
  1771  2657  2651   ar
  1772  2657  2658    2
  1773  2683  2682   ar
  1774  2683  2684   ar
  1775  3515  3498    1
  1776  3515  3536    1
  1777  3560  3579    1
  1778  3560  3562    1
  1779  2214  2216    1
  1780  2015  2016    1
  1781  2015  2013    1
  1782  2876  2856    2
  1783  2856  2842    1
  1784  2856  2877    1
  1785  1738  1737    2
  1786  1281  1263    2
  1787  1256  1251   ar
  1788  1256  1257    1
  1789  2268  2267    2
  1790  2030  2016    1
  1791  2030  2048    1
  1792  2669  2670    1
  1793  2669  2671    1
  1794  1263  1282    1
  1795  1263  1265    1
  1796  2979  2969    1
  1797  2979  2973   ar
  1798  2304  2303    1
  1799  3381  3367    1
  1800  3381  3403    1
  1801  1801  1802   ar
  1802  1979  1978   ar
  1803  1812  1813    1
  1804  2670  2687    1
  1805   749   748    1
  1806  2223  2224   ar
  1807  2223  2222    1
  1808  1945  1946    1
  1809  1945  1947    1
  1810  2974  2973   ar
  1811  2974  2975   ar
  1812  1975  1976   ar
  1813  2969  2967    1
  1814  2546  2547   ar
  1815  3085  3105    2
  1816  3085  3071    1
  1817  3085  3106    1
  1818  2842  2841    1
  1819  3697  3696   ar
  1820  3697  3699   ar
  1821  2306  2305    1
  1822  2306  2313   ar
  1823  2965  2966    1
  1824  2965  2967    1
  1825  1965  1985    1
  1826  1965  1948    1
  1827  1965  1967    1
  1828  1267  1266    1
  1829  1267  1272    1
  1830  2318  2316    1
  1831  2560  2559    1
  1832  1962  1956   ar
  1833  1962  1951    1
  1834  2573  2572   ar
  1835  1946  1951    1
  1836  1264  1265    1
  1837  1264  1266    1
  1838  3544  3546    1
  1839  3546  3557    1
  1840  2976  2975    1
  1841  2682  2679   ar
  1842  2303  2305    1
  1843  2303  2301    1
  1844  3166  3160   ar
  1845  3166  3167    2
  1846  3191  3190   ar
  1847  3191  3192   ar
  1848  3161  3160   ar
  1849  3161  3162    1
  1850   748   746    1
  1851   748   750    1
  1852  2527  2526    2
  1853  3367  3366    1
  1854  2459  2460   ar
  1855  2459  2456   ar
  1856  3074  3075    1
  1857  3074  3069    1
  1858  3001  2982    2
  1859  3080  3079    1
  1860  2001  2000   ar
  1861  2001  2007   ar
  1862  1947  1948    1
  1863  1947  1949    1
  1864  2687  2708    1
  1865  2687  2689    1
  1866  2224  2225    2
  1867     3     1    1
  1868  2673  2684    1
  1869  2673  2671    1
  1870  3075  3082   ar
  1871  2460  2461   ar
  1872  3079  3081   ar
  1873  3696  3702   ar
  1874  2217  2216    1
  1875  2217  2222    1
  1876  2559  2557    1
  1877  3726  3725   ar
  1878  3496  3501    1
  1879  2845  2846    1
  1880  2845  2840    1
  1881  2305  2300    1
  1882  2247  2249   ar
  1883  2247  2246   ar
  1884  3711  3709    1
  1885    78    79    2
  1886    78    80   ar
  1887  1813  1811    1
  1888  1983  1984   ar
  1889  3370  3371    1
  1890  3370  3365    1
  1891  3071  3070    1
  1892  3499  3501    1
  1893  3499  3500    1
  1894  3371  3378   ar
  1895  2006  2007   ar
  1896  3376  3375    1
  1897  3375  3377   ar
  1898  1739  1736   ar
  1899  1739  1740   ar
  1900  2846  2853   ar
  1901   746   744    1
  1902  2684  2678   ar
  1903  2841  2839    1
  1904  2014  2013    1
  1905  3178  3179    1
  1906  3178  3180    1
  1907   753   752    2
  1908  1956  1955   ar
  1909  2704  2703    2
  1910  2966  2982    1
  1911  2997  2996    1
  1912  1803  1802   ar
  1913  1803  1806   ar
  1914  2444  2445    1
  1915  2444  2446    1
  1916  1266  1268    1
  1917    89    88    1
  1918  3366  3364    1
  1919  2850  2851    1
  1920  2850  2852   ar
  1921  3190  3187   ar
  1922  2973  2972   ar
  1923    81    80   ar
  1924    81    82    1
  1925  3070  3068    1
  1926  2249  2250   ar
  1927  1802  1808   ar
  1928  2975  2970   ar
  1929  2312  2313   ar
  1930  3179  3195    1
  1931  2548  2547   ar
  1932  2548  2551   ar
  1933  2486  2464    2
  1934  2288  2287   ar
  1935  2288  2291   ar
  1936  1737  1736   ar
  1937  1737  1731   ar
  1938  2445  2450    1
  1939  3723  3725   ar
  1940  3723  3724    2
  1941  2216  2218    1
  1942  3182  3192    1
  1943  3182  3180    1
  1944  2286  2287   ar
  1945  3699  3700   ar
  1946  3057  3056    2
  1947  2267  2266   ar
  1948  2267  2269   ar
  1949  3039  3038    2
  1950  2671  2672    1
  1951  1952  1953   ar
  1952  3561  3562    1
  1953  3561  3563    1
  1954  1951  1949    1
  1955  2222  2220    1
  1956  2547  2553   ar
  1957   754   752   ar
  1958   754   755   ar
  1959  2013  2011    1
  1960   752   751   ar
  1961    88    90    1
  1962  3017  3016    2
  1963  1272  1273    1
  1964  1272  1270    1
  1965  2967  2968    1
  1966  2520  2526   ar
  1967  2520  2521   ar
  1968  1967  1966    1
  1969  3217  3195    2
  1970  3192  3186   ar
  1971  2705  2706   ar
  1972  2705  2702   ar
  1973  2009  1987    2
  1974  3058  3056   ar
  1975  3058  3059   ar
  1976  2007  1996    1
  1977  1736  1735   ar
  1978  2526  2525   ar
  1979  2982  3000    1
  1980  2982  2984    1
  1981  1978  1984   ar
  1982  1978  1977   ar
  1983  3060  3059    2
  1984  1782  1781    1
  1985  2998  2996   ar
  1986  2998  2999   ar
  1987  3511  3512   ar
  1988  3511  3510   ar
  1989  2266  2264   ar
  1990  3501  3512    1
  1991  2252  2233    2
  1992  1976  1977   ar
  1993  2246  2244   ar
  1994  1740  1741   ar
  1995  2752  2732    2
  1996   756   755    2
  1997  3082  3081   ar
  1998  1280  1273   ar
  1999  1280  1279   ar
  2000  2481  2480    2
  2001  3702  3703    2
  2002  3702  3701   ar
  2003   755   757   ar
  2004  2287  2293   ar
  2005  1949  1950    1
  2006  2218  2220    1
  2007  2218  2219    1
  2008  1273  1274   ar
  2009  3557  3556   ar
  2010  3557  3551   ar
  2011  2446  2447    1
  2012  2446  2448    1
  2013  2012  2011    1
  2014  2012  2010    1
  2015  2029  2010    2
  2016  3727  3709    2
  2017  3216  3195    1
  2018   751   750    1
  2019   751   758   ar
  2020  2679  2678   ar
  2021  2679  2680   ar
  2022  2996  2995   ar
  2023  2458  2457    2
  2024   750   745    1
  2025  3180  3181    1
  2026  3195  3197    1
  2027  1776  1781   ar
  2028  1776  1777   ar
  2029  3069  3068    1
  2030  2461  2450    1
  2031  2461  2455   ar
  2032  2456  2457   ar
  2033  2456  2455   ar
  2034  1984  1974    1
  2035  2839  2840    1
  2036  2839  2837    1
  2037  3378  3377   ar
  2038  2301  2302    1
  2039  2301  2299    1
  2040  3556  3555   ar
  2041  3056  3055   ar
  2042  2689  2688    1
  2043  2522  2521    1
  2044  2853  2852   ar
  2045  2703  2702   ar
  2046  2703  2697   ar
  2047  2316  2302    1
  2048  2316  2336    2
  2049  2316  2337    1
  2050  2291  2292   ar
  2051  2678  2677   ar
  2052  1806  1807   ar
  2053  2300  2299    1
  2054  3365  3364    1
  2055  3032  3038   ar
  2056  3032  3033   ar
  2057  1279  1277   ar
  2058  3068  3066    1
  2059  1731  1732   ar
  2060  3364  3362    1
  2061  3709  3728    1
  2062  3709  3692    1
  2063  1796  1795    1
  2064  2557  2558    1
  2065     1    22    1
  2066     1    23    1
  2067  3059  3061   ar
  2068  2447  2464    1
  2069  2706  2707   ar
  2070  1955  1953   ar
  2071  1795  1797    1
  2072  1795  1793    1
  2073  3694  3693    1
  2074  3512  3506   ar
  2075  3038  3037   ar
  2076  2464  2485    1
  2077  2464  2466    1
  2078  1274  1275    2
  2079  1274  1276   ar
  2080   757   758   ar
  2081  2702  2701   ar
  2082  1808  1797    1
  2083  1808  1807   ar
  2084  2551  2552   ar
  2085  1811  1832    2
  2086  1811  1833    1
  2087  1811  1794    1
  2088  2450  2448    1
  2089  1271  1270    1
  2090  3187  3186   ar
  2091  3187  3188   ar
  2092   744   745    1
  2093   744   742    1
  2094  3700  3701   ar
  2095  3700  3706   ar
  2096  2250  2243   ar
  2097  1953  1954    1
  2098  2269  2270   ar
  2099  2972  2971   ar
  2100  1781  1780   ar
  2101  2521  2523   ar
  2102  2504  2503    2
  2103  2970  2971   ar
  2104  2220  2221    1
  2105  3510  3507   ar
  2106  1268  1270    1
  2107  1268  1269    1
  2108  2457  2451   ar
  2109    91    90    1
  2110    91    96    1
  2111  3186  3185   ar
  2112  3016  3015   ar
  2113  3016  3018   ar
  2114  3693  3691    1
  2115  3693  3695    1
  2116  2999  2992   ar
  2117  2482  2479   ar
  2118  2482  2483   ar
  2119  1277  1276   ar
  2120  1277  1278    1
  2121  2553  2552   ar
  2122  2553  2542    1
  2123  3701  3704   ar
  2124    90    92    1
  2125  3563  3564    1
  2126  3563  3565    1
  2127  2558  2556    1
  2128  1777  1778   ar
  2129  2219  2233    1
  2130  2010  2028    1
  2131  2010  1993    1
  2132  2455  2454   ar
  2133  1966  1968    1
  2134   106   105   ar
  2135   106   107   ar
  2136  2299  2297    1
  2137  1735  1741   ar
  2138  1735  1734   ar
  2139  2984  2983    1
  2140  1797  1792    1
  2141  3034  3033    1
  2142  1741  1730    1
  2143  1996  1994    1
  2144  1996  1991    1
  2145  2264  2265    2
  2146  2264  2263   ar
  2147  2480  2479   ar
  2148  2480  2474   ar
  2149  2525  2528   ar
  2150  2525  2524   ar
  2151  1987  1989    1
  2152  1987  2008    1
  2153  1987  1971    1
  2154  1994  1992    1
  2155  1994  1995    1
  2156  2772  2754    2
  2157  2233  2251    1
  2158  2233  2235    1
  2159  2681  2680    2
  2160  2244  2243   ar
  2161  2244  2245    2
  2162  2680  2674   ar
  2163  2732  2753    1
  2164  2732  2716    1
  2165  2732  2734    1
  2166  3692  3691    1
  2167   105   102   ar
  2168  2448  2449    1
  2169  3551  3550   ar
  2170  3551  3552   ar
  2171  2995  2993   ar
  2172  1794  1793    1
  2173  1970  1968    1
  2174  1970  1972    1
  2175  1970  1971    1
  2176  1989  1988    1
  2177  1729  1728    1
  2178  2293  2292   ar
  2179  2293  2282    1
  2180   742   743    1
  2181  3564  3569    1
  2182  2697  2698   ar
  2183  3033  3035   ar
  2184  1992  1993    1
  2185  1992  1990    1
  2186  2540  2541    1
  2187  2540  2542    1
  2188  2540  2538    1
  2189  1269  1283    1
  2190  1793  1791    1
  2191  3555  3552   ar
  2192  2731  2710    2
  2193  3189  3188    1
  2194  2677  2675   ar
  2195  2688  2690    1
  2196   743   741    1
  2197  1974  1969    1
  2198  1974  1972    1
  2199  3015  3013   ar
  2200  2243  2242    1
  2201  2837  2838    1
  2202  1969  1968    1
  2203  2831  2830    1
  2204  3188  3183   ar
  2205  3018  3019   ar
  2206  2479  2478   ar
  2207  2829  2827   ar
  2208  2829  2830   ar
  2209  3055  3054    1
  2210  3055  3062   ar
  2211  3550  3548   ar
  2212  2542  2537    1
  2213  1732  1734   ar
  2214  1732  1733    1
  2215  3706  3695    1
  2216  3706  3705   ar
  2217  2828  2827    2
  2218  3197  3196    1
  2219  3691  3689    1
  2220  2483  2484   ar
  2221  2528  2529   ar
  2222  2707  2701   ar
  2223  2707  2696    1
  2224  3362  3363    1
  2225  3695  3690    1
  2226  2466  2465    1
  2227  3066  3067    1
  2228  2773  2754    1
  2229  2701  2700   ar
  2230  3506  3507   ar
  2231  3506  3505   ar
  2232  3061  3062   ar
  2233  2270  2263   ar
  2234  2716  2715    1
  2235  1991  1990    1
  2236  1972  1973    1
  2237  2503  2497   ar
  2238  2503  2502   ar
  2239  3037  3040   ar
  2240  3037  3036   ar
  2241  2523  2524   ar
  2242  3566  3565    1
  2243  3566  3580    1
  2244  3185  3184   ar
  2245  3507  3508   ar
  2246  1780  1779   ar
  2247  1780  1783   ar
  2248  3598  3580    2
  2249  3599  3580    1
  2250  3053  3052    1
  2251  3675  3674    1
  2252  1728  1730    1
  2253  1728  1726    1
  2254  3565  3567    1
  2255   107    96    1
  2256   107   101   ar
  2257  3052  3054    1
  2258  3052  3050    1
  2259  2992  2993   ar
  2260  2992  2991    1
  2261    96    94    1
  2262  3354  3352   ar
  2263  3354  3355   ar
  2264  3353  3352    2
  2265  2235  2234    1
  2266  3356  3355    1
  2267  3704  3705   ar
  2268    92    93    1
  2269    92    94    1
  2270  2524  2530   ar
  2271  2838  2836    1
  2272  3363  3361    1
  2273  2451  2452   ar
  2274   735   734    2
  2275  3552  3553   ar
  2276   730   729    1
  2277  2263  2262    1
  2278  2827  2826   ar
  2279  2754  2738    1
  2280  2754  2756    1
  2281  2983  2985    1
  2282  2830  2832   ar
  2283   728   734   ar
  2284   728   729   ar
  2285  1778  1779   ar
  2286  3673  3674   ar
  2287  3673  3679   ar
  2288  2474  2475   ar
  2289  3067  3065    1
  2290  2734  2733    1
  2291  3054  3049    1
  2292  1730  1725    1
  2293   760   741    2
  2294  2993  2994    2
  2295  3680  3679    2
  2296  2454  2452   ar
  2297  3577  3576   ar
  2298  3577  3570   ar
  2299  3580  3582    1
  2300  2674  2675   ar
  2301  2691  2690    1
  2302  2691  2696    1
  2303  2733  2735    1
  2304  1990  1988    1
  2305  3213  3214   ar
  2306  3213  3210   ar
  2307  3040  3041   ar
  2308  2282  2280    1
  2309  2282  2277    1
  2310  3196  3198    1
  2311   102   101   ar
  2312   102   103   ar
  2313  2497  2498   ar
  2314   653   632    2
  2315  1792  1791    1
  2316  2297  2298    1
  2317  2675  2676    1
  2318  3235  3234    2
  2319  2556  2575    2
  2320  2556  2539    1
  2321  2556  2574    1
  2322   734   733   ar
  2323  2298  2296    1
  2324   741   759    1
  2325   741   724    1
  2326  2538  2539    1
  2327  2538  2536    1
  2328  2711  2712    1
  2329  2711  2713    1
  2330   729   731   ar
  2331  2986  2991    1
  2332  2986  2985    1
  2333    93   110    1
  2334  2690  2692    1
  2335  2505  2502   ar
  2336  2505  2506   ar
  2337  3352  3351   ar
  2338  3214  3215   ar
  2339  1779  1785   ar
  2340  2698  2700   ar
  2341  2698  2699    1
  2342  3035  3036   ar
  2343  3355  3357   ar
  2344  2280  2281    1
  2345  2280  2278    1
  2346  1783  1784   ar
  2347  3183  3184   ar
  2348  3674  3676   ar
  2349  2692  2694    1
  2350  2692  2693    1
  2351  1791  1789    1
  2352  3576  3574   ar
  2353  2738  2737    1
  2354  3569  3570    1
  2355  3569  3567    1
  2356  2502  2501   ar
  2357  3505  3503   ar
  2358  3679  3678   ar
  2359  3036  3042   ar
  2360  1305  1283    2
  2361  2696  2694    1
  2362  3013  3014    2
  2363  3013  3012   ar
  2364  3548  3549    1
  2365  3548  3547   ar
  2366  2452  2453    1
  2367  2710  2712    1
  2368  2710  2693    1
  2369  2710  2730    1
  2370  3019  3012   ar
  2371   101   100   ar
  2372  1283  1285    1
  2373  1283  1304    1
  2374  2478  2484   ar
  2375  2478  2477   ar
  2376   104   103    2
  2377  2242  2237    1
  2378  2242  2240    1
  2379  2509  2487    2
  2380  2529  2530   ar
  2381  2537  2536    1
  2382  3689  3690    1
  2383  3689  3687    1
  2384  2484  2473    1
  2385    94    95    1
  2386  2237  2236    1
  2387  2465  2467    1
  2388   131   110    2
  2389  2715  2713    1
  2390  2715  2717    1
  2391  2991  2989    1
  2392  2713  2714    1
  2393  2985  2987    1
  2394   103    97   ar
  2395  3508  3509    2
  2396  3508  3502   ar
  2397  3570  3571   ar
  2398  3567  3568    1
  2399  3021  3002    2
  2400  2530  2519    1
  2401  1725  1724    1
  2402  3050  3051    1
  2403  3050  3048    1
  2404  3256  3255    2
  2405  3212  3211    2
  2406   731   732   ar
  2407   733   732   ar
  2408   733   736   ar
  2409  1726  1727    1
  2410  1726  1724    1
  2411  2272  2253    2
  2412  2234  2236    1
  2413  2826  2833   ar
  2414  2826  2825    1
  2415  3199  3198    1
  2416  3199  3204    1
  2417  2755  2756    1
  2418  2755  2757    1
  2419  2832  2833   ar
  2420  2694  2695    1
  2421  3380  3361    2
  2422  2737  2735    1
  2423  2737  2739    1
  2424  2811  2810    1
  2425  3361  3379    1
  2426  3361  3347    1
  2427  2823  2824    1
  2428  2823  2825    1
  2429  2823  2821    1
  2430  3553  3547   ar
  2431  3553  3554    2
  2432  1285  1284    1
  2433  2475  2477   ar
  2434  2475  2476    1
  2435   110   130    1
  2436   110   112    1
  2437  3012  3011    1
  2438  3051  3065    1
  2439  2987  2989    1
  2440  2987  2988    1
  2441  2262  2260    1
  2442  2262  2257    1
  2443  2836  2855    2
  2444  2836  2854    1
  2445  2836  2822    1
  2446  2735  2736    1
  2447  3210  3211   ar
  2448  3210  3209   ar
  2449  3049  3048    1
  2450  3065  3084    2
  2451  3065  3083    1
  2452   732   738   ar
  2453   630   610    2
  2454  2277  2276    1
  2455  2536  2534    1
  2456  2278  2279    1
  2457  2278  2276    1
  2458  2315  2296    2
  2459  1790  1789    1
  2460  1790  1788    1
  2461   632   654    1
  2462   632   616    1
  2463   632   634    1
  2464  3041  3042   ar
  2465  3234  3228   ar
  2466  3234  3233   ar
  2467  3198  3200    1
  2468  2498  2499    1
  2469  2498  2500   ar
  2470  2506  2507   ar
  2471  3348  3349    1
  2472  3348  3350    1
  2473  3348  3346    1
  2474  1784  1785   ar
  2475  2718  2717    1
  2476  2238  2240    1
  2477  2238  2236    1
  2478  2238  2239    1
  2479  3676  3677   ar
  2480  1785  1775    1
  2481  3215  3204    1
  2482  3215  3209   ar
  2483   736   737   ar
  2484  3351  3350    1
  2485  3351  3358   ar
  2486  3336  3335    2
  2487  2240  2241    1
  2488  2468  2467    1
  2489  2468  2473    1
  2490  2296  2279    1
  2491  2296  2314    1
  2492  1302  1301   ar
  2493  1302  1303   ar
  2494   616   615    1
  2495   724   723    1
  2496  3582  3581    1
  2497  3357  3358   ar
  2498  1727  1744    1
  2499  3211  3205   ar
  2500  1301  1298   ar
  2501   725   726    1
  2502   725   723    1
  2503   725   727    1
  2504  1810  1788    2
  2505  3503  3502   ar
  2506  3503  3504    1
  2507  3042  3031    1
  2508   100    98   ar
  2509  2825  2820    1
  2510  3678  3677   ar
  2511  3678  3681   ar
  2512  2795  2774    2
  2513  1287  1292    1
  2514  1287  1286    1
  2515  3574  3575    1
  2516  3574  3573   ar
  2517  2295  2273    2
  2518  2989  2990    1
  2519  1724  1722    1
  2520  2467  2469    1
  2521  2501  2500   ar
  2522  2501  2507   ar
  2523  2469  2470    1
  2524  2469  2471    1
  2525  2260  2258    1
  2526  2260  2261    1
  2527  3687  3688    1
  2528  2473  2471    1
  2529  2717  2719    1
  2530  3688  3686    1
  2531  2535  2534    1
  2532  2535  2533    1
  2533   611   613    1
  2534   611   612    1
  2535  3048  3046    1
  2536   723   721    1
  2537  3228  3229   ar
  2538    97    98   ar
  2539  3236  3233   ar
  2540  3236  3237   ar
  2541  3255  3254   ar
  2542  3255  3257   ar
  2543  2555  2533    2
  2544  2257  2256    1
  2545  3204  3202    1
  2546   738   737   ar
  2547   738   727    1
  2548  2487  2470    1
  2549  2487  2489    1
  2550  2487  2508    1
  2551  1722  1723    1
  2552  2822  2821    1
  2553  2821  2819    1
  2554  3677  3683   ar
  2555  3254  3252   ar
  2556  3350  3345    1
  2557  3209  3208   ar
  2558  2714  2719    1
  2559  1303  1292    1
  2560  1303  1297   ar
  2561   713   712    2
  2562  2988  3002    1
  2563  3347  3346    1
  2564  3571  3573   ar
  2565  3571  3572    2
  2566  3658  3657    1
  2567  2532  2510    2
  2568  2276  2274    1
  2569  2810  2809   ar
  2570  2810  2812   ar
  2571  2275  2273    1
  2572  2275  2274    1
  2573  2519  2517    1
  2574  2519  2514    1
  2575  3233  3232   ar
  2576  3002  3004    1
  2577  3002  3020    1
  2578  2255  2253    1
  2579  2255  2254    1
  2580  3240  3218    2
  2581  2809  2807   ar
  2582  3316  3315    1
  2583  3581  3583    1
  2584  1292  1290    1
  2585  1298  1299   ar
  2586  1298  1297   ar
  2587  3346  3344    1
  2588  3200  3201    1
  2589  3200  3202    1
  2590  1788  1809    1
  2591  1788  1772    1
  2592  2253  2239    1
  2593  2253  2271    1
  2594  2794  2774    1
  2595  1743  1721    2
  2596    98    99    1
  2597  2258  2256    1
  2598  2258  2259    1
  2599  2517  2515    1
  2600  2517  2518    1
  2601  1300  1299    2
  2602   740   718    2
  2603  2507  2496    1
  2604  2736  2741    1
  2605   613   615    1
  2606   613   614    1
  2607  1773  1775    1
  2608  1773  1771    1
  2609  1773  1774    1
  2610  2757  2759    1
  2611  2757  2758    1
  2612  2471  2472    1
  2613  1284  1286    1
  2614  2739  2740    1
  2615  2739  2741    1
  2616  3335  3334   ar
  2617  3335  3337   ar
  2618   634   633    1
  2619   112   111    1
  2620  3681  3682   ar
  2621  1775  1770    1
  2622  1760  1759    1
  2623   727   722    1
  2624  2774  2760    1
  2625  2774  2776    1
  2626  1299  1293   ar
  2627  3011  3006    1
  2628  3011  3009    1
  2629  1297  1296   ar
  2630  3004  3003    1
  2631   676   655    2
  2632   610   612    1
  2633   610   596    1
  2634   610   631    1
  2635   633   635    1
  2636  3334  3332   ar
  2637  2489  2488    1
  2638   615   617    1
  2639  1286  1288    1
  2640  1765  1744    2
  2641  2273  2259    1
  2642  2273  2294    1
  2643  1761  1762   ar
  2644  1761  1758   ar
  2645  2750  2749   ar
  2646  2750  2751   ar
  2647  2760  2759    1
  2648  2719  2729    1
  2649   677   655    1
  2650  1744  1764    1
  2651  1744  1746    1
  2652  2533  2516    1
  2653  2533  2554    1
  2654  3205  3206   ar
  2655   127   128   ar
  2656   127   124   ar
  2657  3047  3046    1
  2658  3047  3045    1
  2659  3031  3029    1
  2660  3031  3026    1
  2661  3596  3597   ar
  2662  3596  3594   ar
  2663  2515  2516    1
  2664  2515  2513    1
  2665   712   714   ar
  2666   712   711   ar
  2667  3622  3600    2
  2668  2256  2254    1
  2669  1723  1721    1
  2670   596   595    1
  2671  3044  3022    2
  2672  2820  2819    1
  2673  1771  1772    1
  2674  1771  1769    1
  2675   618   617    1
  2676  3201  3218    1
  2677  3708  3686    2
  2678  3006  3005    1
  2679  3202  3203    1
  2680  3237  3238   ar
  2681   128   129   ar
  2682  2514  2513    1
  2683  2759  2761    1
  2684  3253  3252    2
  2685  2741  2751    1
  2686  2758  2763    1
  2687  3257  3258   ar
  2688  2512  2510    1
  2689  2512  2511    1
  2690  3686  3707    1
  2691  3686  3669    1
  2692  3029  3027    1
  2693  3029  3030    1
  2694  3252  3251   ar
  2695  3229  3230    1
  2696  3229  3231   ar
  2697  2812  2813   ar
  2698  3683  3682   ar
  2699  3683  3672    1
  2700  3597  3590   ar
  2701   720   718    1
  2702   720   719    1
  2703  1296  1294   ar
  2704  1293  1294   ar
  2705   111   113    1
  2706  2807  2808    2
  2707  2807  2806   ar
  2708  1721  1742    1
  2709  1721  1707    1
  2710  3208  3206   ar
  2711  3657  3656   ar
  2712  3657  3659   ar
  2713  2749  2746   ar
  2714  2819  2817    1
  2715  3296  3295    2
  2716  1762  1763   ar
  2717   126   125    1
  2718  3009  3007    1
  2719  3009  3010    1
  2720   714   715   ar
  2721   655   638    1
  2722   655   657    1
  2723   721   722    1
  2724   721   719    1
  2725  3064  3045    2
  2726   718   739    1
  2727   718   704    1
  2728  3218  3239    1
  2729  3218  3220    1
  2730  3345  3344    1
  2731  2510  2531    1
  2732  2510  2493    1
  2733  3315  3317   ar
  2734  3315  3314   ar
  2735  3232  3231   ar
  2736  3232  3238   ar
  2737   711   709   ar
  2738  2751  2745   ar
  2739  1759  1758   ar
  2740  1759  1754   ar
  2741  2790  2789    1
  2742  3670  3671    1
  2743  3670  3672    1
  2744  3670  3668    1
  2745  1294  1295    1
  2746  3337  3338   ar
  2747  1758  1757   ar
  2748  3344  3342    1
  2749   598   597    1
  2750   614   619    1
  2751  3007  3005    1
  2752  3007  3008    1
  2753   617   619    1
  2754  3206  3207    1
  2755  1290  1291    1
  2756  1290  1288    1
  2757  3595  3594    1
  2758  3583  3584    1
  2759  3583  3585    1
  2760  3656  3654   ar
  2761  1770  1769    1
  2762  1470  1469    1
  2763  3332  3333    2
  2764  3332  3331   ar
  2765  2496  2494    1
  2766  2496  2491    1
  2767  2492  2494    1
  2768  2492  2493    1
  2769  2492  2490    1
  2770  3584  3589    1
  2771   638   637    1
  2772   124   125   ar
  2773   124   123   ar
  2774  2729  2728   ar
  2775  2729  2723   ar
  2776  2513  2511    1
  2777  3026  3025    1
  2778  3027  3028    1
  2779  3027  3025    1
  2780  3003  3005    1
  2781  3594  3593   ar
  2782  3295  3297   ar
  2783  3295  3294   ar
  2784   114   113    1
  2785   114   119    1
  2786  1746  1745    1
  2787  1288  1289    1
  2788  3317  3318   ar
  2789  2776  2775    1
  2790  2791  2792   ar
  2791  2791  2788   ar
  2792   635   637    1
  2793   635   636    1
  2794  3045  3028    1
  2795  3045  3063    1
  2796  3297  3298   ar
  2797  2488  2490    1
  2798  3238  3227    1
  2799  2818  2817    1
  2800  2818  2816    1
  2801  2728  2727   ar
  2802   697   678    2
  2803  3672  3667    1
  2804  2494  2495    1
  2805  1745  1747    1
  2806   208   209   ar
  2807   208   213   ar
  2808  3638  3637    2
  2809  3617  3616    2
  2810   125   120   ar
  2811   566   545    2
  2812  2491  2490    1
  2813  3659  3660   ar
  2814  3314  3312   ar
  2815  3668  3669    1
  2816  3668  3666    1
  2817  1769  1767    1
  2818   238   239   ar
  2819   238   235   ar
  2820  3276  3275    1
  2821  3024  3022    1
  2822  3024  3023    1
  2823   129   123   ar
  2824   129   119    1
  2825  3585  3586    1
  2826  3585  3587    1
  2827  2813  2806   ar
  2828   715   708   ar
  2829   595   593    1
  2830   595   597    1
  2831  3600  3586    1
  2832  3600  3621    1
  2833  3600  3602    1
  2834  3289  3288    1
  2835  3258  3251   ar
  2836  3022  3008    1
  2837  3022  3043    1
  2838  3251  3250    1
  2839   717   698    2
  2840  2835  2816    2
  2841  2806  2805    1
  2842  3220  3219    1
  2843   239   240   ar
  2844   113   115    1
  2845   709   708   ar
  2846   709   710    2
  2847  3343  3342    1
  2848  3343  3341    1
  2849   637   639    1
  2850   209   210   ar
  2851   619   629    1
  2852   147   146    1
  2853  3618  3619   ar
  2854  3618  3615   ar
  2855   593   591    1
  2856   593   594    1
  2857  1763  1757   ar
  2858  1763  1753    1
  2859  2763  2761    1
  2860  2763  2764    1
  2861  3590  3589    1
  2862  3590  3591   ar
  2863  1754  1755   ar
  2864  3294  3292   ar
  2865  2746  2745   ar
  2866  2746  2747   ar
  2867  2761  2762    1
  2868  1707  1706    1
  2869   597   599    1
  2870  1466  1465    1
  2871  3338  3331   ar
  2872  1757  1756   ar
  2873  2789  2788   ar
  2874  2789  2784   ar
  2875  2792  2793   ar
  2876  3298  3291   ar
  2877  2745  2744   ar
  2878  1748  1747    1
  2879  1748  1753    1
  2880   657   656    1
  2881   214   213    1
  2882   350   329    2
  2883   591   592    1
  2884   123   122   ar
  2885  3025  3023    1
  2886  3331  3330    1
  2887   704   703    1
  2888   708   707    1
  2889   192   191    2
  2890   119   117    1
  2891  2788  2787   ar
  2892  3654  3655    2
  2893  3654  3653   ar
  2894  2723  2722   ar
  2895  2723  2724   ar
  2896   696   678    1
  2897  1767  1768    1
  2898  3320  3301    2
  2899  3589  3587    1
  2900   703   705    1
  2901   703   701    1
  2902  1469  1471   ar
  2903  1469  1468   ar
  2904  3360  3341    2
  2905   693   692    1
  2906   636   641    1
  2907  2815  2796    2
  2908  2766  2765    2
  2909  1289  1306    1
  2910  2816  2834    1
  2911  2816  2802    1
  2912   213   212   ar
  2913  2775  2777    1
  2914  3275  3274   ar
  2915  3275  3277   ar
  2916  1471  1472   ar
  2917  2722  2721   ar
  2918  3685  3663    2
  2919  2727  2724   ar
  2920  3616  3615   ar
  2921  3616  3610   ar
  2922   678   680    1
  2923   678   661    1
  2924  3593  3591   ar
  2925  3619  3620   ar
  2926  1747  1749    1
  2927   705   707    1
  2928   705   706    1
  2929  3602  3601    1
  2930   120   121   ar
  2931  3292  3291   ar
  2932  3292  3293    2
  2933   700   698    1
  2934   700   699    1
  2935  3318  3311   ar
  2936  2764  2765   ar
  2937  2764  2771   ar
  2938  3637  3639   ar
  2939  3637  3636   ar
  2940   237   236    2
  2941   317   316    1
  2942   315   329    1
  2943   315   314    1
  2944  3291  3290    1
  2945   716   698    1
  2946   698   684    1
  2947  2803  2805    1
  2948  2803  2801    1
  2949  2803  2804    1
  2950  3660  3653   ar
  2951  3667  3666    1
  2952   185   191   ar
  2953   185   186   ar
  2954   115   117    1
  2955   115   116    1
  2956  3274  3272   ar
  2957  3615  3614   ar
  2958  1447  1446   ar
  2959  1447  1448   ar
  2960  1753  1751    1
  2961  3227  3222    1
  2962  3227  3225    1
  2963  2765  2767   ar
  2964   651   650   ar
  2965   651   652   ar
  2966  3312  3311   ar
  2967  3312  3313    2
  2968  3587  3588    1
  2969   235   236   ar
  2970   235   234   ar
  2971   228   227    1
  2972   545   565    1
  2973   545   528    1
  2974   545   547    1
  2975  3222  3221    1
  2976   146   148   ar
  2977   146   145   ar
  2978   656   658    1
  2979  3591  3592    2
  2980  3288  3290    1
  2981  3288  3286    1
  2982  1755  1756   ar
  2983   312   310    1
  2984   312   314    1
  2985   312   313    1
  2986  2805  2800    1
  2987  3341  3359    1
  2988  3341  3327    1
  2989  3666  3664    1
  2990  3665  3663    1
  2991  3665  3664    1
  2992   694   692   ar
  2993   694   695   ar
  2994   330   332    1
  2995   330   331    1
  2996   310   311    1
  2997  2748  2747    1
  2998  2747  2742   ar
  2999   629   628   ar
  3000   629   623   ar
  3001   210   211   ar
  3002  3250  3248    1
  3003  3250  3245    1
  3004   594   599    1
  3005   169   168    2
  3006  2724  2725   ar
  3007   240   229    1
  3008   240   234   ar
  3009  3219  3221    1
  3010  3277  3278   ar
  3011   148   149   ar
  3012   592   590    1
  3013   191   190   ar
  3014   294   293    1
  3015  1323  1322    2
  3016  3639  3640   ar
  3017  3653  3652    1
  3018  2771  2770   ar
  3019  2784  2785   ar
  3020  1749  1751    1
  3021  1749  1750    1
  3022   187   186    1
  3023   692   691   ar
  3024  2744  2743   ar
  3025   599   600    1
  3026  1446  1451   ar
  3027   707   702    1
  3028  1706  1704    1
  3029  1706  1708    1
  3030  1465  1467    1
  3031  1465  1463    1
  3032   151   132    2
  3033  2801  2802    1
  3034  2801  2799    1
  3035   329   331    1
  3036   329   351    1
  3037   122   121   ar
  3038  3340  3321    2
  3039   628   627   ar
  3040  3328  3330    1
  3041  3328  3326    1
  3042  3328  3329    1
  3043  1489  1488    1
  3044  1324  1325   ar
  3045  1324  1321   ar
  3046   650   647   ar
  3047  1485  1484    1
  3048  1485  1490    1
  3049  3249  3248    1
  3050   639   641    1
  3051   639   640    1
  3052  1787  1766    2
  3053   236   230   ar
  3054   608   590    2
  3055  1468  1474   ar
  3056  2793  2787   ar
  3057  2793  2783    1
  3058   528   527    1
  3059   680   679    1
  3060  1704  1702    1
  3061  1704  1705    1
  3062  3311  3310    1
  3063  3330  3325    1
  3064  3290  3285    1
  3065   117   118    1
  3066   699   701    1
  3067  1467  1462    1
  3068  1467  1478    1
  3069  2787  2786   ar
  3070  2767  2768   ar
  3071   229   227    1
  3072   229   224    1
  3073  1484  1482    1
  3074  1484  1486    1
  3075  1768  1766    1
  3076   641   652    1
  3077  1448  1449   ar
  3078  1328  1306    2
  3079   314   316    1
  3080   701   702    1
  3081  3636  3634   ar
  3082  3663  3684    1
  3083  3663  3649    1
  3084  2721  2720   ar
  3085   546   547    1
  3086   546   548    1
  3087   661   660    1
  3088   186   188   ar
  3089   116   132    1
  3090  3272  3273    2
  3091  3272  3271   ar
  3092   332   333    1
  3093   332   334    1
  3094  1482  1483    1
  3095  3326  3327    1
  3096  3326  3324    1
  3097  3221  3223    1
  3098  1325  1326   ar
  3099  3301  3287    1
  3100  3301  3303    1
  3101  3301  3319    1
  3102  1751  1752    1
  3103   673   674   ar
  3104   673   670   ar
  3105   313   318    1
  3106   652   646   ar
  3107  2798  2796    1
  3108  2798  2797    1
  3109  3610  3611   ar
  3110  3248  3246    1
  3111  1322  1321   ar
  3112  1322  1316   ar
  3113  3287  3286    1
  3114  2777  2778    1
  3115  2777  2779    1
  3116  1472  1478   ar
  3117  1472  1473   ar
  3118  2796  2780    1
  3119  2796  2814    1
  3120   212   211   ar
  3121   212   215   ar
  3122  2770  2768   ar
  3123  3642  3623    2
  3124   234   233   ar
  3125  1306  1308    1
  3126  1306  1327    1
  3127  3225  3223    1
  3128  3225  3226    1
  3129   316   318    1
  3130  3223  3224    1
  3131  2778  2783    1
  3132   145   143   ar
  3133   695   688   ar
  3134  1321  1320   ar
  3135  3601  3603    1
  3136  3245  3244    1
  3137  3620  3614   ar
  3138  3620  3609    1
  3139  3278  3271   ar
  3140   674   675   ar
  3141   660   658    1
  3142   660   662    1
  3143   227   225    1
  3144  2779  2780    1
  3145  2779  2781    1
  3146   370   352    2
  3147   211   217   ar
  3148  3260  3241    2
  3149  1490  1488    1
  3150  1490  1501    1
  3151  2768  2769    2
  3152  1709  1708    1
  3153  3286  3284    1
  3154  3614  3613   ar
  3155   590   609    1
  3156   590   573    1
  3157   530   529    1
  3158  2800  2799    1
  3159   327   309    2
  3160   284   266    2
  3161  1702  1703    1
  3162   264   243    2
  3163  1462  1461    1
  3164   691   689   ar
  3165  2742  2743   ar
  3166   623   622   ar
  3167   623   624   ar
  3168   149   142   ar
  3169  1766  1750    1
  3170  1766  1786    1
  3171   684   683    1
  3172   658   659    1
  3173  1705  1710    1
  3174   335   334    1
  3175   335   352    1
  3176   168   162   ar
  3177   168   167   ar
  3178  2725  2720   ar
  3179  2725  2726    1
  3180   226   225    1
  3181   226   243    1
  3182  3271  3270    1
  3183  1478  1477   ar
  3184   132   150    1
  3185   132   134    1
  3186  1464  1463    1
  3187  1464  1481    1
  3188  3323  3321    1
  3189  3323  3322    1
  3190  2785  2786   ar
  3191   318   319    1
  3192  3303  3302    1
  3193   292   309    1
  3194   292   291    1
  3195  1424  1425   ar
  3196  1424  1429   ar
  3197  1408  1407    1
  3198  1708  1710    1
  3199   333   338    1
  3200   602   601    2
  3201   244   246    1
  3202   244   245    1
  3203  1488  1486    1
  3204  3648  3650    1
  3205  3648  3649    1
  3206  3648  3646    1
  3207   311   309    1
  3208  1710  1711    1
  3209  2783  2781    1
  3210  1461  1463    1
  3211  1461  1459    1
  3212  3604  3603    1
  3213  3604  3609    1
  3214   622   621   ar
  3215  3640  3633   ar
  3216   281   280    1
  3217   672   671    2
  3218   627   624   ar
  3219  3650  3652    1
  3220  3650  3651    1
  3221   190   193   ar
  3222   190   189   ar
  3223   683   681    1
  3224   683   685    1
  3225   293   291    1
  3226   293   295    1
  3227  2799  2797    1
  3228  3325  3324    1
  3229  1425  1426   ar
  3230  3652  3647    1
  3231  1451  1452    1
  3232  1451  1450   ar
  3233   679   681    1
  3234  1316  1317   ar
  3235  1308  1307    1
  3236   162   163   ar
  3237  3321  3339    1
  3238  3321  3307    1
  3239  1326  1320   ar
  3240  1326  1315    1
  3241   600   601   ar
  3242   600   607   ar
  3243   647   646   ar
  3244   647   648   ar
  3245   224   223    1
  3246  1320  1319   ar
  3247  1310  1315    1
  3248  1310  1309    1
  3249  1486  1487    1
  3250  1474  1473   ar
  3251  1474  1475    2
  3252   230   231   ar
  3253   337   336    1
  3254  1713  1712    2
  3255   255   254    1
  3256   527   525    1
  3257   527   529    1
  3258  1487  1504    1
  3259   334   336    1
  3260   670   671   ar
  3261   670   669   ar
  3262  3285  3284    1
  3263  1449  1450   ar
  3264  1449  1455   ar
  3265  3603  3605    1
  3266   309   328    1
  3267   688   689   ar
  3268   688   687    1
  3269   646   645   ar
  3270  3310  3308    1
  3271  3310  3305    1
  3272  1473  1476   ar
  3273  3634  3633   ar
  3274  3634  3635    2
  3275   225   223    1
  3276  3324  3322    1
  3277  2781  2782    1
  3278   289   291    1
  3279   289   290    1
  3280   289   287    1
  3281   188   189   ar
  3282   548   549    1
  3283   548   550    1
  3284   282   280   ar
  3285   282   283   ar
  3286  3605  3607    1
  3287  3605  3606    1
  3288   588   567    2
  3289   143   142   ar
  3290   143   144    2
  3291   352   371    1
  3292   352   354    1
  3293  3306  3308    1
  3294  3306  3307    1
  3295  3306  3304    1
  3296  3243  3241    1
  3297  3243  3242    1
  3298  3611  3613   ar
  3299  3611  3612    1
  3300  3609  3607    1
  3301  1483  1481    1
  3302   525   523    1
  3303   525   526    1
  3304   689   690    2
  3305   659   664    1
  3306   215   216   ar
  3307   601   603   ar
  3308   624   625   ar
  3309   243   245    1
  3310   243   265    1
  3311   246   247    1
  3312   246   248    1
  3313  1502  1481    2
  3314  3224  3241    1
  3315   671   665   ar
  3316  3308  3309    1
  3317   675   664    1
  3318   675   669   ar
  3319   529   531    1
  3320   142   141    1
  3321   573   572    1
  3322   523   524    1
  3323  3241  3259    1
  3324  1402  1407   ar
  3325  1402  1403   ar
  3326   193   194   ar
  3327   280   279   ar
  3328  1307  1309    1
  3329   233   231   ar
  3330  1444  1443    1
  3331   295   290    1
  3332   295   306    1
  3333  1315  1313    1
  3334  1430  1429    1
  3335  3246  3244    1
  3336  3246  3247    1
  3337  1344  1343    1
  3338  3644  3646    1
  3339  3644  3645    1
  3340  3270  3265    1
  3341  3270  3268    1
  3342  1719  1701    2
  3343  1501  1500   ar
  3344  1501  1495   ar
  3345  3284  3282    1
  3346   189   195   ar
  3347  3244  3242    1
  3348  3623  3606    1
  3349  3623  3641    1
  3350  3623  3625    1
  3351  1317  1319   ar
  3352  1317  1318    1
  3353   681   682    1
  3354  3662  3643    2
  3355   662   664    1
  3356   662   663    1
  3357   167   170   ar
  3358   167   166   ar
  3359  3647  3646    1
  3360  3633  3632    1
  3361  1407  1406   ar
  3362  3305  3304    1
  3363  1481  1503    1
  3364   134   133    1
  3365  1703  1701    1
  3366   217   216   ar
  3367   217   207    1
  3368  1429  1428   ar
  3369   170   171   ar
  3370   607   606   ar
  3371  1450  1453   ar
  3372  1381  1380    1
  3373   685   687    1
  3374   685   686    1
  3375   549   554    1
  3376   336   338    1
  3377   266   285    1
  3378   266   249    1
  3379   266   268    1
  3380   649   648    2
  3381   338   349    1
  3382  3265  3264    1
  3383   648   642   ar
  3384   231   232    1
  3385  1426  1427   ar
  3386   247   252    1
  3387   223   221    1
  3388   669   668   ar
  3389  3247  3261    1
  3390   621   620   ar
  3391  1477  1476   ar
  3392  3302  3304    1
  3393  1459  1460    1
  3394  1711  1712   ar
  3395  1711  1718   ar
  3396  3607  3608    1
  3397  1309  1311    1
  3398   283   276   ar
  3399  1712  1714   ar
  3400   163   164    1
  3401   163   165   ar
  3402   353   354    1
  3403   353   355    1
  3404   687   682    1
  3405   319   326   ar
  3406   319   320   ar
  3407  1445  1455    1
  3408  1445  1443    1
  3409  1445  1440    1
  3410   572   570    1
  3411   572   574    1
  3412  1522  1504    2
  3413  1500  1499   ar
  3414   287   288    1
  3415  1455  1454   ar
  3416  1443  1441    1
  3417   254   256   ar
  3418   254   253   ar
  3419   543   522    2
  3420  1494  1495   ar
  3421  1494  1492   ar
  3422  3625  3624    1
  3423   321   320    2
  3424   256   257   ar
  3425  1689  1688    1
  3426   645   643   ar
  3427   550   551    1
  3428   550   552    1
  3429   249   248    1
  3430   298   297    1
  3431   207   205    1
  3432   207   202    1
  3433   299   297   ar
  3434   299   300   ar
  3435   279   277   ar
  3436  1495  1496   ar
  3437  1403  1404   ar
  3438  1701  1687    1
  3439  1701  1720    1
  3440  1504  1506    1
  3441  1504  1523    1
  3442  1343  1342   ar
  3443  1343  1345   ar
  3444   526   531    1
  3445   248   250    1
  3446  1505  1506    1
  3447  1505  1507    1
  3448   665   666   ar
  3449   136   141    1
  3450   136   135    1
  3451   625   620   ar
  3452   625   626    1
  3453   603   604   ar
  3454   531   542    1
  3455   206   205    1
  3456   194   195   ar
  3457   268   267    1
  3458   141   139    1
  3459   524   522    1
  3460   567   551    1
  3461   567   589    1
  3462   567   569    1
  3463   326   325   ar
  3464   274   273    1
  3465   133   135    1
  3466  3645  3643    1
  3467  1364  1363    2
  3468   205   203    1
  3469   166   165   ar
  3470   166   172   ar
  3471  3282  3283    1
  3472   195   184    1
  3473   306   300   ar
  3474   306   305   ar
  3475   320   322   ar
  3476  1406  1409   ar
  3477  1406  1405   ar
  3478   570   568    1
  3479   570   571    1
  3480  1428  1427   ar
  3481  1428  1431   ar
  3482   563   562   ar
  3483   563   564   ar
  3484   568   569    1
  3485  1342  1340   ar
  3486  1427  1433   ar
  3487  1687  1686    1
  3488   171   172   ar
  3489   606   604   ar
  3490  3283  3281    1
  3491  1380  1379   ar
  3492  1380  1382   ar
  3493  3269  3268    1
  3494  3643  3661    1
  3495  3643  3629    1
  3496  3268  3266    1
  3497  1345  1346   ar
  3498   276   277   ar
  3499   276   275    1
  3500   510   509    1
  3501   349   348   ar
  3502   349   343   ar
  3503   273   275    1
  3504   273   271    1
  3505  1313  1311    1
  3506  1313  1314    1
  3507   642   643   ar
  3508   575   574    1
  3509   668   666   ar
  3510  1460  1458    1
  3511   297   296   ar
  3512  3632  3630    1
  3513  3632  3627    1
  3514  1453  1454   ar
  3515  3264  3266    1
  3516  3264  3262    1
  3517  1311  1312    1
  3518   348   347   ar
  3519   252   250    1
  3520   252   263    1
  3521  3267  3266    1
  3522  3267  3281    1
  3523   554   552    1
  3524   554   564    1
  3525  1718  1717   ar
  3526   277   278    2
  3527  1379  1385   ar
  3528  3628  3630    1
  3529  3628  3629    1
  3530  3628  3626    1
  3531   221   222    1
  3532  1493  1492    1
  3533  1440  1439    1
  3534   300   301   ar
  3535   643   644    1
  3536  1492  1491   ar
  3537   253   259   ar
  3538   552   553    1
  3539   522   508    1
  3540   522   544    1
  3541  1714  1715   ar
  3542  1507  1508    1
  3543  1507  1509    1
  3544  1499  1496   ar
  3545   666   667    1
  3546  3263  3261    1
  3547  3263  3262    1
  3548   574   576    1
  3549  3630  3631    1
  3550  1409  1410   ar
  3551   288   286    1
  3552   355   356    1
  3553   355   357    1
  3554  3627  3626    1
  3555  3261  3280    2
  3556  3261  3279    1
  3557   135   137    1
  3558   604   605    2
  3559  1508  1513    1
  3560  1496  1497   ar
  3561  1688  1686    1
  3562  1688  1690    1
  3563   257   263   ar
  3564   257   258   ar
  3565   202   201    1
  3566   562   559   ar
  3567   564   558   ar
  3568   508   507    1
  3569  1404  1405   ar
  3570  3624  3626    1
  3571   172   161    1
  3572  1441  1439    1
  3573  1441  1442    1
  3574  1362  1363   ar
  3575  1362  1360   ar
  3576  1363  1365   ar
  3577  1670  1669    1
  3578   174   152    2
  3579   250   251    1
  3580   137   139    1
  3581   137   138    1
  3582   222   220    1
  3583  3300  3281    2
  3584  1405  1411   ar
  3585  1382  1383   ar
  3586   275   270    1
  3587  1340  1341    2
  3588  1340  1339   ar
  3589   139   140    1
  3590  3281  3299    1
  3591  1693  1692    2
  3592  1346  1339   ar
  3593   271   269    1
  3594   271   272    1
  3595   263   262   ar
  3596   509   507    1
  3597   509   511    1
  3598   542   541   ar
  3599   542   536   ar
  3600   356   361    1
  3601  1686  1684    1
  3602   305   304   ar
  3603  1439  1437    1
  3604   184   182    1
  3605   184   179    1
  3606  1442  1458    1
  3607   267   269    1
  3608  1431  1432   ar
  3609   325   323   ar
  3610  1433  1423    1
  3611  1433  1432   ar
  3612   322   323   ar
  3613   571   576    1
  3614   391   372    2
  3615   514   513    2
  3616   203   201    1
  3617   203   204    1
  3618   343   342   ar
  3619   343   344   ar
  3620   576   587    1
  3621   358   357    1
  3622   358   372    1
  3623   347   344   ar
  3624  1491  1497   ar
  3625  1717  1715   ar
  3626  1312  1329    1
  3627  1339  1338    1
  3628   390   372    1
  3629  1385  1386    2
  3630  1385  1384   ar
  3631  1715  1716    1
  3632   270   269    1
  3633   296   302   ar
  3634  1458  1479    2
  3635  1458  1480    1
  3636  1348  1329    2
  3637   357   359    1
  3638   535   536   ar
  3639   535   533   ar
  3640  1361  1360    2
  3641  1497  1498    2
  3642  1410  1411   ar
  3643   259   258   ar
  3644   259   260    2
  3645   507   505    1
  3646   182   183    1
  3647   182   180    1
  3648   301   304   ar
  3649   301   302   ar
  3650  1360  1359   ar
  3651   258   261   ar
  3652  1690  1685    1
  3653  1690  1691    1
  3654   342   340   ar
  3655   541   540   ar
  3656  1684  1685    1
  3657  1684  1682    1
  3658  1423  1421    1
  3659  1423  1418    1
  3660   201   199    1
  3661  1513  1511    1
  3662  1513  1514    1
  3663  1509  1510    1
  3664  1509  1511    1
  3665   372   374    1
  3666  1510  1524    1
  3667   536   537   ar
  3668   559   558   ar
  3669   559   560   ar
  3670  1365  1366   ar
  3671   286   308    2
  3672   286   272    1
  3673   286   307    1
  3674   323   324    1
  3675   558   557   ar
  3676  1422  1421    1
  3677  1411  1401    1
  3678   138   152    1
  3679  1512  1511    1
  3680  1383  1384   ar
  3681  1383  1389   ar
  3682  1421  1419    1
  3683  1669  1671   ar
  3684  1669  1668   ar
  3685   152   154    1
  3686   152   173    1
  3687   344   345   ar
  3688   179   178    1
  3689   161   156    1
  3690   161   159    1
  3691   242   220    2
  3692  1692  1691   ar
  3693  1692  1694   ar
  3694   204   220    1
  3695  1521  1514   ar
  3696  1521  1520   ar
  3697   369   368   ar
  3698   369   362   ar
  3699   220   241    1
  3700   511   512    1
  3701   511   506    1
  3702   513   512   ar
  3703   513   515   ar
  3704   262   261   ar
  3705   302   303    2
  3706  1329  1331    1
  3707  1329  1347    1
  3708  1384  1387   ar
  3709  1545  1524    2
  3710   534   533    1
  3711   361   359    1
  3712   361   362    1
  3713   154   153    1
  3714  1338  1333    1
  3715  1338  1336    1
  3716  1333  1332    1
  3717   533   532   ar
  3718   200   199    1
  3719   200   198    1
  3720  1437  1438    1
  3721   156   155    1
  3722   505   506    1
  3723   505   503    1
  3724  1514  1515   ar
  3725   180   178    1
  3726   180   181    1
  3727   368   366   ar
  3728  1691  1698   ar
  3729  1671  1672   ar
  3730   587   586   ar
  3731   587   581   ar
  3732  1359  1366   ar
  3733  1359  1358    1
  3734  1546  1524    1
  3735  1524  1526    1
  3736  1682  1683    1
  3737  1668  1674   ar
  3738   359   360    1
  3739  1331  1330    1
  3740   512   519   ar
  3741   540   537   ar
  3742   515   516   ar
  3743  1520  1518   ar
  3744   557   556   ar
  3745  1666  1665    1
  3746  1438  1436    1
  3747   537   538   ar
  3748  1418  1417    1
  3749   560   561    1
  3750   560   555   ar
  3751   340   341    1
  3752   340   339   ar
  3753  1694  1695   ar
  3754   362   363   ar
  3755   219   198    2
  3756  1683  1681    1
  3757   159   157    1
  3758   159   160    1
  3759  1389  1378    1
  3760  1389  1388   ar
  3761  1401  1399    1
  3762  1401  1396    1
  3763   178   176    1
  3764   580   581   ar
  3765   580   578   ar
  3766  1378  1376    1
  3767  1378  1373    1
  3768   374   373    1
  3769   586   585   ar
  3770  1377  1376    1
  3771   345   339   ar
  3772   345   346    2
  3773  1419  1417    1
  3774  1419  1420    1
  3775   157   155    1
  3776   157   158    1
  3777   581   582   ar
  3778   176   177    1
  3779   153   155    1
  3780   198   181    1
  3781   198   218    1
  3782  1387  1388   ar
  3783  1330  1332    1
  3784   532   538   ar
  3785   503   504    1
  3786  1358  1353    1
  3787  1358  1356    1
  3788   491   490   ar
  3789   491   492   ar
  3790   490   495   ar
  3791  1332  1334    1
  3792  1515  1516    2
  3793  1515  1517   ar
  3794  1376  1374    1
  3795  1336  1334    1
  3796  1336  1337    1
  3797  1665  1667    1
  3798  1665  1663    1
  3799   197   175    2
  3800   519   518   ar
  3801  1698  1697   ar
  3802   556   555   ar
  3803  1399  1400    1
  3804  1399  1397    1
  3805   516   517    2
  3806   516   518   ar
  3807   538   539    2
  3808  1672  1673   ar
  3809  1672  1678   ar
  3810   366   367    1
  3811   366   365   ar
  3812  1396  1395    1
  3813  1417  1415    1
  3814   373   375    1
  3815   579   578    1
  3816  1674  1675    2
  3817  1674  1673   ar
  3818  1518  1517   ar
  3819  1518  1519    1
  3820  1526  1525    1
  3821  1420  1436    1
  3822  1373  1372    1
  3823  1699  1681    2
  3824   578   577   ar
  3825  1695  1697   ar
  3826  1695  1696    1
  3827  1436  1457    2
  3828  1436  1456    1
  3829   363   365   ar
  3830   363   364    2
  3831  1334  1335    1
  3832  1681  1664    1
  3833  1681  1700    1
  3834  1353  1352    1
  3835   177   175    1
  3836   504   502    1
  3837  1667  1678    1
  3838  1667  1662    1
  3839  1525  1527    1
  3840   585   582   ar
  3841   492   493   ar
  3842   582   583   ar
  3843  1664  1663    1
  3844  1673  1676   ar
  3845   158   175    1
  3846  1356  1357    1
  3847  1356  1354    1
  3848   495   496    1
  3849   495   494   ar
  3850   388   389   ar
  3851   388   386   ar
  3852  1397  1395    1
  3853  1397  1398    1
  3854  1678  1677   ar
  3855   175   196    1
  3856  1542  1543   ar
  3857  1542  1539   ar
  3858  1663  1661    1
  3859  1416  1415    1
  3860  1416  1414    1
  3861  1543  1544   ar
  3862   389   382   ar
  3863  1395  1393    1
  3864  1374  1372    1
  3865  1374  1375    1
  3866  1372  1370    1
  3867   577   583   ar
  3868   375   376    1
  3869   375   377    1
  3870  1394  1393    1
  3871  1394  1392    1
  3872   387   386    1
  3873  1528  1527    1
  3874  1528  1533    1
  3875   376   381    1
  3876   493   494   ar
  3877   493   499   ar
  3878  1662  1661    1
  3879   520   502    2
  3880  1335  1349    1
  3881   583   584    2
  3882  1435  1414    2
  3883   411   392    2
  3884   494   497   ar
  3885  1661  1659    1
  3886  1527  1529    1
  3887  1541  1540    2
  3888   386   385   ar
  3889  1368  1349    2
  3890   488   487    1
  3891  1352  1354    1
  3892  1352  1350    1
  3893   502   521    1
  3894   502   486    1
  3895  1354  1355    1
  3896  1398  1414    1
  3897  1676  1677   ar
  3898  1351  1349    1
  3899  1351  1350    1
  3900  1539  1540   ar
  3901  1539  1538   ar
  3902   429   428    2
  3903  1375  1392    1
  3904   487   489    1
  3905   487   485    1
  3906  1414  1434    1
  3907   377   378    1
  3908   377   379    1
  3909  1544  1533    1
  3910  1544  1538   ar
  3911  1650  1649    2
  3912  1540  1534   ar
  3913  1349  1367    1
  3914   382   381    1
  3915   382   383   ar
  3916   378   392    1
  3917  1370  1371    1
  3918  1567  1547    2
  3919  1651  1649   ar
  3920  1651  1652   ar
  3921  1392  1413    2
  3922  1392  1412    1
  3923   410   392    1
  3924  1533  1531    1
  3925   392   394    1
  3926   499   489    1
  3927   499   498   ar
  3928   486   485    1
  3929  1371  1369    1
  3930   469   468    1
  3931   381   379    1
  3932  1538  1537   ar
  3933   497   498   ar
  3934   489   484    1
  3935  1529  1531    1
  3936  1529  1530    1
  3937  1653  1652    1
  3938  1632  1631    2
  3939   485   483    1
  3940  1649  1648   ar
  3941  1568  1547    1
  3942   467   468   ar
  3943   467   473   ar
  3944   385   383   ar
  3945  1355  1369    1
  3946   407   406    1
  3947  1659  1660    1
  3948   428   422   ar
  3949   428   427   ar
  3950   474   473    2
  3951  1625  1631   ar
  3952  1625  1626   ar
  3953   383   384    2
  3954   379   380    1
  3955  1652  1654   ar
  3956  1547  1530    1
  3957  1547  1549    1
  3958   422   423   ar
  3959   468   470   ar
  3960  1534  1535   ar
  3961   408   406   ar
  3962   408   409   ar
  3963  1609  1608    2
  3964  1391  1369    2
  3965  1627  1626    1
  3966  1369  1390    1
  3967  1531  1532    1
  3968   473   472   ar
  3969  1631  1630   ar
  3970  1660  1658    1
  3971  1537  1535   ar
  3972   406   405   ar
  3973  1586  1585    2
  3974   394   393    1
  3975  1646  1645    1
  3976  1626  1628   ar
  3977   484   483    1
  3978  1535  1536    1
  3979  1648  1647    1
  3980  1648  1655   ar
  3981   483   481    1
  3982   427   430   ar
  3983   427   426   ar
  3984   430   431   ar
  3985  1645  1647    1
  3986  1645  1643    1
  3987   409   402   ar
  3988   470   471   ar
  3989   423   424    1
  3990   423   425   ar
  3991  1654  1655   ar
  3992  1647  1642    1
  3993  1608  1602   ar
  3994  1608  1607   ar
  3995  1549  1548    1
  3996   472   471   ar
  3997   472   475   ar
  3998  1587  1584   ar
  3999  1587  1588   ar
  4000  1630  1633   ar
  4001  1630  1629   ar
  4002  1602  1603   ar
  4003  1585  1584   ar
  4004  1585  1579   ar
  4005   393   395    1
  4006  1548  1550    1
  4007   405   403   ar
  4008   471   477   ar
  4009   482   481    1
  4010   482   480    1
  4011  1658  1680    2
  4012  1658  1679    1
  4013  1658  1644    1
  4014   426   425   ar
  4015   426   432   ar
  4016  1628  1629   ar
  4017  1591  1569    2
  4018   431   432   ar
  4019  1584  1583   ar
  4020  1643  1644    1
  4021  1643  1641    1
  4022   402   403   ar
  4023   402   401    1
  4024  1607  1610   ar
  4025  1607  1606   ar
  4026  1633  1634   ar
  4027   475   476   ar
  4028  1629  1635   ar
  4029  1610  1611   ar
  4030  1588  1589   ar
  4031   451   450    1
  4032   434   412    2
  4033  1590  1569    1
  4034  1642  1641    1
  4035  1579  1580   ar
  4036   501   480    2
  4037   403   404    2
  4038   396   395    1
  4039   396   401    1
  4040   432   421    1
  4041   395   397    1
  4042  1603  1604    1
  4043  1603  1605   ar
  4044   477   476   ar
  4045   477   466    1
  4046   480   500    1
  4047   480   463    1
  4048  1569  1553    1
  4049  1569  1571    1
  4050  1550  1551    1
  4051  1550  1552    1
  4052  1641  1639    1
  4053   397   399    1
  4054   397   398    1
  4055   401   399    1
  4056   464   465    1
  4057   464   466    1
  4058   464   462    1
  4059  1583  1589   ar
  4060  1583  1582   ar
  4061  1564  1565   ar
  4062  1564  1561   ar
  4063  1634  1635   ar
  4064  1606  1605   ar
  4065  1606  1612   ar
  4066  1565  1566   ar
  4067  1635  1624    1
  4068  1589  1578    1
  4069  1611  1612   ar
  4070   450   445   ar
  4071   450   449   ar
  4072  1551  1556    1
  4073  1552  1553    1
  4074  1552  1554    1
  4075   466   461    1
  4076   412   398    1
  4077   412   414    1
  4078   412   433    1
  4079  1580  1582   ar
  4080  1580  1581    1
  4081   399   400    1
  4082  1571  1570    1
  4083  1570  1572    1
  4084   462   463    1
  4085   462   460    1
  4086  1614  1592    2
  4087   452   449   ar
  4088   452   453   ar
  4089   456   435    2
  4090   421   419    1
  4091   421   416    1
  4092   445   446   ar
  4093   414   413    1
  4094   449   448   ar
  4095  1612  1601    1
  4096  1563  1562    1
  4097  1640  1639    1
  4098  1640  1638    1
  4099  1561  1562   ar
  4100  1561  1560   ar
  4101  1566  1556    1
  4102  1566  1560   ar
  4103   419   417    1
  4104   419   420    1
  4105  1573  1578    1
  4106  1573  1572    1
  4107  1624  1622    1
  4108  1624  1619    1
  4109  1556  1554    1
  4110  1578  1576    1
  4111   416   415    1
  4112  1622  1623    1
  4113  1622  1620    1
  4114   417   415    1
  4115   417   418    1
  4116  1562  1557   ar
  4117  1572  1574    1
  4118  1554  1555    1
  4119  1574  1576    1
  4120  1574  1575    1
  4121   461   460    1
  4122  1560  1559   ar
  4123   453   454   ar
  4124  1657  1638    2
  4125  1637  1615    2
  4126   460   458    1
  4127   446   447   ar
  4128  1592  1594    1
  4129  1592  1575    1
  4130  1592  1613    1
  4131   413   415    1
  4132   435   418    1
  4133   435   437    1
  4134   435   455    1
  4135  1620  1621    1
  4136  1620  1618    1
  4137   448   454   ar
  4138   448   447   ar
  4139  1576  1577    1
  4140  1638  1621    1
  4141  1638  1656    1
  4142   459   458    1
  4143   459   457    1
  4144   479   457    2
  4145  1594  1593    1
  4146  1601  1599    1
  4147  1601  1596    1
  4148  1619  1618    1
  4149  1557  1558   ar
  4150  1559  1558   ar
  4151   454   444    1
  4152  1617  1615    1
  4153  1617  1616    1
  4154   437   436    1
  4155  1599  1597    1
  4156  1599  1600    1
  4157  1597  1595    1
  4158  1597  1598    1
  4159  1596  1595    1
  4160  1615  1598    1
  4161  1615  1636    1
  4162   457   478    1
  4163   457   441    1
  4164  1618  1616    1
  4165  1593  1595    1
  4166   440   442    1
  4167   440   441    1
  4168   440   438    1
  4169   444   442    1
  4170   444   439    1
  4171   442   443    1
  4172   436   438    1
  4173   439   438    1
