ligand
 OpenBabel11021811473D
libRbt.so/2013.1/901 2013/11/27
 10  9  0  0  0  0  0  0  0  0999 V2000
   31.1548   16.9925   20.0370 N   0  0  0  0  0  0  0  0  0  0  0  0
   31.1696   17.1556   21.5218 C   0  0  2  0  0  0  0  0  0  0  0  0
   32.5302   17.6229   22.0213 C   0  0  0  0  0  0  0  0  0  0  0  0
   32.6315   18.5019   22.8702 O   0  0  0  0  0  0  0  0  0  0  0  0
   30.7468   15.8602   22.2191 C   0  0  0  0  0  0  0  0  0  0  0  0
   29.2748   15.5263   22.0480 C   0  0  0  0  0  0  0  0  0  0  0  0
   28.9478   15.1455   20.6094 C   0  0  0  0  0  0  0  0  0  0  0  0
   27.4560   14.9076   20.4424 C   0  0  0  0  0  0  0  0  0  0  0  0
   27.0806   14.5354   19.0320 N   0  0  0  0  0  0  0  0  0  0  0  0
   33.5757   17.1266   21.6242 O   0  0  0  0  0  0  0  0  0  0  0  0
  2  1  1  6  0  0  0
  2  3  1  0  0  0  0
  2  5  1  0  0  0  0
  3  4  1  0  0  0  0
  3 10  1  0  0  0  0
  5  6  1  0  0  0  0
  6  7  1  0  0  0  0
  7  8  1  0  0  0  0
  8  9  1  0  0  0  0
M  END
>  <CHROM.1>
136.47348717,-70.20888387,68.78097457,-176.16830410,179.66452248,30.49644586
16.35468923,21.25798084,-0.35883600,-0.50523203,-1.60870309

>  <Name>
ligand

>  <RI>
0

>  <Rbt.Current_Directory>
/home/itssahil/PROJECTS/Mol_Feturizer/New_Systems/rnas/3DIZ

>  <Rbt.Executable>
rbdock ($Id: //depot/dev/client3/rdock/2013.1/src/exe/rbdock.cxx#4 $)

>  <Rbt.Library>
libRbt.so (2013.1, Build901 2013/11/27)

>  <Rbt.Parameter_File>
/export/apps/rDock/src/rDock_2013.1_src/data/scripts/dock_solv.prm

>  <Rbt.Receptor>
prm/pocket_docking_2.prm

>  <SCORE>
-6.75782

>  <SCORE.INTER>
-6.39568

>  <SCORE.INTER.CONST>
1

>  <SCORE.INTER.POLAR>
0

>  <SCORE.INTER.ROT>
5

>  <SCORE.INTER.SOLV>
14.8961

>  <SCORE.INTER.VDW>
-16.1625

>  <SCORE.INTER.norm>
-0.639568

>  <SCORE.INTRA>
-0.372334

>  <SCORE.INTRA.DIHEDRAL>
-1.40853

>  <SCORE.INTRA.DIHEDRAL.0>
3.67053

>  <SCORE.INTRA.POLAR>
0

>  <SCORE.INTRA.POLAR.0>
0

>  <SCORE.INTRA.REPUL>
0

>  <SCORE.INTRA.REPUL.0>
0

>  <SCORE.INTRA.SOLV>
0.522227

>  <SCORE.INTRA.SOLV.lig_0>
-32.0553

>  <SCORE.INTRA.VDW>
0.0708189

>  <SCORE.INTRA.VDW.0>
-0.571921

>  <SCORE.INTRA.norm>
-0.0372334

>  <SCORE.RESTR>
0.0101883

>  <SCORE.RESTR.CAVITY>
0.0101883

>  <SCORE.RESTR.norm>
0.00101883

>  <SCORE.SYSTEM>
0

>  <SCORE.SYSTEM.CONST>
0

>  <SCORE.SYSTEM.DIHEDRAL>
0

>  <SCORE.SYSTEM.SOLV>
0

>  <SCORE.SYSTEM.norm>
0

>  <SCORE.heavy>
10

>  <SCORE.norm>
-0.675782

>  <RMSD>
0.973

$$$$
ligand
 OpenBabel11021811473D
libRbt.so/2013.1/901 2013/11/27
 10  9  0  0  0  0  0  0  0  0999 V2000
   31.3712   16.3796   20.0460 N   0  0  0  0  0  0  0  0  0  0  0  0
   30.8683   16.8566   21.3692 C   0  0  2  0  0  0  0  0  0  0  0  0
   31.9725   17.5165   22.1843 C   0  0  0  0  0  0  0  0  0  0  0  0
   33.0464   16.9565   22.3761 O   0  0  0  0  0  0  0  0  0  0  0  0
   30.2195   15.7129   22.1529 C   0  0  0  0  0  0  0  0  0  0  0  0
   28.7823   15.4329   21.7484 C   0  0  0  0  0  0  0  0  0  0  0  0
   28.6915   14.9098   20.3203 C   0  0  0  0  0  0  0  0  0  0  0  0
   27.2431   14.6708   19.9266 C   0  0  0  0  0  0  0  0  0  0  0  0
   27.1037   14.1028   18.5386 N   0  0  0  0  0  0  0  0  0  0  0  0
   31.8518   18.6388   22.6565 O   0  0  0  0  0  0  0  0  0  0  0  0
  2  1  1  6  0  0  0
  2  3  1  0  0  0  0
  2  5  1  0  0  0  0
  3  4  1  0  0  0  0
  3 10  1  0  0  0  0
  5  6  1  0  0  0  0
  6  7  1  0  0  0  0
  7  8  1  0  0  0  0
  8  9  1  0  0  0  0
M  END
>  <CHROM.1>
-51.50550128,-81.92320316,65.95276737,-178.55840106,-177.82263714,30.14861492
16.13967520,21.15438811,-0.60803504,-0.41486466,-1.90054814

>  <Name>
ligand

>  <RI>
0

>  <Rbt.Current_Directory>
/home/itssahil/PROJECTS/Mol_Feturizer/New_Systems/rnas/3DIZ

>  <Rbt.Executable>
rbdock ($Id: //depot/dev/client3/rdock/2013.1/src/exe/rbdock.cxx#4 $)

>  <Rbt.Library>
libRbt.so (2013.1, Build901 2013/11/27)

>  <Rbt.Parameter_File>
/export/apps/rDock/src/rDock_2013.1_src/data/scripts/dock_solv.prm

>  <Rbt.Receptor>
prm/pocket_docking_2.prm

>  <SCORE>
-6.74532

>  <SCORE.INTER>
-6.67883

>  <SCORE.INTER.CONST>
1

>  <SCORE.INTER.POLAR>
0

>  <SCORE.INTER.ROT>
5

>  <SCORE.INTER.SOLV>
15.7969

>  <SCORE.INTER.VDW>
-16.6515

>  <SCORE.INTER.norm>
-0.667883

>  <SCORE.INTRA>
-0.0808844

>  <SCORE.INTRA.DIHEDRAL>
-0.236008

>  <SCORE.INTRA.DIHEDRAL.0>
3.67053

>  <SCORE.INTRA.POLAR>
0

>  <SCORE.INTRA.POLAR.0>
0

>  <SCORE.INTRA.REPUL>
0

>  <SCORE.INTRA.REPUL.0>
0

>  <SCORE.INTRA.SOLV>
0.201835

>  <SCORE.INTRA.SOLV.lig_0>
-32.0553

>  <SCORE.INTRA.VDW>
-0.0637979

>  <SCORE.INTRA.VDW.0>
-0.571921

>  <SCORE.INTRA.norm>
-0.00808844

>  <SCORE.RESTR>
0.0143911

>  <SCORE.RESTR.CAVITY>
0.0143911

>  <SCORE.RESTR.norm>
0.00143911

>  <SCORE.SYSTEM>
0

>  <SCORE.SYSTEM.CONST>
0

>  <SCORE.SYSTEM.DIHEDRAL>
0

>  <SCORE.SYSTEM.SOLV>
0

>  <SCORE.SYSTEM.norm>
0

>  <SCORE.heavy>
10

>  <SCORE.norm>
-0.674532

>  <RMSD>
0.991

$$$$
ligand
 OpenBabel11021811473D
libRbt.so/2013.1/901 2013/11/27
 10  9  0  0  0  0  0  0  0  0999 V2000
   32.1732   15.8548   19.7329 N   0  0  0  0  0  0  0  0  0  0  0  0
   31.0408   16.4965   20.4659 C   0  0  2  0  0  0  0  0  0  0  0  0
   31.5039   17.1273   21.7723 C   0  0  0  0  0  0  0  0  0  0  0  0
   32.3680   16.6006   22.4648 O   0  0  0  0  0  0  0  0  0  0  0  0
   29.9107   15.4941   20.7134 C   0  0  0  0  0  0  0  0  0  0  0  0
   28.7249   16.0817   21.4593 C   0  0  0  0  0  0  0  0  0  0  0  0
   27.5673   15.0946   21.5423 C   0  0  0  0  0  0  0  0  0  0  0  0
   26.7549   15.1101   20.2578 C   0  0  0  0  0  0  0  0  0  0  0  0
   27.5464   14.6460   19.0633 N   0  0  0  0  0  0  0  0  0  0  0  0
   31.0609   18.1950   22.1733 O   0  0  0  0  0  0  0  0  0  0  0  0
  2  1  1  1  0  0  0
  2  3  1  0  0  0  0
  2  5  1  0  0  0  0
  3  4  1  0  0  0  0
  3 10  1  0  0  0  0
  5  6  1  0  0  0  0
  6  7  1  0  0  0  0
  7  8  1  0  0  0  0
  8  9  1  0  0  0  0
M  END
>  <CHROM.1>
-37.04581855,179.88386951,173.56355186,-81.77811106,63.91927371,29.88498104
16.08927263,20.99485573,-0.46089955,-0.20495163,-2.13515522

>  <Name>
ligand

>  <RI>
0

>  <Rbt.Current_Directory>
/home/itssahil/PROJECTS/Mol_Feturizer/New_Systems/rnas/3DIZ

>  <Rbt.Executable>
rbdock ($Id: //depot/dev/client3/rdock/2013.1/src/exe/rbdock.cxx#4 $)

>  <Rbt.Library>
libRbt.so (2013.1, Build901 2013/11/27)

>  <Rbt.Parameter_File>
/export/apps/rDock/src/rDock_2013.1_src/data/scripts/dock_solv.prm

>  <Rbt.Receptor>
prm/pocket_docking_5.prm

>  <SCORE>
-7.11292

>  <SCORE.INTER>
-7.7059

>  <SCORE.INTER.CONST>
1

>  <SCORE.INTER.POLAR>
0

>  <SCORE.INTER.ROT>
5

>  <SCORE.INTER.SOLV>
15.1155

>  <SCORE.INTER.VDW>
-17.1091

>  <SCORE.INTER.norm>
-0.77059

>  <SCORE.INTRA>
0.592979

>  <SCORE.INTRA.DIHEDRAL>
-0.0995752

>  <SCORE.INTRA.DIHEDRAL.0>
3.67053

>  <SCORE.INTRA.POLAR>
0

>  <SCORE.INTRA.POLAR.0>
0

>  <SCORE.INTRA.REPUL>
0

>  <SCORE.INTRA.REPUL.0>
0

>  <SCORE.INTRA.SOLV>
0.634431

>  <SCORE.INTRA.SOLV.lig_0>
-32.0553

>  <SCORE.INTRA.VDW>
0.325552

>  <SCORE.INTRA.VDW.0>
-0.571921

>  <SCORE.INTRA.norm>
0.0592979

>  <SCORE.RESTR>
0

>  <SCORE.RESTR.CAVITY>
0

>  <SCORE.RESTR.norm>
0

>  <SCORE.SYSTEM>
0

>  <SCORE.SYSTEM.CONST>
0

>  <SCORE.SYSTEM.DIHEDRAL>
0

>  <SCORE.SYSTEM.SOLV>
0

>  <SCORE.SYSTEM.norm>
0

>  <SCORE.heavy>
10

>  <SCORE.norm>
-0.711292

>  <RMSD>
1.044

$$$$
ligand
 OpenBabel11021811473D
libRbt.so/2013.1/901 2013/11/27
 10  9  0  0  0  0  0  0  0  0999 V2000
   31.8624   16.2775   20.3249 N   0  0  0  0  0  0  0  0  0  0  0  0
   31.1525   17.1750   21.2851 C   0  0  2  0  0  0  0  0  0  0  0  0
   32.1164   17.8048   22.2818 C   0  0  0  0  0  0  0  0  0  0  0  0
   31.9117   18.9187   22.7517 O   0  0  0  0  0  0  0  0  0  0  0  0
   30.0310   16.4253   22.0085 C   0  0  0  0  0  0  0  0  0  0  0  0
   28.8656   16.0521   21.1084 C   0  0  0  0  0  0  0  0  0  0  0  0
   27.8198   15.2316   21.8531 C   0  0  0  0  0  0  0  0  0  0  0  0
   26.6293   14.9366   20.9555 C   0  0  0  0  0  0  0  0  0  0  0  0
   27.0213   14.2372   19.6803 N   0  0  0  0  0  0  0  0  0  0  0  0
   33.1158   17.2215   22.6794 O   0  0  0  0  0  0  0  0  0  0  0  0
  2  1  1  6  0  0  0
  2  3  1  0  0  0  0
  2  5  1  0  0  0  0
  3  4  1  0  0  0  0
  3 10  1  0  0  0  0
  5  6  1  0  0  0  0
  6  7  1  0  0  0  0
  7  8  1  0  0  0  0
  8  9  1  0  0  0  0
M  END
>  <CHROM.1>
148.90966760,-68.89245943,176.33109764,176.83886018,56.28874119,30.08423144
16.44927565,21.51768501,-0.53087559,-0.24729869,-2.24754021

>  <Name>
ligand

>  <RI>
0

>  <Rbt.Current_Directory>
/home/itssahil/PROJECTS/Mol_Feturizer/New_Systems/rnas/3DIZ

>  <Rbt.Executable>
rbdock ($Id: //depot/dev/client3/rdock/2013.1/src/exe/rbdock.cxx#4 $)

>  <Rbt.Library>
libRbt.so (2013.1, Build901 2013/11/27)

>  <Rbt.Parameter_File>
/export/apps/rDock/src/rDock_2013.1_src/data/scripts/dock_solv.prm

>  <Rbt.Receptor>
prm/pocket_docking_2.prm

>  <SCORE>
-9.10216

>  <SCORE.INTER>
-8.13804

>  <SCORE.INTER.CONST>
1

>  <SCORE.INTER.POLAR>
0

>  <SCORE.INTER.ROT>
5

>  <SCORE.INTER.SOLV>
15.1959

>  <SCORE.INTER.VDW>
-17.424

>  <SCORE.INTER.norm>
-0.813804

>  <SCORE.INTRA>
-0.964111

>  <SCORE.INTRA.DIHEDRAL>
-1.75339

>  <SCORE.INTRA.DIHEDRAL.0>
3.67053

>  <SCORE.INTRA.POLAR>
0

>  <SCORE.INTRA.POLAR.0>
0

>  <SCORE.INTRA.REPUL>
0

>  <SCORE.INTRA.REPUL.0>
0

>  <SCORE.INTRA.SOLV>
0.101985

>  <SCORE.INTRA.SOLV.lig_0>
-32.0553

>  <SCORE.INTRA.VDW>
-0.138407

>  <SCORE.INTRA.VDW.0>
-0.571921

>  <SCORE.INTRA.norm>
-0.0964111

>  <SCORE.RESTR>
0

>  <SCORE.RESTR.CAVITY>
0

>  <SCORE.RESTR.norm>
0

>  <SCORE.SYSTEM>
0

>  <SCORE.SYSTEM.CONST>
0

>  <SCORE.SYSTEM.DIHEDRAL>
0

>  <SCORE.SYSTEM.SOLV>
0

>  <SCORE.SYSTEM.norm>
0

>  <SCORE.heavy>
10

>  <SCORE.norm>
-0.910216

>  <RMSD>
1.049

$$$$
ligand
 OpenBabel11021811473D
libRbt.so/2013.1/901 2013/11/27
 10  9  0  0  0  0  0  0  0  0999 V2000
   31.6094   16.8463   20.1040 N   0  0  0  0  0  0  0  0  0  0  0  0
   31.0268   17.4368   21.3463 C   0  0  2  0  0  0  0  0  0  0  0  0
   32.1108   17.8481   22.3337 C   0  0  0  0  0  0  0  0  0  0  0  0
   33.0897   17.1388   22.5396 O   0  0  0  0  0  0  0  0  0  0  0  0
   30.0324   16.4719   21.9970 C   0  0  0  0  0  0  0  0  0  0  0  0
   28.8116   16.1829   21.1405 C   0  0  0  0  0  0  0  0  0  0  0  0
   27.8698   15.1955   21.8183 C   0  0  0  0  0  0  0  0  0  0  0  0
   26.6503   14.9334   20.9499 C   0  0  0  0  0  0  0  0  0  0  0  0
   27.0066   14.3516   19.6070 N   0  0  0  0  0  0  0  0  0  0  0  0
   32.0709   18.9101   22.9400 O   0  0  0  0  0  0  0  0  0  0  0  0
  2  1  1  6  0  0  0
  2  3  1  0  0  0  0
  2  5  1  0  0  0  0
  3  4  1  0  0  0  0
  3 10  1  0  0  0  0
  5  6  1  0  0  0  0
  6  7  1  0  0  0  0
  7  8  1  0  0  0  0
  8  9  1  0  0  0  0
M  END
>  <CHROM.1>
-41.73441755,-64.01391228,178.74324700,179.41157266,60.17785767,30.06250387
16.54827181,21.50209251,-0.46922637,-0.37297470,-2.01130873

>  <Name>
ligand

>  <RI>
0

>  <Rbt.Current_Directory>
/home/itssahil/PROJECTS/Mol_Feturizer/New_Systems/rnas/3DIZ

>  <Rbt.Executable>
rbdock ($Id: //depot/dev/client3/rdock/2013.1/src/exe/rbdock.cxx#4 $)

>  <Rbt.Library>
libRbt.so (2013.1, Build901 2013/11/27)

>  <Rbt.Parameter_File>
/export/apps/rDock/src/rDock_2013.1_src/data/scripts/dock_solv.prm

>  <Rbt.Receptor>
prm/pocket_docking_2.prm

>  <SCORE>
-9.16835

>  <SCORE.INTER>
-8.03916

>  <SCORE.INTER.CONST>
1

>  <SCORE.INTER.POLAR>
0

>  <SCORE.INTER.ROT>
5

>  <SCORE.INTER.SOLV>
15.3899

>  <SCORE.INTER.VDW>
-17.4227

>  <SCORE.INTER.norm>
-0.803916

>  <SCORE.INTRA>
-1.12919

>  <SCORE.INTRA.DIHEDRAL>
-2.04051

>  <SCORE.INTRA.DIHEDRAL.0>
3.67053

>  <SCORE.INTRA.POLAR>
0

>  <SCORE.INTRA.POLAR.0>
0

>  <SCORE.INTRA.REPUL>
0

>  <SCORE.INTRA.REPUL.0>
0

>  <SCORE.INTRA.SOLV>
0.119744

>  <SCORE.INTRA.SOLV.lig_0>
-32.0553

>  <SCORE.INTRA.VDW>
-0.1688

>  <SCORE.INTRA.VDW.0>
-0.571921

>  <SCORE.INTRA.norm>
-0.112919

>  <SCORE.RESTR>
0

>  <SCORE.RESTR.CAVITY>
0

>  <SCORE.RESTR.norm>
0

>  <SCORE.SYSTEM>
0

>  <SCORE.SYSTEM.CONST>
0

>  <SCORE.SYSTEM.DIHEDRAL>
0

>  <SCORE.SYSTEM.SOLV>
0

>  <SCORE.SYSTEM.norm>
0

>  <SCORE.heavy>
10

>  <SCORE.norm>
-0.916835

>  <RMSD>
1.068

$$$$
ligand
 OpenBabel11021811473D
libRbt.so/2013.1/901 2013/11/27
 10  9  0  0  0  0  0  0  0  0999 V2000
   31.7095   16.7331   20.1667 N   0  0  0  0  0  0  0  0  0  0  0  0
   31.0406   17.4279   21.3074 C   0  0  2  0  0  0  0  0  0  0  0  0
   32.0530   17.9441   22.3212 C   0  0  0  0  0  0  0  0  0  0  0  0
   33.0892   17.3325   22.5572 O   0  0  0  0  0  0  0  0  0  0  0  0
   30.0126   16.5136   21.9785 C   0  0  0  0  0  0  0  0  0  0  0  0
   28.8101   16.2008   21.1046 C   0  0  0  0  0  0  0  0  0  0  0  0
   27.8493   15.2394   21.7929 C   0  0  0  0  0  0  0  0  0  0  0  0
   26.6501   14.9505   20.9048 C   0  0  0  0  0  0  0  0  0  0  0  0
   27.0369   14.3234   19.5911 N   0  0  0  0  0  0  0  0  0  0  0  0
   31.8952   18.9992   22.9202 O   0  0  0  0  0  0  0  0  0  0  0  0
  2  1  1  6  0  0  0
  2  3  1  0  0  0  0
  2  5  1  0  0  0  0
  3  4  1  0  0  0  0
  3 10  1  0  0  0  0
  5  6  1  0  0  0  0
  6  7  1  0  0  0  0
  7  8  1  0  0  0  0
  8  9  1  0  0  0  0
M  END
>  <CHROM.1>
-34.34025702,-67.68449828,177.43720980,179.54242648,60.12830890,30.04765693
16.58562883,21.48942030,-0.51630548,-0.33195908,-2.11815488

>  <Name>
ligand

>  <RI>
0

>  <Rbt.Current_Directory>
/home/itssahil/PROJECTS/Mol_Feturizer/New_Systems/rnas/3DIZ

>  <Rbt.Executable>
rbdock ($Id: //depot/dev/client3/rdock/2013.1/src/exe/rbdock.cxx#4 $)

>  <Rbt.Library>
libRbt.so (2013.1, Build901 2013/11/27)

>  <Rbt.Parameter_File>
/export/apps/rDock/src/rDock_2013.1_src/data/scripts/dock_solv.prm

>  <Rbt.Receptor>
prm/pocket_docking_3.prm

>  <SCORE>
-9.15168

>  <SCORE.INTER>
-8.08835

>  <SCORE.INTER.CONST>
1

>  <SCORE.INTER.POLAR>
0

>  <SCORE.INTER.ROT>
5

>  <SCORE.INTER.SOLV>
15.2695

>  <SCORE.INTER.VDW>
-17.4154

>  <SCORE.INTER.norm>
-0.808835

>  <SCORE.INTRA>
-1.06333

>  <SCORE.INTRA.DIHEDRAL>
-1.83441

>  <SCORE.INTRA.DIHEDRAL.0>
3.67053

>  <SCORE.INTRA.POLAR>
0

>  <SCORE.INTRA.POLAR.0>
0

>  <SCORE.INTRA.REPUL>
0

>  <SCORE.INTRA.REPUL.0>
0

>  <SCORE.INTRA.SOLV>
0.0832398

>  <SCORE.INTRA.SOLV.lig_0>
-32.0553

>  <SCORE.INTRA.VDW>
-0.187751

>  <SCORE.INTRA.VDW.0>
-0.571921

>  <SCORE.INTRA.norm>
-0.106333

>  <SCORE.RESTR>
0

>  <SCORE.RESTR.CAVITY>
0

>  <SCORE.RESTR.norm>
0

>  <SCORE.SYSTEM>
0

>  <SCORE.SYSTEM.CONST>
0

>  <SCORE.SYSTEM.DIHEDRAL>
0

>  <SCORE.SYSTEM.SOLV>
0

>  <SCORE.SYSTEM.norm>
0

>  <SCORE.heavy>
10

>  <SCORE.norm>
-0.915168

>  <RMSD>
1.079

$$$$
ligand
 OpenBabel11021811473D
libRbt.so/2013.1/901 2013/11/27
 10  9  0  0  0  0  0  0  0  0999 V2000
   31.9598   16.1685   20.4694 N   0  0  0  0  0  0  0  0  0  0  0  0
   31.1771   17.1357   21.2961 C   0  0  2  0  0  0  0  0  0  0  0  0
   32.0675   17.8790   22.2829 C   0  0  0  0  0  0  0  0  0  0  0  0
   31.7295   18.9559   22.7622 O   0  0  0  0  0  0  0  0  0  0  0  0
   30.0272   16.4315   22.0206 C   0  0  0  0  0  0  0  0  0  0  0  0
   28.8761   16.0440   21.1083 C   0  0  0  0  0  0  0  0  0  0  0  0
   27.8090   15.2525   21.8541 C   0  0  0  0  0  0  0  0  0  0  0  0
   26.6254   14.9589   20.9469 C   0  0  0  0  0  0  0  0  0  0  0  0
   27.0233   14.2343   19.6877 N   0  0  0  0  0  0  0  0  0  0  0  0
   33.1386   17.4261   22.6632 O   0  0  0  0  0  0  0  0  0  0  0  0
  2  1  1  1  0  0  0
  2  3  1  0  0  0  0
  2  5  1  0  0  0  0
  3  4  1  0  0  0  0
  3 10  1  0  0  0  0
  5  6  1  0  0  0  0
  6  7  1  0  0  0  0
  7  8  1  0  0  0  0
  8  9  1  0  0  0  0
M  END
>  <CHROM.1>
158.31988767,-73.38762940,175.56206034,176.11072375,56.13312395,30.07334380
16.47235815,21.53365603,-0.55475999,-0.20822781,-2.32568233

>  <Name>
ligand

>  <RI>
0

>  <Rbt.Current_Directory>
/home/itssahil/PROJECTS/Mol_Feturizer/New_Systems/rnas/3DIZ

>  <Rbt.Executable>
rbdock ($Id: //depot/dev/client3/rdock/2013.1/src/exe/rbdock.cxx#4 $)

>  <Rbt.Library>
libRbt.so (2013.1, Build901 2013/11/27)

>  <Rbt.Parameter_File>
/export/apps/rDock/src/rDock_2013.1_src/data/scripts/dock_solv.prm

>  <Rbt.Receptor>
prm/pocket_docking_8.prm

>  <SCORE>
-9.08022

>  <SCORE.INTER>
-8.32591

>  <SCORE.INTER.CONST>
1

>  <SCORE.INTER.POLAR>
0

>  <SCORE.INTER.ROT>
5

>  <SCORE.INTER.SOLV>
15.1152

>  <SCORE.INTER.VDW>
-17.5223

>  <SCORE.INTER.norm>
-0.832591

>  <SCORE.INTRA>
-0.754311

>  <SCORE.INTRA.DIHEDRAL>
-1.31764

>  <SCORE.INTRA.DIHEDRAL.0>
3.67053

>  <SCORE.INTRA.POLAR>
0

>  <SCORE.INTRA.POLAR.0>
0

>  <SCORE.INTRA.REPUL>
0

>  <SCORE.INTRA.REPUL.0>
0

>  <SCORE.INTRA.SOLV>
0.0502591

>  <SCORE.INTRA.SOLV.lig_0>
-32.0553

>  <SCORE.INTRA.VDW>
-0.120623

>  <SCORE.INTRA.VDW.0>
-0.571921

>  <SCORE.INTRA.norm>
-0.0754311

>  <SCORE.RESTR>
0

>  <SCORE.RESTR.CAVITY>
0

>  <SCORE.RESTR.norm>
0

>  <SCORE.SYSTEM>
0

>  <SCORE.SYSTEM.CONST>
0

>  <SCORE.SYSTEM.DIHEDRAL>
0

>  <SCORE.SYSTEM.SOLV>
0

>  <SCORE.SYSTEM.norm>
0

>  <SCORE.heavy>
10

>  <SCORE.norm>
-0.908022

>  <RMSD>
1.080

$$$$
ligand
 OpenBabel11021811473D
libRbt.so/2013.1/901 2013/11/27
 10  9  0  0  0  0  0  0  0  0999 V2000
   31.6440   16.7033   20.1663 N   0  0  0  0  0  0  0  0  0  0  0  0
   30.9794   17.4107   21.3018 C   0  0  2  0  0  0  0  0  0  0  0  0
   31.9948   17.9250   22.3136 C   0  0  0  0  0  0  0  0  0  0  0  0
   33.0366   17.3185   22.5377 O   0  0  0  0  0  0  0  0  0  0  0  0
   29.9432   16.5089   21.9774 C   0  0  0  0  0  0  0  0  0  0  0  0
   28.7587   16.1675   21.0898 C   0  0  0  0  0  0  0  0  0  0  0  0
   27.7855   15.2257   21.7880 C   0  0  0  0  0  0  0  0  0  0  0  0
   26.5905   14.9304   20.8965 C   0  0  0  0  0  0  0  0  0  0  0  0
   26.9829   14.2888   19.5914 N   0  0  0  0  0  0  0  0  0  0  0  0
   31.8337   18.9738   22.9228 O   0  0  0  0  0  0  0  0  0  0  0  0
  2  1  1  6  0  0  0
  2  3  1  0  0  0  0
  2  5  1  0  0  0  0
  3  4  1  0  0  0  0
  3 10  1  0  0  0  0
  5  6  1  0  0  0  0
  6  7  1  0  0  0  0
  7  8  1  0  0  0  0
  8  9  1  0  0  0  0
M  END
>  <CHROM.1>
-33.05693853,-66.00867026,177.76197983,178.38776105,59.59788833,29.98799199
16.56442376,21.48342304,-0.51884573,-0.32911249,-2.12518040

>  <Name>
ligand

>  <RI>
0

>  <Rbt.Current_Directory>
/home/itssahil/PROJECTS/Mol_Feturizer/New_Systems/rnas/3DIZ

>  <Rbt.Executable>
rbdock ($Id: //depot/dev/client3/rdock/2013.1/src/exe/rbdock.cxx#4 $)

>  <Rbt.Library>
libRbt.so (2013.1, Build901 2013/11/27)

>  <Rbt.Parameter_File>
/export/apps/rDock/src/rDock_2013.1_src/data/scripts/dock_solv.prm

>  <Rbt.Receptor>
prm/pocket_docking_2.prm

>  <SCORE>
-9.17026

>  <SCORE.INTER>
-8.09761

>  <SCORE.INTER.CONST>
1

>  <SCORE.INTER.POLAR>
0

>  <SCORE.INTER.ROT>
5

>  <SCORE.INTER.SOLV>
15.4067

>  <SCORE.INTER.VDW>
-17.4673

>  <SCORE.INTER.norm>
-0.809761

>  <SCORE.INTRA>
-1.07265

>  <SCORE.INTRA.DIHEDRAL>
-1.92138

>  <SCORE.INTRA.DIHEDRAL.0>
3.67053

>  <SCORE.INTRA.POLAR>
0

>  <SCORE.INTRA.POLAR.0>
0

>  <SCORE.INTRA.REPUL>
0

>  <SCORE.INTRA.REPUL.0>
0

>  <SCORE.INTRA.SOLV>
0.105643

>  <SCORE.INTRA.SOLV.lig_0>
-32.0553

>  <SCORE.INTRA.VDW>
-0.164785

>  <SCORE.INTRA.VDW.0>
-0.571921

>  <SCORE.INTRA.norm>
-0.107265

>  <SCORE.RESTR>
0

>  <SCORE.RESTR.CAVITY>
0

>  <SCORE.RESTR.norm>
0

>  <SCORE.SYSTEM>
0

>  <SCORE.SYSTEM.CONST>
0

>  <SCORE.SYSTEM.DIHEDRAL>
0

>  <SCORE.SYSTEM.SOLV>
0

>  <SCORE.SYSTEM.norm>
0

>  <SCORE.heavy>
10

>  <SCORE.norm>
-0.917026

>  <RMSD>
1.096

$$$$
ligand
 OpenBabel11021811473D
libRbt.so/2013.1/901 2013/11/27
 10  9  0  0  0  0  0  0  0  0999 V2000
   31.6616   16.6972   20.1842 N   0  0  0  0  0  0  0  0  0  0  0  0
   30.9977   17.4215   21.3095 C   0  0  2  0  0  0  0  0  0  0  0  0
   32.0124   17.9342   22.3227 C   0  0  0  0  0  0  0  0  0  0  0  0
   33.0295   17.3012   22.5844 O   0  0  0  0  0  0  0  0  0  0  0  0
   29.9482   16.5367   21.9867 C   0  0  0  0  0  0  0  0  0  0  0  0
   28.7739   16.1853   21.0894 C   0  0  0  0  0  0  0  0  0  0  0  0
   27.7919   15.2526   21.7874 C   0  0  0  0  0  0  0  0  0  0  0  0
   26.6053   14.9504   20.8870 C   0  0  0  0  0  0  0  0  0  0  0  0
   27.0117   14.3179   19.5818 N   0  0  0  0  0  0  0  0  0  0  0  0
   31.8762   19.0066   22.8957 O   0  0  0  0  0  0  0  0  0  0  0  0
  2  1  1  6  0  0  0
  2  3  1  0  0  0  0
  2  5  1  0  0  0  0
  3  4  1  0  0  0  0
  3 10  1  0  0  0  0
  5  6  1  0  0  0  0
  6  7  1  0  0  0  0
  7  8  1  0  0  0  0
  8  9  1  0  0  0  0
M  END
>  <CHROM.1>
-35.01468217,-65.28202218,177.35427496,178.22610931,58.54772525,30.00391195
16.57944342,21.48784605,-0.52218087,-0.32324696,-2.12915899

>  <Name>
ligand

>  <RI>
0

>  <Rbt.Current_Directory>
/home/itssahil/PROJECTS/Mol_Feturizer/New_Systems/rnas/3DIZ

>  <Rbt.Executable>
rbdock ($Id: //depot/dev/client3/rdock/2013.1/src/exe/rbdock.cxx#4 $)

>  <Rbt.Library>
libRbt.so (2013.1, Build901 2013/11/27)

>  <Rbt.Parameter_File>
/export/apps/rDock/src/rDock_2013.1_src/data/scripts/dock_solv.prm

>  <Rbt.Receptor>
prm/blind_docking_60.prm

>  <SCORE>
-9.16589

>  <SCORE.INTER>
-8.11168

>  <SCORE.INTER.CONST>
1

>  <SCORE.INTER.POLAR>
0

>  <SCORE.INTER.ROT>
5

>  <SCORE.INTER.SOLV>
15.259

>  <SCORE.INTER.VDW>
-17.4274

>  <SCORE.INTER.norm>
-0.811168

>  <SCORE.INTRA>
-1.05422

>  <SCORE.INTRA.DIHEDRAL>
-1.93869

>  <SCORE.INTRA.DIHEDRAL.0>
3.67053

>  <SCORE.INTRA.POLAR>
0

>  <SCORE.INTRA.POLAR.0>
0

>  <SCORE.INTRA.REPUL>
0

>  <SCORE.INTRA.REPUL.0>
0

>  <SCORE.INTRA.SOLV>
0.130574

>  <SCORE.INTRA.SOLV.lig_0>
-32.0553

>  <SCORE.INTRA.VDW>
-0.150161

>  <SCORE.INTRA.VDW.0>
-0.571921

>  <SCORE.INTRA.norm>
-0.105422

>  <SCORE.RESTR>
0

>  <SCORE.RESTR.CAVITY>
0

>  <SCORE.RESTR.norm>
0

>  <SCORE.SYSTEM>
0

>  <SCORE.SYSTEM.CONST>
0

>  <SCORE.SYSTEM.DIHEDRAL>
0

>  <SCORE.SYSTEM.SOLV>
0

>  <SCORE.SYSTEM.norm>
0

>  <SCORE.heavy>
10

>  <SCORE.norm>
-0.916589

>  <RMSD>
1.101

$$$$
ligand
 OpenBabel11021811473D
libRbt.so/2013.1/901 2013/11/27
 10  9  0  0  0  0  0  0  0  0999 V2000
   31.6808   16.7502   20.1805 N   0  0  0  0  0  0  0  0  0  0  0  0
   31.0322   17.4489   21.3305 C   0  0  2  0  0  0  0  0  0  0  0  0
   32.0616   17.9580   22.3305 C   0  0  0  0  0  0  0  0  0  0  0  0
   31.8974   19.0117   22.9358 O   0  0  0  0  0  0  0  0  0  0  0  0
   30.0074   16.5410   22.0152 C   0  0  0  0  0  0  0  0  0  0  0  0
   28.8075   16.2085   21.1451 C   0  0  0  0  0  0  0  0  0  0  0  0
   27.8637   15.2330   21.8373 C   0  0  0  0  0  0  0  0  0  0  0  0
   26.6569   14.9397   20.9611 C   0  0  0  0  0  0  0  0  0  0  0  0
   27.0378   14.3900   19.6114 N   0  0  0  0  0  0  0  0  0  0  0  0
   33.0775   17.3301   22.5966 O   0  0  0  0  0  0  0  0  0  0  0  0
  2  1  1  6  0  0  0
  2  3  1  0  0  0  0
  2  5  1  0  0  0  0
  3  4  1  0  0  0  0
  3 10  1  0  0  0  0
  5  6  1  0  0  0  0
  6  7  1  0  0  0  0
  7  8  1  0  0  0  0
  8  9  1  0  0  0  0
M  END
>  <CHROM.1>
144.76729605,-66.25279253,176.33342668,178.74430232,57.26742172,30.04511430
16.59998015,21.51962274,-0.50621382,-0.34593514,-2.09305142

>  <Name>
ligand

>  <RI>
0

>  <Rbt.Current_Directory>
/home/itssahil/PROJECTS/Mol_Feturizer/New_Systems/rnas/3DIZ

>  <Rbt.Executable>
rbdock ($Id: //depot/dev/client3/rdock/2013.1/src/exe/rbdock.cxx#4 $)

>  <Rbt.Library>
libRbt.so (2013.1, Build901 2013/11/27)

>  <Rbt.Parameter_File>
/export/apps/rDock/src/rDock_2013.1_src/data/scripts/dock_solv.prm

>  <Rbt.Receptor>
prm/blind_docking_60.prm

>  <SCORE>
-9.26511

>  <SCORE.INTER>
-8.20056

>  <SCORE.INTER.CONST>
1

>  <SCORE.INTER.POLAR>
0

>  <SCORE.INTER.ROT>
5

>  <SCORE.INTER.SOLV>
15.1159

>  <SCORE.INTER.VDW>
-17.439

>  <SCORE.INTER.norm>
-0.820056

>  <SCORE.INTRA>
-1.06455

>  <SCORE.INTRA.DIHEDRAL>
-1.96819

>  <SCORE.INTRA.DIHEDRAL.0>
3.67053

>  <SCORE.INTRA.POLAR>
0

>  <SCORE.INTRA.POLAR.0>
0

>  <SCORE.INTRA.REPUL>
0

>  <SCORE.INTRA.REPUL.0>
0

>  <SCORE.INTRA.SOLV>
0.129589

>  <SCORE.INTRA.SOLV.lig_0>
-32.0553

>  <SCORE.INTRA.VDW>
-0.145253

>  <SCORE.INTRA.VDW.0>
-0.571921

>  <SCORE.INTRA.norm>
-0.106455

>  <SCORE.RESTR>
0

>  <SCORE.RESTR.CAVITY>
0

>  <SCORE.RESTR.norm>
0

>  <SCORE.SYSTEM>
0

>  <SCORE.SYSTEM.CONST>
0

>  <SCORE.SYSTEM.DIHEDRAL>
0

>  <SCORE.SYSTEM.SOLV>
0

>  <SCORE.SYSTEM.norm>
0

>  <SCORE.heavy>
10

>  <SCORE.norm>
-0.926511

>  <RMSD>
1.108

$$$$
ligand
 OpenBabel11021811473D
libRbt.so/2013.1/901 2013/11/27
 10  9  0  0  0  0  0  0  0  0999 V2000
   33.0609   16.1904   20.2217 N   0  0  0  0  0  0  0  0  0  0  0  0
   31.8266   16.7819   20.8201 C   0  0  2  0  0  0  0  0  0  0  0  0
   32.1523   17.6731   22.0112 C   0  0  0  0  0  0  0  0  0  0  0  0
   31.4549   18.6412   22.2942 O   0  0  0  0  0  0  0  0  0  0  0  0
   30.8300   15.6882   21.2121 C   0  0  0  0  0  0  0  0  0  0  0  0
   29.4941   16.2241   21.6976 C   0  0  0  0  0  0  0  0  0  0  0  0
   28.4839   15.1043   21.9143 C   0  0  0  0  0  0  0  0  0  0  0  0
   28.0627   14.4964   20.5864 C   0  0  0  0  0  0  0  0  0  0  0  0
   27.3899   15.4921   19.6782 N   0  0  0  0  0  0  0  0  0  0  0  0
   33.0995   17.4493   22.7527 O   0  0  0  0  0  0  0  0  0  0  0  0
  2  1  1  1  0  0  0
  2  3  1  0  0  0  0
  2  5  1  0  0  0  0
  3  4  1  0  0  0  0
  3 10  1  0  0  0  0
  5  6  1  0  0  0  0
  6  7  1  0  0  0  0
  7  8  1  0  0  0  0
  8  9  1  0  0  0  0
M  END
>  <CHROM.1>
149.40367273,-174.14935548,173.12218554,-69.31000041,-61.48241116,30.60163796
16.39951108,21.34657832,-0.51184739,-0.18698974,-2.33725816

>  <Name>
ligand

>  <RI>
0

>  <Rbt.Current_Directory>
/home/itssahil/PROJECTS/Mol_Feturizer/New_Systems/rnas/3DIZ

>  <Rbt.Executable>
rbdock ($Id: //depot/dev/client3/rdock/2013.1/src/exe/rbdock.cxx#4 $)

>  <Rbt.Library>
libRbt.so (2013.1, Build901 2013/11/27)

>  <Rbt.Parameter_File>
/export/apps/rDock/src/rDock_2013.1_src/data/scripts/dock_solv.prm

>  <Rbt.Receptor>
prm/pocket_docking_2.prm

>  <SCORE>
-7.06042

>  <SCORE.INTER>
-6.67331

>  <SCORE.INTER.CONST>
1

>  <SCORE.INTER.POLAR>
0

>  <SCORE.INTER.ROT>
5

>  <SCORE.INTER.SOLV>
15.0266

>  <SCORE.INTER.VDW>
-16.3911

>  <SCORE.INTER.norm>
-0.667331

>  <SCORE.INTRA>
-0.387114

>  <SCORE.INTRA.DIHEDRAL>
-1.54762

>  <SCORE.INTRA.DIHEDRAL.0>
3.67053

>  <SCORE.INTRA.POLAR>
0

>  <SCORE.INTRA.POLAR.0>
0

>  <SCORE.INTRA.REPUL>
0

>  <SCORE.INTRA.REPUL.0>
0

>  <SCORE.INTRA.SOLV>
-0.249024

>  <SCORE.INTRA.SOLV.lig_0>
-32.0553

>  <SCORE.INTRA.VDW>
0.511209

>  <SCORE.INTRA.VDW.0>
-0.571921

>  <SCORE.INTRA.norm>
-0.0387114

>  <SCORE.RESTR>
0

>  <SCORE.RESTR.CAVITY>
0

>  <SCORE.RESTR.norm>
0

>  <SCORE.SYSTEM>
0

>  <SCORE.SYSTEM.CONST>
0

>  <SCORE.SYSTEM.DIHEDRAL>
0

>  <SCORE.SYSTEM.SOLV>
0

>  <SCORE.SYSTEM.norm>
0

>  <SCORE.heavy>
10

>  <SCORE.norm>
-0.706042

>  <RMSD>
1.111

$$$$
ligand
 OpenBabel11021811473D
libRbt.so/2013.1/901 2013/11/27
 10  9  0  0  0  0  0  0  0  0999 V2000
   31.7069   16.7490   20.1853 N   0  0  0  0  0  0  0  0  0  0  0  0
   31.0517   17.4567   21.3261 C   0  0  2  0  0  0  0  0  0  0  0  0
   32.0760   17.9812   22.3235 C   0  0  0  0  0  0  0  0  0  0  0  0
   31.8955   19.0301   22.9324 O   0  0  0  0  0  0  0  0  0  0  0  0
   30.0294   16.5512   22.0175 C   0  0  0  0  0  0  0  0  0  0  0  0
   28.8351   16.2012   21.1465 C   0  0  0  0  0  0  0  0  0  0  0  0
   27.8694   15.2670   21.8650 C   0  0  0  0  0  0  0  0  0  0  0  0
   26.6724   14.9502   20.9836 C   0  0  0  0  0  0  0  0  0  0  0  0
   27.0657   14.3233   19.6717 N   0  0  0  0  0  0  0  0  0  0  0  0
   33.1038   17.3707   22.5838 O   0  0  0  0  0  0  0  0  0  0  0  0
  2  1  1  6  0  0  0
  2  3  1  0  0  0  0
  2  5  1  0  0  0  0
  3  4  1  0  0  0  0
  3 10  1  0  0  0  0
  5  6  1  0  0  0  0
  6  7  1  0  0  0  0
  7  8  1  0  0  0  0
  8  9  1  0  0  0  0
M  END
>  <CHROM.1>
145.89881868,-66.11569784,178.32558488,179.03817143,57.97823755,30.06329429
16.60732258,21.52860421,-0.51116293,-0.34176625,-2.11922319

>  <Name>
ligand

>  <RI>
0

>  <Rbt.Current_Directory>
/home/itssahil/PROJECTS/Mol_Feturizer/New_Systems/rnas/3DIZ

>  <Rbt.Executable>
rbdock ($Id: //depot/dev/client3/rdock/2013.1/src/exe/rbdock.cxx#4 $)

>  <Rbt.Library>
libRbt.so (2013.1, Build901 2013/11/27)

>  <Rbt.Parameter_File>
/export/apps/rDock/src/rDock_2013.1_src/data/scripts/dock_solv.prm

>  <Rbt.Receptor>
prm/pocket_docking_2.prm

>  <SCORE>
-9.22488

>  <SCORE.INTER>
-8.11195

>  <SCORE.INTER.CONST>
1

>  <SCORE.INTER.POLAR>
0

>  <SCORE.INTER.ROT>
5

>  <SCORE.INTER.SOLV>
15.0633

>  <SCORE.INTER.VDW>
-17.3624

>  <SCORE.INTER.norm>
-0.811195

>  <SCORE.INTRA>
-1.11294

>  <SCORE.INTRA.DIHEDRAL>
-2.03617

>  <SCORE.INTRA.DIHEDRAL.0>
3.67053

>  <SCORE.INTRA.POLAR>
0

>  <SCORE.INTRA.POLAR.0>
0

>  <SCORE.INTRA.REPUL>
0

>  <SCORE.INTRA.REPUL.0>
0

>  <SCORE.INTRA.SOLV>
0.112544

>  <SCORE.INTRA.SOLV.lig_0>
-32.0553

>  <SCORE.INTRA.VDW>
-0.151124

>  <SCORE.INTRA.VDW.0>
-0.571921

>  <SCORE.INTRA.norm>
-0.111294

>  <SCORE.RESTR>
0

>  <SCORE.RESTR.CAVITY>
0

>  <SCORE.RESTR.norm>
0

>  <SCORE.SYSTEM>
0

>  <SCORE.SYSTEM.CONST>
0

>  <SCORE.SYSTEM.DIHEDRAL>
0

>  <SCORE.SYSTEM.SOLV>
0

>  <SCORE.SYSTEM.norm>
0

>  <SCORE.heavy>
10

>  <SCORE.norm>
-0.922488

>  <RMSD>
1.113

$$$$
ligand
 OpenBabel11021811473D
libRbt.so/2013.1/901 2013/11/27
 10  9  0  0  0  0  0  0  0  0999 V2000
   31.3235   16.2921   20.1227 N   0  0  0  0  0  0  0  0  0  0  0  0
   30.8261   16.7441   21.4567 C   0  0  2  0  0  0  0  0  0  0  0  0
   31.8673   17.5790   22.1902 C   0  0  0  0  0  0  0  0  0  0  0  0
   31.5878   18.6734   22.6672 O   0  0  0  0  0  0  0  0  0  0  0  0
   30.3825   15.5520   22.3083 C   0  0  0  0  0  0  0  0  0  0  0  0
   29.2390   14.7582   21.7003 C   0  0  0  0  0  0  0  0  0  0  0  0
   27.9592   15.5817   21.6265 C   0  0  0  0  0  0  0  0  0  0  0  0
   26.8730   14.8213   20.8836 C   0  0  0  0  0  0  0  0  0  0  0  0
   27.2286   14.5572   19.4440 N   0  0  0  0  0  0  0  0  0  0  0  0
   33.0134   17.1868   22.3624 O   0  0  0  0  0  0  0  0  0  0  0  0
  2  1  1  6  0  0  0
  2  3  1  0  0  0  0
  2  5  1  0  0  0  0
  3  4  1  0  0  0  0
  3 10  1  0  0  0  0
  5  6  1  0  0  0  0
  6  7  1  0  0  0  0
  7  8  1  0  0  0  0
  8  9  1  0  0  0  0
M  END
>  <CHROM.1>
129.19834281,-61.43055908,-65.48269970,174.00943225,-63.62541634,30.06178340
16.19974413,21.49564172,-0.52673783,-0.32121675,-2.11804430

>  <Name>
ligand

>  <RI>
0

>  <Rbt.Current_Directory>
/home/itssahil/PROJECTS/Mol_Feturizer/New_Systems/rnas/3DIZ

>  <Rbt.Executable>
rbdock ($Id: //depot/dev/client3/rdock/2013.1/src/exe/rbdock.cxx#4 $)

>  <Rbt.Library>
libRbt.so (2013.1, Build901 2013/11/27)

>  <Rbt.Parameter_File>
/export/apps/rDock/src/rDock_2013.1_src/data/scripts/dock_solv.prm

>  <Rbt.Receptor>
prm/pocket_docking_2.prm

>  <SCORE>
-9.53024

>  <SCORE.INTER>
-8.9283

>  <SCORE.INTER.CONST>
1

>  <SCORE.INTER.POLAR>
0

>  <SCORE.INTER.ROT>
5

>  <SCORE.INTER.SOLV>
13.9821

>  <SCORE.INTER.VDW>
-17.5462

>  <SCORE.INTER.norm>
-0.89283

>  <SCORE.INTRA>
-0.601935

>  <SCORE.INTRA.DIHEDRAL>
-1.85691

>  <SCORE.INTRA.DIHEDRAL.0>
3.67053

>  <SCORE.INTRA.POLAR>
0

>  <SCORE.INTRA.POLAR.0>
0

>  <SCORE.INTRA.REPUL>
0

>  <SCORE.INTRA.REPUL.0>
0

>  <SCORE.INTRA.SOLV>
0.641978

>  <SCORE.INTRA.SOLV.lig_0>
-32.0553

>  <SCORE.INTRA.VDW>
0.00553178

>  <SCORE.INTRA.VDW.0>
-0.571921

>  <SCORE.INTRA.norm>
-0.0601935

>  <SCORE.RESTR>
0

>  <SCORE.RESTR.CAVITY>
0

>  <SCORE.RESTR.norm>
0

>  <SCORE.SYSTEM>
0

>  <SCORE.SYSTEM.CONST>
0

>  <SCORE.SYSTEM.DIHEDRAL>
0

>  <SCORE.SYSTEM.SOLV>
0

>  <SCORE.SYSTEM.norm>
0

>  <SCORE.heavy>
10

>  <SCORE.norm>
-0.953024

>  <RMSD>
1.143

$$$$
ligand
 OpenBabel11021811473D
libRbt.so/2013.1/901 2013/11/27
 10  9  0  0  0  0  0  0  0  0999 V2000
   32.0309   16.1399   20.4605 N   0  0  0  0  0  0  0  0  0  0  0  0
   31.2720   17.1237   21.2899 C   0  0  2  0  0  0  0  0  0  0  0  0
   32.1785   17.8356   22.2852 C   0  0  0  0  0  0  0  0  0  0  0  0
   33.2516   17.3529   22.6303 O   0  0  0  0  0  0  0  0  0  0  0  0
   30.0995   16.4477   22.0050 C   0  0  0  0  0  0  0  0  0  0  0  0
   28.9155   16.1581   21.0984 C   0  0  0  0  0  0  0  0  0  0  0  0
   29.2501   15.0966   20.0579 C   0  0  0  0  0  0  0  0  0  0  0  0
   28.0918   14.9067   19.0923 C   0  0  0  0  0  0  0  0  0  0  0  0
   26.8360   14.4333   19.7762 N   0  0  0  0  0  0  0  0  0  0  0  0
   31.8947   18.9270   22.7598 O   0  0  0  0  0  0  0  0  0  0  0  0
  2  1  1  1  0  0  0
  2  3  1  0  0  0  0
  2  5  1  0  0  0  0
  3  4  1  0  0  0  0
  3 10  1  0  0  0  0
  5  6  1  0  0  0  0
  6  7  1  0  0  0  0
  7  8  1  0  0  0  0
  8  9  1  0  0  0  0
M  END
>  <CHROM.1>
-21.31168208,-76.13316420,67.31128682,-175.31206138,-61.57859065,30.41157597
16.46516749,21.17185345,-0.71957711,-0.05358507,-2.36018887

>  <Name>
ligand

>  <RI>
0

>  <Rbt.Current_Directory>
/home/itssahil/PROJECTS/Mol_Feturizer/New_Systems/rnas/3DIZ

>  <Rbt.Executable>
rbdock ($Id: //depot/dev/client3/rdock/2013.1/src/exe/rbdock.cxx#4 $)

>  <Rbt.Library>
libRbt.so (2013.1, Build901 2013/11/27)

>  <Rbt.Parameter_File>
/export/apps/rDock/src/rDock_2013.1_src/data/scripts/dock_solv.prm

>  <Rbt.Receptor>
prm/pocket_docking_2.prm

>  <SCORE>
-5.33544

>  <SCORE.INTER>
-5.76822

>  <SCORE.INTER.CONST>
1

>  <SCORE.INTER.POLAR>
0

>  <SCORE.INTER.ROT>
5

>  <SCORE.INTER.SOLV>
14.3869

>  <SCORE.INTER.VDW>
-15.5744

>  <SCORE.INTER.norm>
-0.576822

>  <SCORE.INTRA>
0.432775

>  <SCORE.INTRA.DIHEDRAL>
-0.788751

>  <SCORE.INTRA.DIHEDRAL.0>
3.67053

>  <SCORE.INTRA.POLAR>
0

>  <SCORE.INTRA.POLAR.0>
0

>  <SCORE.INTRA.REPUL>
0

>  <SCORE.INTRA.REPUL.0>
0

>  <SCORE.INTRA.SOLV>
1.33052

>  <SCORE.INTRA.SOLV.lig_0>
-32.0553

>  <SCORE.INTRA.VDW>
0.161893

>  <SCORE.INTRA.VDW.0>
-0.571921

>  <SCORE.INTRA.norm>
0.0432775

>  <SCORE.RESTR>
0

>  <SCORE.RESTR.CAVITY>
0

>  <SCORE.RESTR.norm>
0

>  <SCORE.SYSTEM>
0

>  <SCORE.SYSTEM.CONST>
0

>  <SCORE.SYSTEM.DIHEDRAL>
0

>  <SCORE.SYSTEM.SOLV>
0

>  <SCORE.SYSTEM.norm>
0

>  <SCORE.heavy>
10

>  <SCORE.norm>
-0.533544

>  <RMSD>
1.157

$$$$
ligand
 OpenBabel11021811473D
libRbt.so/2013.1/901 2013/11/27
 10  9  0  0  0  0  0  0  0  0999 V2000
   31.5021   16.2287   20.1559 N   0  0  0  0  0  0  0  0  0  0  0  0
   30.8679   16.7434   21.4066 C   0  0  2  0  0  0  0  0  0  0  0  0
   31.7997   17.6806   22.1633 C   0  0  0  0  0  0  0  0  0  0  0  0
   31.4211   18.7798   22.5532 O   0  0  0  0  0  0  0  0  0  0  0  0
   30.4077   15.5901   22.3018 C   0  0  0  0  0  0  0  0  0  0  0  0
   29.2623   14.7818   21.7167 C   0  0  0  0  0  0  0  0  0  0  0  0
   27.9782   15.5983   21.6419 C   0  0  0  0  0  0  0  0  0  0  0  0
   26.8715   14.7992   20.9734 C   0  0  0  0  0  0  0  0  0  0  0  0
   27.1778   14.4716   19.5355 N   0  0  0  0  0  0  0  0  0  0  0  0
   32.9503   17.3711   22.4412 O   0  0  0  0  0  0  0  0  0  0  0  0
  2  1  1  6  0  0  0
  2  3  1  0  0  0  0
  2  5  1  0  0  0  0
  3  4  1  0  0  0  0
  3 10  1  0  0  0  0
  5  6  1  0  0  0  0
  6  7  1  0  0  0  0
  7  8  1  0  0  0  0
  8  9  1  0  0  0  0
M  END
>  <CHROM.1>
130.39547524,-67.31975819,-67.34667486,176.40617687,-64.05134047,30.05309898
16.23208157,21.50855940,-0.57203666,-0.25946813,-2.28217946

>  <Name>
ligand

>  <RI>
0

>  <Rbt.Current_Directory>
/home/itssahil/PROJECTS/Mol_Feturizer/New_Systems/rnas/3DIZ

>  <Rbt.Executable>
rbdock ($Id: //depot/dev/client3/rdock/2013.1/src/exe/rbdock.cxx#4 $)

>  <Rbt.Library>
libRbt.so (2013.1, Build901 2013/11/27)

>  <Rbt.Parameter_File>
/export/apps/rDock/src/rDock_2013.1_src/data/scripts/dock_solv.prm

>  <Rbt.Receptor>
prm/pocket_docking_2.prm

>  <SCORE>
-9.43697

>  <SCORE.INTER>
-8.80007

>  <SCORE.INTER.CONST>
1

>  <SCORE.INTER.POLAR>
0

>  <SCORE.INTER.ROT>
5

>  <SCORE.INTER.SOLV>
14.4464

>  <SCORE.INTER.VDW>
-17.6155

>  <SCORE.INTER.norm>
-0.880007

>  <SCORE.INTRA>
-0.637177

>  <SCORE.INTRA.DIHEDRAL>
-1.6313

>  <SCORE.INTRA.DIHEDRAL.0>
3.67053

>  <SCORE.INTRA.POLAR>
0

>  <SCORE.INTRA.POLAR.0>
0

>  <SCORE.INTRA.REPUL>
0

>  <SCORE.INTRA.REPUL.0>
0

>  <SCORE.INTRA.SOLV>
0.482415

>  <SCORE.INTRA.SOLV.lig_0>
-32.0553

>  <SCORE.INTRA.VDW>
-0.0627347

>  <SCORE.INTRA.VDW.0>
-0.571921

>  <SCORE.INTRA.norm>
-0.0637177

>  <SCORE.RESTR>
0.000274558

>  <SCORE.RESTR.CAVITY>
0.000274558

>  <SCORE.RESTR.norm>
2.74558e-05

>  <SCORE.SYSTEM>
0

>  <SCORE.SYSTEM.CONST>
0

>  <SCORE.SYSTEM.DIHEDRAL>
0

>  <SCORE.SYSTEM.SOLV>
0

>  <SCORE.SYSTEM.norm>
0

>  <SCORE.heavy>
10

>  <SCORE.norm>
-0.943697

>  <RMSD>
1.180

$$$$
ligand
 OpenBabel11021811473D
libRbt.so/2013.1/901 2013/11/27
 10  9  0  0  0  0  0  0  0  0999 V2000
   31.3283   16.2863   20.1208 N   0  0  0  0  0  0  0  0  0  0  0  0
   30.8341   16.7756   21.4428 C   0  0  2  0  0  0  0  0  0  0  0  0
   31.8465   17.6931   22.1155 C   0  0  0  0  0  0  0  0  0  0  0  0
   31.4987   18.7286   22.6725 O   0  0  0  0  0  0  0  0  0  0  0  0
   30.4657   15.6046   22.3572 C   0  0  0  0  0  0  0  0  0  0  0  0
   29.3018   14.7729   21.8462 C   0  0  0  0  0  0  0  0  0  0  0  0
   28.0067   15.5750   21.8179 C   0  0  0  0  0  0  0  0  0  0  0  0
   26.9249   14.8224   21.0607 C   0  0  0  0  0  0  0  0  0  0  0  0
   27.2542   14.6420   19.6020 N   0  0  0  0  0  0  0  0  0  0  0  0
   33.0400   17.4270   22.1573 O   0  0  0  0  0  0  0  0  0  0  0  0
  2  1  1  6  0  0  0
  2  3  1  0  0  0  0
  2  5  1  0  0  0  0
  3  4  1  0  0  0  0
  3 10  1  0  0  0  0
  5  6  1  0  0  0  0
  6  7  1  0  0  0  0
  7  8  1  0  0  0  0
  8  9  1  0  0  0  0
M  END
>  <CHROM.1>
137.02052105,-64.54054061,-65.12883141,169.05940897,-64.79731742,30.08108710
16.25982606,21.53682351,-0.49431263,-0.36754892,-2.11553683

>  <Name>
ligand

>  <RI>
0

>  <Rbt.Current_Directory>
/home/itssahil/PROJECTS/Mol_Feturizer/New_Systems/rnas/3DIZ

>  <Rbt.Executable>
rbdock ($Id: //depot/dev/client3/rdock/2013.1/src/exe/rbdock.cxx#4 $)

>  <Rbt.Library>
libRbt.so (2013.1, Build901 2013/11/27)

>  <Rbt.Parameter_File>
/export/apps/rDock/src/rDock_2013.1_src/data/scripts/dock_solv.prm

>  <Rbt.Receptor>
prm/pocket_docking_2.prm

>  <SCORE>
-9.42062

>  <SCORE.INTER>
-8.96902

>  <SCORE.INTER.CONST>
1

>  <SCORE.INTER.POLAR>
0

>  <SCORE.INTER.ROT>
5

>  <SCORE.INTER.SOLV>
13.5752

>  <SCORE.INTER.VDW>
-17.4378

>  <SCORE.INTER.norm>
-0.896902

>  <SCORE.INTRA>
-0.451607

>  <SCORE.INTRA.DIHEDRAL>
-1.43696

>  <SCORE.INTRA.DIHEDRAL.0>
3.67053

>  <SCORE.INTRA.POLAR>
0

>  <SCORE.INTRA.POLAR.0>
0

>  <SCORE.INTRA.REPUL>
0

>  <SCORE.INTRA.REPUL.0>
0

>  <SCORE.INTRA.SOLV>
0.640346

>  <SCORE.INTRA.SOLV.lig_0>
-32.0553

>  <SCORE.INTRA.VDW>
-0.0533023

>  <SCORE.INTRA.VDW.0>
-0.571921

>  <SCORE.INTRA.norm>
-0.0451607

>  <SCORE.RESTR>
0

>  <SCORE.RESTR.CAVITY>
0

>  <SCORE.RESTR.norm>
0

>  <SCORE.SYSTEM>
0

>  <SCORE.SYSTEM.CONST>
0

>  <SCORE.SYSTEM.DIHEDRAL>
0

>  <SCORE.SYSTEM.SOLV>
0

>  <SCORE.SYSTEM.norm>
0

>  <SCORE.heavy>
10

>  <SCORE.norm>
-0.942062

>  <RMSD>
1.195

$$$$
ligand
 OpenBabel11021811473D
libRbt.so/2013.1/901 2013/11/27
 10  9  0  0  0  0  0  0  0  0999 V2000
   31.4467   16.3240   20.2118 N   0  0  0  0  0  0  0  0  0  0  0  0
   30.8281   16.8834   21.4511 C   0  0  2  0  0  0  0  0  0  0  0  0
   31.7673   17.8503   22.1596 C   0  0  0  0  0  0  0  0  0  0  0  0
   31.3715   18.9313   22.5817 O   0  0  0  0  0  0  0  0  0  0  0  0
   30.3833   15.7631   22.3947 C   0  0  0  0  0  0  0  0  0  0  0  0
   29.2774   14.8895   21.8278 C   0  0  0  0  0  0  0  0  0  0  0  0
   27.9713   15.6602   21.6808 C   0  0  0  0  0  0  0  0  0  0  0  0
   26.9290   14.8189   20.9623 C   0  0  0  0  0  0  0  0  0  0  0  0
   27.2907   14.5468   19.5257 N   0  0  0  0  0  0  0  0  0  0  0  0
   32.9434   17.5831   22.3655 O   0  0  0  0  0  0  0  0  0  0  0  0
  2  1  1  6  0  0  0
  2  3  1  0  0  0  0
  2  5  1  0  0  0  0
  3  4  1  0  0  0  0
  3 10  1  0  0  0  0
  5  6  1  0  0  0  0
  6  7  1  0  0  0  0
  7  8  1  0  0  0  0
  8  9  1  0  0  0  0
M  END
>  <CHROM.1>
134.63356379,-64.55103735,-67.24183617,173.29814295,-66.66757153,30.05007069
16.35355094,21.53461071,-0.57618462,-0.31091725,-2.24281616

>  <Name>
ligand

>  <RI>
0

>  <Rbt.Current_Directory>
/home/itssahil/PROJECTS/Mol_Feturizer/New_Systems/rnas/3DIZ

>  <Rbt.Executable>
rbdock ($Id: //depot/dev/client3/rdock/2013.1/src/exe/rbdock.cxx#4 $)

>  <Rbt.Library>
libRbt.so (2013.1, Build901 2013/11/27)

>  <Rbt.Parameter_File>
/export/apps/rDock/src/rDock_2013.1_src/data/scripts/dock_solv.prm

>  <Rbt.Receptor>
prm/pocket_docking_6.prm

>  <SCORE>
-9.66726

>  <SCORE.INTER>
-9.0593

>  <SCORE.INTER.CONST>
1

>  <SCORE.INTER.POLAR>
0

>  <SCORE.INTER.ROT>
5

>  <SCORE.INTER.SOLV>
13.6286

>  <SCORE.INTER.VDW>
-17.5157

>  <SCORE.INTER.norm>
-0.90593

>  <SCORE.INTRA>
-0.607957

>  <SCORE.INTRA.DIHEDRAL>
-1.54538

>  <SCORE.INTRA.DIHEDRAL.0>
3.67053

>  <SCORE.INTRA.POLAR>
0

>  <SCORE.INTRA.POLAR.0>
0

>  <SCORE.INTRA.REPUL>
0

>  <SCORE.INTRA.REPUL.0>
0

>  <SCORE.INTRA.SOLV>
0.522683

>  <SCORE.INTRA.SOLV.lig_0>
-32.0553

>  <SCORE.INTRA.VDW>
-0.096607

>  <SCORE.INTRA.VDW.0>
-0.571921

>  <SCORE.INTRA.norm>
-0.0607957

>  <SCORE.RESTR>
0

>  <SCORE.RESTR.CAVITY>
0

>  <SCORE.RESTR.norm>
0

>  <SCORE.SYSTEM>
0

>  <SCORE.SYSTEM.CONST>
0

>  <SCORE.SYSTEM.DIHEDRAL>
0

>  <SCORE.SYSTEM.SOLV>
0

>  <SCORE.SYSTEM.norm>
0

>  <SCORE.heavy>
10

>  <SCORE.norm>
-0.966726

>  <RMSD>
1.232

$$$$
ligand
 OpenBabel11021811473D
libRbt.so/2013.1/901 2013/11/27
 10  9  0  0  0  0  0  0  0  0999 V2000
   31.4364   16.2964   20.2332 N   0  0  0  0  0  0  0  0  0  0  0  0
   30.8145   16.8582   21.4698 C   0  0  2  0  0  0  0  0  0  0  0  0
   31.7526   17.8252   22.1797 C   0  0  0  0  0  0  0  0  0  0  0  0
   31.3484   18.8908   22.6323 O   0  0  0  0  0  0  0  0  0  0  0  0
   30.3658   15.7398   22.4136 C   0  0  0  0  0  0  0  0  0  0  0  0
   29.2558   14.8709   21.8476 C   0  0  0  0  0  0  0  0  0  0  0  0
   27.9549   15.6491   21.6943 C   0  0  0  0  0  0  0  0  0  0  0  0
   26.9096   14.8122   20.9753 C   0  0  0  0  0  0  0  0  0  0  0  0
   27.2774   14.5274   19.5426 N   0  0  0  0  0  0  0  0  0  0  0  0
   32.9366   17.5729   22.3566 O   0  0  0  0  0  0  0  0  0  0  0  0
  2  1  1  6  0  0  0
  2  3  1  0  0  0  0
  2  5  1  0  0  0  0
  3  4  1  0  0  0  0
  3 10  1  0  0  0  0
  5  6  1  0  0  0  0
  6  7  1  0  0  0  0
  7  8  1  0  0  0  0
  8  9  1  0  0  0  0
M  END
>  <CHROM.1>
136.71203433,-64.85087581,-66.92003591,173.23091922,-66.36839916,30.03439920
16.33273862,21.55305731,-0.57540364,-0.30800724,-2.24316202

>  <Name>
ligand

>  <RI>
0

>  <Rbt.Current_Directory>
/home/itssahil/PROJECTS/Mol_Feturizer/New_Systems/rnas/3DIZ

>  <Rbt.Executable>
rbdock ($Id: //depot/dev/client3/rdock/2013.1/src/exe/rbdock.cxx#4 $)

>  <Rbt.Library>
libRbt.so (2013.1, Build901 2013/11/27)

>  <Rbt.Parameter_File>
/export/apps/rDock/src/rDock_2013.1_src/data/scripts/dock_solv.prm

>  <Rbt.Receptor>
prm/pocket_docking_6.prm

>  <SCORE>
-9.71053

>  <SCORE.INTER>
-9.09714

>  <SCORE.INTER.CONST>
1

>  <SCORE.INTER.POLAR>
0

>  <SCORE.INTER.ROT>
5

>  <SCORE.INTER.SOLV>
13.6722

>  <SCORE.INTER.VDW>
-17.5555

>  <SCORE.INTER.norm>
-0.909714

>  <SCORE.INTRA>
-0.613389

>  <SCORE.INTRA.DIHEDRAL>
-1.56809

>  <SCORE.INTRA.DIHEDRAL.0>
3.67053

>  <SCORE.INTRA.POLAR>
0

>  <SCORE.INTRA.POLAR.0>
0

>  <SCORE.INTRA.REPUL>
0

>  <SCORE.INTRA.REPUL.0>
0

>  <SCORE.INTRA.SOLV>
0.526548

>  <SCORE.INTRA.SOLV.lig_0>
-32.0553

>  <SCORE.INTRA.VDW>
-0.0926186

>  <SCORE.INTRA.VDW.0>
-0.571921

>  <SCORE.INTRA.norm>
-0.0613389

>  <SCORE.RESTR>
0

>  <SCORE.RESTR.CAVITY>
0

>  <SCORE.RESTR.norm>
0

>  <SCORE.SYSTEM>
0

>  <SCORE.SYSTEM.CONST>
0

>  <SCORE.SYSTEM.DIHEDRAL>
0

>  <SCORE.SYSTEM.SOLV>
0

>  <SCORE.SYSTEM.norm>
0

>  <SCORE.heavy>
10

>  <SCORE.norm>
-0.971053

>  <RMSD>
1.242

$$$$
ligand
 OpenBabel11021811473D
libRbt.so/2013.1/901 2013/11/27
 10  9  0  0  0  0  0  0  0  0999 V2000
   31.4523   16.2929   20.2419 N   0  0  0  0  0  0  0  0  0  0  0  0
   30.7827   16.8500   21.4555 C   0  0  2  0  0  0  0  0  0  0  0  0
   31.6853   17.8288   22.1947 C   0  0  0  0  0  0  0  0  0  0  0  0
   32.8741   17.5892   22.3760 O   0  0  0  0  0  0  0  0  0  0  0  0
   30.3146   15.7284   22.3861 C   0  0  0  0  0  0  0  0  0  0  0  0
   29.2110   14.8663   21.7974 C   0  0  0  0  0  0  0  0  0  0  0  0
   27.9160   15.6504   21.6252 C   0  0  0  0  0  0  0  0  0  0  0  0
   26.8752   14.8154   20.8975 C   0  0  0  0  0  0  0  0  0  0  0  0
   27.2648   14.5107   19.4748 N   0  0  0  0  0  0  0  0  0  0  0  0
   31.2769   18.9039   22.6122 O   0  0  0  0  0  0  0  0  0  0  0  0
  2  1  1  6  0  0  0
  2  3  1  0  0  0  0
  2  5  1  0  0  0  0
  3  4  1  0  0  0  0
  3 10  1  0  0  0  0
  5  6  1  0  0  0  0
  6  7  1  0  0  0  0
  7  8  1  0  0  0  0
  8  9  1  0  0  0  0
M  END
>  <CHROM.1>
-43.13034446,-66.21673667,-66.85252426,173.81943355,-65.79998863,29.99404522
16.33249029,21.52473775,-0.59791258,-0.28139333,-2.27688654

>  <Name>
ligand

>  <RI>
0

>  <Rbt.Current_Directory>
/home/itssahil/PROJECTS/Mol_Feturizer/New_Systems/rnas/3DIZ

>  <Rbt.Executable>
rbdock ($Id: //depot/dev/client3/rdock/2013.1/src/exe/rbdock.cxx#4 $)

>  <Rbt.Library>
libRbt.so (2013.1, Build901 2013/11/27)

>  <Rbt.Parameter_File>
/export/apps/rDock/src/rDock_2013.1_src/data/scripts/dock_solv.prm

>  <Rbt.Receptor>
prm/pocket_docking_6.prm

>  <SCORE>
-9.64501

>  <SCORE.INTER>
-9.07398

>  <SCORE.INTER.CONST>
1

>  <SCORE.INTER.POLAR>
0

>  <SCORE.INTER.ROT>
5

>  <SCORE.INTER.SOLV>
13.8246

>  <SCORE.INTER.VDW>
-17.5909

>  <SCORE.INTER.norm>
-0.907398

>  <SCORE.INTRA>
-0.571025

>  <SCORE.INTRA.DIHEDRAL>
-1.47909

>  <SCORE.INTRA.DIHEDRAL.0>
3.67053

>  <SCORE.INTRA.POLAR>
0

>  <SCORE.INTRA.POLAR.0>
0

>  <SCORE.INTRA.REPUL>
0

>  <SCORE.INTRA.REPUL.0>
0

>  <SCORE.INTRA.SOLV>
0.519711

>  <SCORE.INTRA.SOLV.lig_0>
-32.0553

>  <SCORE.INTRA.VDW>
-0.0913338

>  <SCORE.INTRA.VDW.0>
-0.571921

>  <SCORE.INTRA.norm>
-0.0571025

>  <SCORE.RESTR>
0

>  <SCORE.RESTR.CAVITY>
0

>  <SCORE.RESTR.norm>
0

>  <SCORE.SYSTEM>
0

>  <SCORE.SYSTEM.CONST>
0

>  <SCORE.SYSTEM.DIHEDRAL>
0

>  <SCORE.SYSTEM.SOLV>
0

>  <SCORE.SYSTEM.norm>
0

>  <SCORE.heavy>
10

>  <SCORE.norm>
-0.964501

>  <RMSD>
1.244

$$$$
ligand
 OpenBabel11021811473D
libRbt.so/2013.1/901 2013/11/27
 10  9  0  0  0  0  0  0  0  0999 V2000
   31.4159   16.3003   20.2073 N   0  0  0  0  0  0  0  0  0  0  0  0
   30.7683   16.8333   21.4434 C   0  0  2  0  0  0  0  0  0  0  0  0
   31.6800   17.8059   22.1796 C   0  0  0  0  0  0  0  0  0  0  0  0
   31.2652   18.8846   22.5894 O   0  0  0  0  0  0  0  0  0  0  0  0
   30.3268   15.6937   22.3651 C   0  0  0  0  0  0  0  0  0  0  0  0
   29.2114   14.8386   21.7887 C   0  0  0  0  0  0  0  0  0  0  0  0
   27.9090   15.6199   21.6674 C   0  0  0  0  0  0  0  0  0  0  0  0
   26.8708   14.8178   20.9002 C   0  0  0  0  0  0  0  0  0  0  0  0
   27.2749   14.5578   19.4726 N   0  0  0  0  0  0  0  0  0  0  0  0
   32.8511   17.5459   22.4206 O   0  0  0  0  0  0  0  0  0  0  0  0
  2  1  1  6  0  0  0
  2  3  1  0  0  0  0
  2  5  1  0  0  0  0
  3  4  1  0  0  0  0
  3 10  1  0  0  0  0
  5  6  1  0  0  0  0
  6  7  1  0  0  0  0
  7  8  1  0  0  0  0
  8  9  1  0  0  0  0
M  END
>  <CHROM.1>
133.39832894,-66.53513870,-67.04909484,171.45800314,-63.94921214,29.98586114
16.31833691,21.52268210,-0.58822789,-0.29579458,-2.24895872

>  <Name>
ligand

>  <RI>
0

>  <Rbt.Current_Directory>
/home/itssahil/PROJECTS/Mol_Feturizer/New_Systems/rnas/3DIZ

>  <Rbt.Executable>
rbdock ($Id: //depot/dev/client3/rdock/2013.1/src/exe/rbdock.cxx#4 $)

>  <Rbt.Library>
libRbt.so (2013.1, Build901 2013/11/27)

>  <Rbt.Parameter_File>
/export/apps/rDock/src/rDock_2013.1_src/data/scripts/dock_solv.prm

>  <Rbt.Receptor>
prm/pocket_docking_3.prm

>  <SCORE>
-9.67245

>  <SCORE.INTER>
-9.12705

>  <SCORE.INTER.CONST>
1

>  <SCORE.INTER.POLAR>
0

>  <SCORE.INTER.ROT>
5

>  <SCORE.INTER.SOLV>
13.7399

>  <SCORE.INTER.VDW>
-17.598

>  <SCORE.INTER.norm>
-0.912705

>  <SCORE.INTRA>
-0.545398

>  <SCORE.INTRA.DIHEDRAL>
-1.45684

>  <SCORE.INTRA.DIHEDRAL.0>
3.67053

>  <SCORE.INTRA.POLAR>
0

>  <SCORE.INTRA.POLAR.0>
0

>  <SCORE.INTRA.REPUL>
0

>  <SCORE.INTRA.REPUL.0>
0

>  <SCORE.INTRA.SOLV>
0.53708

>  <SCORE.INTRA.SOLV.lig_0>
-32.0553

>  <SCORE.INTRA.VDW>
-0.0855186

>  <SCORE.INTRA.VDW.0>
-0.571921

>  <SCORE.INTRA.norm>
-0.0545398

>  <SCORE.RESTR>
0

>  <SCORE.RESTR.CAVITY>
0

>  <SCORE.RESTR.norm>
0

>  <SCORE.SYSTEM>
0

>  <SCORE.SYSTEM.CONST>
0

>  <SCORE.SYSTEM.DIHEDRAL>
0

>  <SCORE.SYSTEM.SOLV>
0

>  <SCORE.SYSTEM.norm>
0

>  <SCORE.heavy>
10

>  <SCORE.norm>
-0.967245

>  <RMSD>
1.247

$$$$
ligand
 OpenBabel11021811473D
libRbt.so/2013.1/901 2013/11/27
 10  9  0  0  0  0  0  0  0  0999 V2000
   30.8370   16.7317   20.1509 N   0  0  0  0  0  0  0  0  0  0  0  0
   30.4713   17.1912   21.5245 C   0  0  2  0  0  0  0  0  0  0  0  0
   31.6676   17.7888   22.2530 C   0  0  0  0  0  0  0  0  0  0  0  0
   32.7293   17.1819   22.3427 O   0  0  0  0  0  0  0  0  0  0  0  0
   29.8508   16.0513   22.3361 C   0  0  0  0  0  0  0  0  0  0  0  0
   28.4666   15.6450   21.8599 C   0  0  0  0  0  0  0  0  0  0  0  0
   28.5154   14.9817   20.4891 C   0  0  0  0  0  0  0  0  0  0  0  0
   27.1117   14.7119   19.9726 C   0  0  0  0  0  0  0  0  0  0  0  0
   27.1063   14.0888   18.6012 N   0  0  0  0  0  0  0  0  0  0  0  0
   31.6350   18.9052   22.7526 O   0  0  0  0  0  0  0  0  0  0  0  0
  2  1  1  6  0  0  0
  2  3  1  0  0  0  0
  2  5  1  0  0  0  0
  3  4  1  0  0  0  0
  3 10  1  0  0  0  0
  5  6  1  0  0  0  0
  6  7  1  0  0  0  0
  7  8  1  0  0  0  0
  8  9  1  0  0  0  0
M  END
>  <CHROM.1>
-51.98129276,-70.07507721,68.31359553,-174.28418431,178.46750973,29.87422934
16.34894896,21.24891784,-0.62212704,-0.48448717,-1.88984804

>  <Name>
ligand

>  <RI>
0

>  <Rbt.Current_Directory>
/home/itssahil/PROJECTS/Mol_Feturizer/New_Systems/rnas/3DIZ

>  <Rbt.Executable>
rbdock ($Id: //depot/dev/client3/rdock/2013.1/src/exe/rbdock.cxx#4 $)

>  <Rbt.Library>
libRbt.so (2013.1, Build901 2013/11/27)

>  <Rbt.Parameter_File>
/export/apps/rDock/src/rDock_2013.1_src/data/scripts/dock_solv.prm

>  <Rbt.Receptor>
prm/pocket_docking_5.prm

>  <SCORE>
-7.71073

>  <SCORE.INTER>
-7.42741

>  <SCORE.INTER.CONST>
1

>  <SCORE.INTER.POLAR>
0

>  <SCORE.INTER.ROT>
5

>  <SCORE.INTER.SOLV>
15.1319

>  <SCORE.INTER.VDW>
-16.9289

>  <SCORE.INTER.norm>
-0.742741

>  <SCORE.INTRA>
-0.283325

>  <SCORE.INTRA.DIHEDRAL>
-1.30453

>  <SCORE.INTRA.DIHEDRAL.0>
3.67053

>  <SCORE.INTRA.POLAR>
0

>  <SCORE.INTRA.POLAR.0>
0

>  <SCORE.INTRA.REPUL>
0

>  <SCORE.INTRA.REPUL.0>
0

>  <SCORE.INTRA.SOLV>
0.556739

>  <SCORE.INTRA.SOLV.lig_0>
-32.0553

>  <SCORE.INTRA.VDW>
0.0905682

>  <SCORE.INTRA.VDW.0>
-0.571921

>  <SCORE.INTRA.norm>
-0.0283325

>  <SCORE.RESTR>
0

>  <SCORE.RESTR.CAVITY>
0

>  <SCORE.RESTR.norm>
0

>  <SCORE.SYSTEM>
0

>  <SCORE.SYSTEM.CONST>
0

>  <SCORE.SYSTEM.DIHEDRAL>
0

>  <SCORE.SYSTEM.SOLV>
0

>  <SCORE.SYSTEM.norm>
0

>  <SCORE.heavy>
10

>  <SCORE.norm>
-0.771073

>  <RMSD>
1.248

$$$$
ligand
 OpenBabel11021811473D
libRbt.so/2013.1/901 2013/11/27
 10  9  0  0  0  0  0  0  0  0999 V2000
   31.4446   16.3266   20.2510 N   0  0  0  0  0  0  0  0  0  0  0  0
   30.8134   16.8721   21.4902 C   0  0  2  0  0  0  0  0  0  0  0  0
   31.7427   17.8365   22.2152 C   0  0  0  0  0  0  0  0  0  0  0  0
   31.3428   18.9191   22.6293 O   0  0  0  0  0  0  0  0  0  0  0  0
   30.3656   15.7416   22.4199 C   0  0  0  0  0  0  0  0  0  0  0  0
   29.2570   14.8783   21.8426 C   0  0  0  0  0  0  0  0  0  0  0  0
   27.9626   15.6641   21.6729 C   0  0  0  0  0  0  0  0  0  0  0  0
   26.9167   14.8279   20.9540 C   0  0  0  0  0  0  0  0  0  0  0  0
   27.2974   14.5188   19.5299 N   0  0  0  0  0  0  0  0  0  0  0  0
   32.9140   17.5655   22.4428 O   0  0  0  0  0  0  0  0  0  0  0  0
  2  1  1  6  0  0  0
  2  3  1  0  0  0  0
  2  5  1  0  0  0  0
  3  4  1  0  0  0  0
  3 10  1  0  0  0  0
  5  6  1  0  0  0  0
  6  7  1  0  0  0  0
  7  8  1  0  0  0  0
  8  9  1  0  0  0  0
M  END
>  <CHROM.1>
133.72373373,-65.21511618,-65.81487118,173.72646578,-65.93731755,30.03463189
16.34347356,21.56376571,-0.58965360,-0.29580096,-2.25502855

>  <Name>
ligand

>  <RI>
0

>  <Rbt.Current_Directory>
/home/itssahil/PROJECTS/Mol_Feturizer/New_Systems/rnas/3DIZ

>  <Rbt.Executable>
rbdock ($Id: //depot/dev/client3/rdock/2013.1/src/exe/rbdock.cxx#4 $)

>  <Rbt.Library>
libRbt.so (2013.1, Build901 2013/11/27)

>  <Rbt.Parameter_File>
/export/apps/rDock/src/rDock_2013.1_src/data/scripts/dock_solv.prm

>  <Rbt.Receptor>
prm/pocket_docking_8.prm

>  <SCORE>
-9.67625

>  <SCORE.INTER>
-9.05309

>  <SCORE.INTER.CONST>
1

>  <SCORE.INTER.POLAR>
0

>  <SCORE.INTER.ROT>
5

>  <SCORE.INTER.SOLV>
13.6087

>  <SCORE.INTER.VDW>
-17.5049

>  <SCORE.INTER.norm>
-0.905309

>  <SCORE.INTRA>
-0.62316

>  <SCORE.INTRA.DIHEDRAL>
-1.64998

>  <SCORE.INTRA.DIHEDRAL.0>
3.67053

>  <SCORE.INTRA.POLAR>
0

>  <SCORE.INTRA.POLAR.0>
0

>  <SCORE.INTRA.REPUL>
0

>  <SCORE.INTRA.REPUL.0>
0

>  <SCORE.INTRA.SOLV>
0.534165

>  <SCORE.INTRA.SOLV.lig_0>
-32.0553

>  <SCORE.INTRA.VDW>
-0.0652523

>  <SCORE.INTRA.VDW.0>
-0.571921

>  <SCORE.INTRA.norm>
-0.062316

>  <SCORE.RESTR>
0

>  <SCORE.RESTR.CAVITY>
0

>  <SCORE.RESTR.norm>
0

>  <SCORE.SYSTEM>
0

>  <SCORE.SYSTEM.CONST>
0

>  <SCORE.SYSTEM.DIHEDRAL>
0

>  <SCORE.SYSTEM.SOLV>
0

>  <SCORE.SYSTEM.norm>
0

>  <SCORE.heavy>
10

>  <SCORE.norm>
-0.967625

>  <RMSD>
1.254

$$$$
ligand
 OpenBabel11021811473D
libRbt.so/2013.1/901 2013/11/27
 10  9  0  0  0  0  0  0  0  0999 V2000
   31.4346   16.2870   20.2343 N   0  0  0  0  0  0  0  0  0  0  0  0
   30.7818   16.8660   21.4468 C   0  0  2  0  0  0  0  0  0  0  0  0
   31.6926   17.8615   22.1528 C   0  0  0  0  0  0  0  0  0  0  0  0
   31.2474   18.8832   22.6642 O   0  0  0  0  0  0  0  0  0  0  0  0
   30.3313   15.7616   22.4062 C   0  0  0  0  0  0  0  0  0  0  0  0
   29.2272   14.8801   21.8482 C   0  0  0  0  0  0  0  0  0  0  0  0
   27.9221   15.6491   21.6841 C   0  0  0  0  0  0  0  0  0  0  0  0
   26.8793   14.7943   20.9827 C   0  0  0  0  0  0  0  0  0  0  0  0
   27.2547   14.4687   19.5608 N   0  0  0  0  0  0  0  0  0  0  0  0
   32.8964   17.6752   22.2679 O   0  0  0  0  0  0  0  0  0  0  0  0
  2  1  1  6  0  0  0
  2  3  1  0  0  0  0
  2  5  1  0  0  0  0
  3  4  1  0  0  0  0
  3 10  1  0  0  0  0
  5  6  1  0  0  0  0
  6  7  1  0  0  0  0
  7  8  1  0  0  0  0
  8  9  1  0  0  0  0
M  END
>  <CHROM.1>
142.34135075,-65.87628973,-67.31424292,173.68355700,-65.53000934,29.99530401
16.34184476,21.54314296,-0.58335300,-0.31072829,-2.26546793

>  <Name>
ligand

>  <RI>
0

>  <Rbt.Current_Directory>
/home/itssahil/PROJECTS/Mol_Feturizer/New_Systems/rnas/3DIZ

>  <Rbt.Executable>
rbdock ($Id: //depot/dev/client3/rdock/2013.1/src/exe/rbdock.cxx#4 $)

>  <Rbt.Library>
libRbt.so (2013.1, Build901 2013/11/27)

>  <Rbt.Parameter_File>
/export/apps/rDock/src/rDock_2013.1_src/data/scripts/dock_solv.prm

>  <Rbt.Receptor>
prm/pocket_docking_7.prm

>  <SCORE>
-9.68319

>  <SCORE.INTER>
-9.05634

>  <SCORE.INTER.CONST>
1

>  <SCORE.INTER.POLAR>
0

>  <SCORE.INTER.ROT>
5

>  <SCORE.INTER.SOLV>
13.8756

>  <SCORE.INTER.VDW>
-17.5961

>  <SCORE.INTER.norm>
-0.905634

>  <SCORE.INTRA>
-0.626853

>  <SCORE.INTRA.DIHEDRAL>
-1.57217

>  <SCORE.INTRA.DIHEDRAL.0>
3.67053

>  <SCORE.INTRA.POLAR>
0

>  <SCORE.INTRA.POLAR.0>
0

>  <SCORE.INTRA.REPUL>
0

>  <SCORE.INTRA.REPUL.0>
0

>  <SCORE.INTRA.SOLV>
0.513576

>  <SCORE.INTRA.SOLV.lig_0>
-32.0553

>  <SCORE.INTRA.VDW>
-0.0975565

>  <SCORE.INTRA.VDW.0>
-0.571921

>  <SCORE.INTRA.norm>
-0.0626853

>  <SCORE.RESTR>
0

>  <SCORE.RESTR.CAVITY>
0

>  <SCORE.RESTR.norm>
0

>  <SCORE.SYSTEM>
0

>  <SCORE.SYSTEM.CONST>
0

>  <SCORE.SYSTEM.DIHEDRAL>
0

>  <SCORE.SYSTEM.SOLV>
0

>  <SCORE.SYSTEM.norm>
0

>  <SCORE.heavy>
10

>  <SCORE.norm>
-0.968319

>  <RMSD>
1.257

$$$$
ligand
 OpenBabel11021811473D
libRbt.so/2013.1/901 2013/11/27
 10  9  0  0  0  0  0  0  0  0999 V2000
   31.4442   16.3007   20.2357 N   0  0  0  0  0  0  0  0  0  0  0  0
   30.7979   16.8639   21.4591 C   0  0  2  0  0  0  0  0  0  0  0  0
   31.7136   17.8480   22.1748 C   0  0  0  0  0  0  0  0  0  0  0  0
   31.2953   18.9228   22.5911 O   0  0  0  0  0  0  0  0  0  0  0  0
   30.3499   15.7469   22.4051 C   0  0  0  0  0  0  0  0  0  0  0  0
   29.2417   14.8752   21.8399 C   0  0  0  0  0  0  0  0  0  0  0  0
   27.9384   15.6498   21.6886 C   0  0  0  0  0  0  0  0  0  0  0  0
   26.8951   14.8107   20.9692 C   0  0  0  0  0  0  0  0  0  0  0  0
   27.2798   14.4981   19.5469 N   0  0  0  0  0  0  0  0  0  0  0  0
   32.8921   17.6014   22.3924 O   0  0  0  0  0  0  0  0  0  0  0  0
  2  1  1  6  0  0  0
  2  3  1  0  0  0  0
  2  5  1  0  0  0  0
  3  4  1  0  0  0  0
  3 10  1  0  0  0  0
  5  6  1  0  0  0  0
  6  7  1  0  0  0  0
  7  8  1  0  0  0  0
  8  9  1  0  0  0  0
M  END
>  <CHROM.1>
135.31372565,-65.88451736,-67.13754122,173.17702822,-64.85058085,30.01343648
16.34063534,21.54892073,-0.58956755,-0.29604206,-2.27410207

>  <Name>
ligand

>  <RI>
0

>  <Rbt.Current_Directory>
/home/itssahil/PROJECTS/Mol_Feturizer/New_Systems/rnas/3DIZ

>  <Rbt.Executable>
rbdock ($Id: //depot/dev/client3/rdock/2013.1/src/exe/rbdock.cxx#4 $)

>  <Rbt.Library>
libRbt.so (2013.1, Build901 2013/11/27)

>  <Rbt.Parameter_File>
/export/apps/rDock/src/rDock_2013.1_src/data/scripts/dock_solv.prm

>  <Rbt.Receptor>
prm/pocket_docking_8.prm

>  <SCORE>
-9.70657

>  <SCORE.INTER>
-9.09598

>  <SCORE.INTER.CONST>
1

>  <SCORE.INTER.POLAR>
0

>  <SCORE.INTER.ROT>
5

>  <SCORE.INTER.SOLV>
13.7446

>  <SCORE.INTER.VDW>
-17.5789

>  <SCORE.INTER.norm>
-0.909598

>  <SCORE.INTRA>
-0.61059

>  <SCORE.INTRA.DIHEDRAL>
-1.5673

>  <SCORE.INTRA.DIHEDRAL.0>
3.67053

>  <SCORE.INTRA.POLAR>
0

>  <SCORE.INTRA.POLAR.0>
0

>  <SCORE.INTRA.REPUL>
0

>  <SCORE.INTRA.REPUL.0>
0

>  <SCORE.INTRA.SOLV>
0.525038

>  <SCORE.INTRA.SOLV.lig_0>
-32.0553

>  <SCORE.INTRA.VDW>
-0.0894589

>  <SCORE.INTRA.VDW.0>
-0.571921

>  <SCORE.INTRA.norm>
-0.061059

>  <SCORE.RESTR>
0

>  <SCORE.RESTR.CAVITY>
0

>  <SCORE.RESTR.norm>
0

>  <SCORE.SYSTEM>
0

>  <SCORE.SYSTEM.CONST>
0

>  <SCORE.SYSTEM.DIHEDRAL>
0

>  <SCORE.SYSTEM.SOLV>
0

>  <SCORE.SYSTEM.norm>
0

>  <SCORE.heavy>
10

>  <SCORE.norm>
-0.970657

>  <RMSD>
1.258

$$$$
ligand
 OpenBabel11021811473D
libRbt.so/2013.1/901 2013/11/27
 10  9  0  0  0  0  0  0  0  0999 V2000
   32.2580   15.9470   20.3171 N   0  0  0  0  0  0  0  0  0  0  0  0
   31.5142   16.7989   21.2931 C   0  0  2  0  0  0  0  0  0  0  0  0
   32.3942   17.9077   21.8546 C   0  0  0  0  0  0  0  0  0  0  0  0
   33.5910   17.9669   21.5940 O   0  0  0  0  0  0  0  0  0  0  0  0
   30.9199   15.9496   22.4194 C   0  0  0  0  0  0  0  0  0  0  0  0
   29.8616   14.9660   21.9500 C   0  0  0  0  0  0  0  0  0  0  0  0
   28.6398   15.6808   21.3862 C   0  0  0  0  0  0  0  0  0  0  0  0
   27.5834   14.6779   20.9523 C   0  0  0  0  0  0  0  0  0  0  0  0
   26.3704   15.3355   20.3481 N   0  0  0  0  0  0  0  0  0  0  0  0
   31.9462   18.8003   22.5613 O   0  0  0  0  0  0  0  0  0  0  0  0
  2  1  1  6  0  0  0
  2  3  1  0  0  0  0
  2  5  1  0  0  0  0
  3  4  1  0  0  0  0
  3 10  1  0  0  0  0
  5  6  1  0  0  0  0
  6  7  1  0  0  0  0
  7  8  1  0  0  0  0
  8  9  1  0  0  0  0
M  END
>  <CHROM.1>
-6.14299553,-64.49184811,-64.23796101,-178.73697600,-178.26002777,30.53728123
16.43433234,21.48071167,-0.50367710,-0.07800559,-2.69252301

>  <Name>
ligand

>  <RI>
0

>  <Rbt.Current_Directory>
/home/itssahil/PROJECTS/Mol_Feturizer/New_Systems/rnas/3DIZ

>  <Rbt.Executable>
rbdock ($Id: //depot/dev/client3/rdock/2013.1/src/exe/rbdock.cxx#4 $)

>  <Rbt.Library>
libRbt.so (2013.1, Build901 2013/11/27)

>  <Rbt.Parameter_File>
/export/apps/rDock/src/rDock_2013.1_src/data/scripts/dock_solv.prm

>  <Rbt.Receptor>
prm/pocket_docking_2.prm

>  <SCORE>
-8.03317

>  <SCORE.INTER>
-6.997

>  <SCORE.INTER.CONST>
1

>  <SCORE.INTER.POLAR>
0

>  <SCORE.INTER.ROT>
5

>  <SCORE.INTER.SOLV>
17.8048

>  <SCORE.INTER.VDW>
-17.5329

>  <SCORE.INTER.norm>
-0.6997

>  <SCORE.INTRA>
-1.03674

>  <SCORE.INTRA.DIHEDRAL>
-1.96169

>  <SCORE.INTRA.DIHEDRAL.0>
3.67053

>  <SCORE.INTRA.POLAR>
0

>  <SCORE.INTRA.POLAR.0>
0

>  <SCORE.INTRA.REPUL>
0

>  <SCORE.INTRA.REPUL.0>
0

>  <SCORE.INTRA.SOLV>
-0.341473

>  <SCORE.INTRA.SOLV.lig_0>
-32.0553

>  <SCORE.INTRA.VDW>
0.11484

>  <SCORE.INTRA.VDW.0>
-0.571921

>  <SCORE.INTRA.norm>
-0.103674

>  <SCORE.RESTR>
0.000575527

>  <SCORE.RESTR.CAVITY>
0.000575527

>  <SCORE.RESTR.norm>
5.75527e-05

>  <SCORE.SYSTEM>
0

>  <SCORE.SYSTEM.CONST>
0

>  <SCORE.SYSTEM.DIHEDRAL>
0

>  <SCORE.SYSTEM.SOLV>
0

>  <SCORE.SYSTEM.norm>
0

>  <SCORE.heavy>
10

>  <SCORE.norm>
-0.803317

>  <RMSD>
1.261

$$$$
ligand
 OpenBabel11021811473D
libRbt.so/2013.1/901 2013/11/27
 10  9  0  0  0  0  0  0  0  0999 V2000
   31.4530   16.3035   20.2405 N   0  0  0  0  0  0  0  0  0  0  0  0
   30.7908   16.8438   21.4656 C   0  0  2  0  0  0  0  0  0  0  0  0
   31.6820   17.8436   22.1904 C   0  0  0  0  0  0  0  0  0  0  0  0
   31.2334   18.8954   22.6331 O   0  0  0  0  0  0  0  0  0  0  0  0
   30.3655   15.7109   22.4030 C   0  0  0  0  0  0  0  0  0  0  0  0
   29.2425   14.8498   21.8508 C   0  0  0  0  0  0  0  0  0  0  0  0
   27.9532   15.6447   21.6854 C   0  0  0  0  0  0  0  0  0  0  0  0
   26.8960   14.8127   20.9783 C   0  0  0  0  0  0  0  0  0  0  0  0
   27.2533   14.5131   19.5461 N   0  0  0  0  0  0  0  0  0  0  0  0
   32.8706   17.6323   22.3894 O   0  0  0  0  0  0  0  0  0  0  0  0
  2  1  1  6  0  0  0
  2  3  1  0  0  0  0
  2  5  1  0  0  0  0
  3  4  1  0  0  0  0
  3 10  1  0  0  0  0
  5  6  1  0  0  0  0
  6  7  1  0  0  0  0
  7  8  1  0  0  0  0
  8  9  1  0  0  0  0
M  END
>  <CHROM.1>
136.61028679,-68.06430442,-64.51203604,173.16793267,-66.95129995,30.00207315
16.33417144,21.55714311,-0.59420718,-0.29113095,-2.27974813

>  <Name>
ligand

>  <RI>
0

>  <Rbt.Current_Directory>
/home/itssahil/PROJECTS/Mol_Feturizer/New_Systems/rnas/3DIZ

>  <Rbt.Executable>
rbdock ($Id: //depot/dev/client3/rdock/2013.1/src/exe/rbdock.cxx#4 $)

>  <Rbt.Library>
libRbt.so (2013.1, Build901 2013/11/27)

>  <Rbt.Parameter_File>
/export/apps/rDock/src/rDock_2013.1_src/data/scripts/dock_solv.prm

>  <Rbt.Receptor>
prm/pocket_docking_5.prm

>  <SCORE>
-9.66889

>  <SCORE.INTER>
-9.09904

>  <SCORE.INTER.CONST>
1

>  <SCORE.INTER.POLAR>
0

>  <SCORE.INTER.ROT>
5

>  <SCORE.INTER.SOLV>
13.8175

>  <SCORE.INTER.VDW>
-17.6052

>  <SCORE.INTER.norm>
-0.909904

>  <SCORE.INTRA>
-0.569843

>  <SCORE.INTRA.DIHEDRAL>
-1.48192

>  <SCORE.INTRA.DIHEDRAL.0>
3.67053

>  <SCORE.INTRA.POLAR>
0

>  <SCORE.INTRA.POLAR.0>
0

>  <SCORE.INTRA.REPUL>
0

>  <SCORE.INTRA.REPUL.0>
0

>  <SCORE.INTRA.SOLV>
0.484577

>  <SCORE.INTRA.SOLV.lig_0>
-32.0553

>  <SCORE.INTRA.VDW>
-0.0711733

>  <SCORE.INTRA.VDW.0>
-0.571921

>  <SCORE.INTRA.norm>
-0.0569843

>  <SCORE.RESTR>
0

>  <SCORE.RESTR.CAVITY>
0

>  <SCORE.RESTR.norm>
0

>  <SCORE.SYSTEM>
0

>  <SCORE.SYSTEM.CONST>
0

>  <SCORE.SYSTEM.DIHEDRAL>
0

>  <SCORE.SYSTEM.SOLV>
0

>  <SCORE.SYSTEM.norm>
0

>  <SCORE.heavy>
10

>  <SCORE.norm>
-0.966889

>  <RMSD>
1.270

$$$$
ligand
 OpenBabel11021811473D
libRbt.so/2013.1/901 2013/11/27
 10  9  0  0  0  0  0  0  0  0999 V2000
   31.3745   16.3731   20.2179 N   0  0  0  0  0  0  0  0  0  0  0  0
   30.7333   16.8748   21.4703 C   0  0  2  0  0  0  0  0  0  0  0  0
   31.6438   17.8386   22.2195 C   0  0  0  0  0  0  0  0  0  0  0  0
   31.2249   18.9062   22.6534 O   0  0  0  0  0  0  0  0  0  0  0  0
   30.3080   15.7126   22.3712 C   0  0  0  0  0  0  0  0  0  0  0  0
   29.1988   14.8575   21.7830 C   0  0  0  0  0  0  0  0  0  0  0  0
   27.8879   15.6276   21.6829 C   0  0  0  0  0  0  0  0  0  0  0  0
   26.8427   14.8145   20.9368 C   0  0  0  0  0  0  0  0  0  0  0  0
   27.2419   14.5186   19.5149 N   0  0  0  0  0  0  0  0  0  0  0  0
   32.8180   17.5814   22.4476 O   0  0  0  0  0  0  0  0  0  0  0  0
  2  1  1  6  0  0  0
  2  3  1  0  0  0  0
  2  5  1  0  0  0  0
  3  4  1  0  0  0  0
  3 10  1  0  0  0  0
  5  6  1  0  0  0  0
  6  7  1  0  0  0  0
  7  8  1  0  0  0  0
  8  9  1  0  0  0  0
M  END
>  <CHROM.1>
133.25986577,-66.26456615,-67.03250921,172.97395441,-62.25006221,29.95582679
16.33894018,21.54932310,-0.59447818,-0.30209552,-2.24968197

>  <Name>
ligand

>  <RI>
0

>  <Rbt.Current_Directory>
/home/itssahil/PROJECTS/Mol_Feturizer/New_Systems/rnas/3DIZ

>  <Rbt.Executable>
rbdock ($Id: //depot/dev/client3/rdock/2013.1/src/exe/rbdock.cxx#4 $)

>  <Rbt.Library>
libRbt.so (2013.1, Build901 2013/11/27)

>  <Rbt.Parameter_File>
/export/apps/rDock/src/rDock_2013.1_src/data/scripts/dock_solv.prm

>  <Rbt.Receptor>
prm/pocket_docking_7.prm

>  <SCORE>
-9.69074

>  <SCORE.INTER>
-9.1039

>  <SCORE.INTER.CONST>
1

>  <SCORE.INTER.POLAR>
0

>  <SCORE.INTER.ROT>
5

>  <SCORE.INTER.SOLV>
13.8021

>  <SCORE.INTER.VDW>
-17.6033

>  <SCORE.INTER.norm>
-0.91039

>  <SCORE.INTRA>
-0.58684

>  <SCORE.INTRA.DIHEDRAL>
-1.60734

>  <SCORE.INTRA.DIHEDRAL.0>
3.67053

>  <SCORE.INTRA.POLAR>
0

>  <SCORE.INTRA.POLAR.0>
0

>  <SCORE.INTRA.REPUL>
0

>  <SCORE.INTRA.REPUL.0>
0

>  <SCORE.INTRA.SOLV>
0.555959

>  <SCORE.INTRA.SOLV.lig_0>
-32.0553

>  <SCORE.INTRA.VDW>
-0.0611519

>  <SCORE.INTRA.VDW.0>
-0.571921

>  <SCORE.INTRA.norm>
-0.058684

>  <SCORE.RESTR>
0

>  <SCORE.RESTR.CAVITY>
0

>  <SCORE.RESTR.norm>
0

>  <SCORE.SYSTEM>
0

>  <SCORE.SYSTEM.CONST>
0

>  <SCORE.SYSTEM.DIHEDRAL>
0

>  <SCORE.SYSTEM.SOLV>
0

>  <SCORE.SYSTEM.norm>
0

>  <SCORE.heavy>
10

>  <SCORE.norm>
-0.969074

>  <RMSD>
1.278

$$$$
ligand
 OpenBabel11021811473D
libRbt.so/2013.1/901 2013/11/27
 10  9  0  0  0  0  0  0  0  0999 V2000
   32.1725   16.1498   20.4845 N   0  0  0  0  0  0  0  0  0  0  0  0
   31.3884   17.1868   21.2203 C   0  0  2  0  0  0  0  0  0  0  0  0
   32.2314   17.8775   22.2840 C   0  0  0  0  0  0  0  0  0  0  0  0
   31.8686   18.9268   22.8045 O   0  0  0  0  0  0  0  0  0  0  0  0
   30.1222   16.5832   21.8331 C   0  0  0  0  0  0  0  0  0  0  0  0
   29.1253   16.0791   20.8037 C   0  0  0  0  0  0  0  0  0  0  0  0
   27.8640   15.5339   21.4620 C   0  0  0  0  0  0  0  0  0  0  0  0
   26.8548   15.0994   20.4119 C   0  0  0  0  0  0  0  0  0  0  0  0
   25.5324   14.6942   21.0085 N   0  0  0  0  0  0  0  0  0  0  0  0
   33.2861   17.4062   22.6870 O   0  0  0  0  0  0  0  0  0  0  0  0
  2  1  1  1  0  0  0
  2  3  1  0  0  0  0
  2  5  1  0  0  0  0
  3  4  1  0  0  0  0
  3 10  1  0  0  0  0
  5  6  1  0  0  0  0
  6  7  1  0  0  0  0
  7  8  1  0  0  0  0
  8  9  1  0  0  0  0
M  END
>  <CHROM.1>
164.98852636,-64.82734142,-177.99611383,177.20877603,-173.68870405,30.07489582
16.57565523,21.52579183,-0.45581788,-0.15069616,-2.37258853

>  <Name>
ligand

>  <RI>
0

>  <Rbt.Current_Directory>
/home/itssahil/PROJECTS/Mol_Feturizer/New_Systems/rnas/3DIZ

>  <Rbt.Executable>
rbdock ($Id: //depot/dev/client3/rdock/2013.1/src/exe/rbdock.cxx#4 $)

>  <Rbt.Library>
libRbt.so (2013.1, Build901 2013/11/27)

>  <Rbt.Parameter_File>
/export/apps/rDock/src/rDock_2013.1_src/data/scripts/dock_solv.prm

>  <Rbt.Receptor>
prm/pocket_docking_4.prm

>  <SCORE>
-7.71892

>  <SCORE.INTER>
-6.11254

>  <SCORE.INTER.CONST>
1

>  <SCORE.INTER.POLAR>
0

>  <SCORE.INTER.ROT>
5

>  <SCORE.INTER.SOLV>
19.557

>  <SCORE.INTER.VDW>
-17.5274

>  <SCORE.INTER.norm>
-0.611254

>  <SCORE.INTRA>
-1.6083

>  <SCORE.INTRA.DIHEDRAL>
-1.91419

>  <SCORE.INTRA.DIHEDRAL.0>
3.67053

>  <SCORE.INTRA.POLAR>
0

>  <SCORE.INTRA.POLAR.0>
0

>  <SCORE.INTRA.REPUL>
0

>  <SCORE.INTRA.REPUL.0>
0

>  <SCORE.INTRA.SOLV>
-0.882317

>  <SCORE.INTRA.SOLV.lig_0>
-32.0553

>  <SCORE.INTRA.VDW>
-0.210043

>  <SCORE.INTRA.VDW.0>
-0.571921

>  <SCORE.INTRA.norm>
-0.16083

>  <SCORE.RESTR>
0.001924

>  <SCORE.RESTR.CAVITY>
0.001924

>  <SCORE.RESTR.norm>
0.0001924

>  <SCORE.SYSTEM>
0

>  <SCORE.SYSTEM.CONST>
0

>  <SCORE.SYSTEM.DIHEDRAL>
0

>  <SCORE.SYSTEM.SOLV>
0

>  <SCORE.SYSTEM.norm>
0

>  <SCORE.heavy>
10

>  <SCORE.norm>
-0.771892

>  <RMSD>
1.311

$$$$
ligand
 OpenBabel11021811473D
libRbt.so/2013.1/901 2013/11/27
 10  9  0  0  0  0  0  0  0  0999 V2000
   30.6746   14.9586   21.6738 N   0  0  0  0  0  0  0  0  0  0  0  0
   31.0416   16.0499   20.7221 C   0  0  2  0  0  0  0  0  0  0  0  0
   32.4256   16.6115   21.0193 C   0  0  0  0  0  0  0  0  0  0  0  0
   32.7217   17.0228   22.1358 O   0  0  0  0  0  0  0  0  0  0  0  0
   29.9879   17.1603   20.7297 C   0  0  0  0  0  0  0  0  0  0  0  0
   28.6727   16.7594   20.0839 C   0  0  0  0  0  0  0  0  0  0  0  0
   27.9188   15.7400   20.9290 C   0  0  0  0  0  0  0  0  0  0  0  0
   26.7076   15.2107   20.1786 C   0  0  0  0  0  0  0  0  0  0  0  0
   27.0832   14.3995   18.9663 N   0  0  0  0  0  0  0  0  0  0  0  0
   33.3083   16.6506   20.1730 O   0  0  0  0  0  0  0  0  0  0  0  0
  2  1  1  1  0  0  0
  2  3  1  0  0  0  0
  2  5  1  0  0  0  0
  3  4  1  0  0  0  0
  3 10  1  0  0  0  0
  5  6  1  0  0  0  0
  6  7  1  0  0  0  0
  7  8  1  0  0  0  0
  8  9  1  0  0  0  0
M  END
>  <CHROM.1>
-53.89273090,-70.98324124,70.03620091,-172.15334276,66.36342670,30.09638953
16.07065249,20.66949776,0.32489654,0.10518571,1.00600007

>  <Name>
ligand

>  <RI>
0

>  <Rbt.Current_Directory>
/home/itssahil/PROJECTS/Mol_Feturizer/New_Systems/rnas/3DIZ

>  <Rbt.Executable>
rbdock ($Id: //depot/dev/client3/rdock/2013.1/src/exe/rbdock.cxx#4 $)

>  <Rbt.Library>
libRbt.so (2013.1, Build901 2013/11/27)

>  <Rbt.Parameter_File>
/export/apps/rDock/src/rDock_2013.1_src/data/scripts/dock_solv.prm

>  <Rbt.Receptor>
prm/pocket_docking_3.prm

>  <SCORE>
-7.24197

>  <SCORE.INTER>
-7.5725

>  <SCORE.INTER.CONST>
1

>  <SCORE.INTER.POLAR>
0

>  <SCORE.INTER.ROT>
5

>  <SCORE.INTER.SOLV>
15.9041

>  <SCORE.INTER.VDW>
-17.283

>  <SCORE.INTER.norm>
-0.75725

>  <SCORE.INTRA>
0.330528

>  <SCORE.INTRA.DIHEDRAL>
-0.847956

>  <SCORE.INTRA.DIHEDRAL.0>
3.67053

>  <SCORE.INTRA.POLAR>
0

>  <SCORE.INTRA.POLAR.0>
0

>  <SCORE.INTRA.REPUL>
0

>  <SCORE.INTRA.REPUL.0>
0

>  <SCORE.INTRA.SOLV>
1.45673

>  <SCORE.INTRA.SOLV.lig_0>
-32.0553

>  <SCORE.INTRA.VDW>
0.0261435

>  <SCORE.INTRA.VDW.0>
-0.571921

>  <SCORE.INTRA.norm>
0.0330528

>  <SCORE.RESTR>
0

>  <SCORE.RESTR.CAVITY>
0

>  <SCORE.RESTR.norm>
0

>  <SCORE.SYSTEM>
0

>  <SCORE.SYSTEM.CONST>
0

>  <SCORE.SYSTEM.DIHEDRAL>
0

>  <SCORE.SYSTEM.SOLV>
0

>  <SCORE.SYSTEM.norm>
0

>  <SCORE.heavy>
10

>  <SCORE.norm>
-0.724197

>  <RMSD>
1.366

$$$$
ligand
 OpenBabel11021811473D
libRbt.so/2013.1/901 2013/11/27
 10  9  0  0  0  0  0  0  0  0999 V2000
   31.3032   15.9815   20.2218 N   0  0  0  0  0  0  0  0  0  0  0  0
   30.5756   16.6801   21.3237 C   0  0  2  0  0  0  0  0  0  0  0  0
   31.4232   17.7823   21.9449 C   0  0  0  0  0  0  0  0  0  0  0  0
   32.6099   17.9104   21.6643 O   0  0  0  0  0  0  0  0  0  0  0  0
   30.1078   15.6846   22.3882 C   0  0  0  0  0  0  0  0  0  0  0  0
   29.1260   14.6491   21.8674 C   0  0  0  0  0  0  0  0  0  0  0  0
   27.7524   15.2560   21.6093 C   0  0  0  0  0  0  0  0  0  0  0  0
   27.7357   16.0048   20.2868 C   0  0  0  0  0  0  0  0  0  0  0  0
   27.8678   15.0892   19.0982 N   0  0  0  0  0  0  0  0  0  0  0  0
   30.9563   18.6028   22.7233 O   0  0  0  0  0  0  0  0  0  0  0  0
  2  1  1  6  0  0  0
  2  3  1  0  0  0  0
  2  5  1  0  0  0  0
  3  4  1  0  0  0  0
  3 10  1  0  0  0  0
  5  6  1  0  0  0  0
  6  7  1  0  0  0  0
  7  8  1  0  0  0  0
  8  9  1  0  0  0  0
M  END
>  <CHROM.1>
-9.29636240,-62.03834692,-72.92161882,79.33462922,67.93802820,29.97167132
16.39471303,21.32876982,-0.47944672,-0.51605359,-1.86747646

>  <Name>
ligand

>  <RI>
0

>  <Rbt.Current_Directory>
/home/itssahil/PROJECTS/Mol_Feturizer/New_Systems/rnas/3DIZ

>  <Rbt.Executable>
rbdock ($Id: //depot/dev/client3/rdock/2013.1/src/exe/rbdock.cxx#4 $)

>  <Rbt.Library>
libRbt.so (2013.1, Build901 2013/11/27)

>  <Rbt.Parameter_File>
/export/apps/rDock/src/rDock_2013.1_src/data/scripts/dock_solv.prm

>  <Rbt.Receptor>
prm/pocket_docking_3.prm

>  <SCORE>
-7.38404

>  <SCORE.INTER>
-9.46995

>  <SCORE.INTER.CONST>
1

>  <SCORE.INTER.POLAR>
0

>  <SCORE.INTER.ROT>
5

>  <SCORE.INTER.SOLV>
11.043

>  <SCORE.INTER.VDW>
-16.9276

>  <SCORE.INTER.norm>
-0.946995

>  <SCORE.INTRA>
2.08591

>  <SCORE.INTRA.DIHEDRAL>
0.233429

>  <SCORE.INTRA.DIHEDRAL.0>
3.67053

>  <SCORE.INTRA.POLAR>
0

>  <SCORE.INTRA.POLAR.0>
0

>  <SCORE.INTRA.REPUL>
0

>  <SCORE.INTRA.REPUL.0>
0

>  <SCORE.INTRA.SOLV>
3.08565

>  <SCORE.INTRA.SOLV.lig_0>
-32.0553

>  <SCORE.INTRA.VDW>
0.426365

>  <SCORE.INTRA.VDW.0>
-0.571921

>  <SCORE.INTRA.norm>
0.208591

>  <SCORE.RESTR>
0

>  <SCORE.RESTR.CAVITY>
0

>  <SCORE.RESTR.norm>
0

>  <SCORE.SYSTEM>
0

>  <SCORE.SYSTEM.CONST>
0

>  <SCORE.SYSTEM.DIHEDRAL>
0

>  <SCORE.SYSTEM.SOLV>
0

>  <SCORE.SYSTEM.norm>
0

>  <SCORE.heavy>
10

>  <SCORE.norm>
-0.738404

>  <RMSD>
1.373

$$$$
ligand
 OpenBabel11021811473D
libRbt.so/2013.1/901 2013/11/27
 10  9  0  0  0  0  0  0  0  0999 V2000
   31.4506   16.0042   20.3462 N   0  0  0  0  0  0  0  0  0  0  0  0
   30.6644   16.7548   21.3709 C   0  0  2  0  0  0  0  0  0  0  0  0
   31.4826   17.8781   21.9936 C   0  0  0  0  0  0  0  0  0  0  0  0
   32.7002   17.9319   21.8586 O   0  0  0  0  0  0  0  0  0  0  0  0
   30.1251   15.8097   22.4475 C   0  0  0  0  0  0  0  0  0  0  0  0
   29.1549   14.7684   21.9165 C   0  0  0  0  0  0  0  0  0  0  0  0
   27.7805   15.3670   21.6445 C   0  0  0  0  0  0  0  0  0  0  0  0
   27.7629   16.0855   20.3053 C   0  0  0  0  0  0  0  0  0  0  0  0
   27.8682   15.1409   19.1368 N   0  0  0  0  0  0  0  0  0  0  0  0
   30.9645   18.7877   22.6270 O   0  0  0  0  0  0  0  0  0  0  0  0
  2  1  1  6  0  0  0
  2  3  1  0  0  0  0
  2  5  1  0  0  0  0
  3  4  1  0  0  0  0
  3 10  1  0  0  0  0
  5  6  1  0  0  0  0
  6  7  1  0  0  0  0
  7  8  1  0  0  0  0
  8  9  1  0  0  0  0
M  END
>  <CHROM.1>
-14.61336242,-62.70804696,-76.47961873,80.78215232,69.12668449,30.02082813
16.48385618,21.38067220,-0.54038046,-0.43797046,-2.00153185

>  <Name>
ligand

>  <RI>
0

>  <Rbt.Current_Directory>
/home/itssahil/PROJECTS/Mol_Feturizer/New_Systems/rnas/3DIZ

>  <Rbt.Executable>
rbdock ($Id: //depot/dev/client3/rdock/2013.1/src/exe/rbdock.cxx#4 $)

>  <Rbt.Library>
libRbt.so (2013.1, Build901 2013/11/27)

>  <Rbt.Parameter_File>
/export/apps/rDock/src/rDock_2013.1_src/data/scripts/dock_solv.prm

>  <Rbt.Receptor>
prm/pocket_docking_5.prm

>  <SCORE>
-7.54135

>  <SCORE.INTER>
-9.53037

>  <SCORE.INTER.CONST>
1

>  <SCORE.INTER.POLAR>
0

>  <SCORE.INTER.ROT>
5

>  <SCORE.INTER.SOLV>
11.0605

>  <SCORE.INTER.VDW>
-16.9738

>  <SCORE.INTER.norm>
-0.953037

>  <SCORE.INTRA>
1.98902

>  <SCORE.INTRA.DIHEDRAL>
0.931948

>  <SCORE.INTRA.DIHEDRAL.0>
3.67053

>  <SCORE.INTRA.POLAR>
0

>  <SCORE.INTRA.POLAR.0>
0

>  <SCORE.INTRA.REPUL>
0

>  <SCORE.INTRA.REPUL.0>
0

>  <SCORE.INTRA.SOLV>
2.6543

>  <SCORE.INTRA.SOLV.lig_0>
-32.0553

>  <SCORE.INTRA.VDW>
0.19589

>  <SCORE.INTRA.VDW.0>
-0.571921

>  <SCORE.INTRA.norm>
0.198902

>  <SCORE.RESTR>
0

>  <SCORE.RESTR.CAVITY>
0

>  <SCORE.RESTR.norm>
0

>  <SCORE.SYSTEM>
0

>  <SCORE.SYSTEM.CONST>
0

>  <SCORE.SYSTEM.DIHEDRAL>
0

>  <SCORE.SYSTEM.SOLV>
0

>  <SCORE.SYSTEM.norm>
0

>  <SCORE.heavy>
10

>  <SCORE.norm>
-0.754135

>  <RMSD>
1.390

$$$$
ligand
 OpenBabel11021811473D
libRbt.so/2013.1/901 2013/11/27
 10  9  0  0  0  0  0  0  0  0999 V2000
   30.5743   14.8982   21.6857 N   0  0  0  0  0  0  0  0  0  0  0  0
   31.0276   15.9400   20.7159 C   0  0  2  0  0  0  0  0  0  0  0  0
   32.3750   16.5280   21.1134 C   0  0  0  0  0  0  0  0  0  0  0  0
   32.6641   16.7253   22.2886 O   0  0  0  0  0  0  0  0  0  0  0  0
   29.9747   17.0405   20.5626 C   0  0  0  0  0  0  0  0  0  0  0  0
   28.6632   16.5535   19.9709 C   0  0  0  0  0  0  0  0  0  0  0  0
   27.8614   15.7363   20.9764 C   0  0  0  0  0  0  0  0  0  0  0  0
   26.6297   15.1350   20.3198 C   0  0  0  0  0  0  0  0  0  0  0  0
   26.9721   14.1354   19.2464 N   0  0  0  0  0  0  0  0  0  0  0  0
   33.2359   16.8008   20.2879 O   0  0  0  0  0  0  0  0  0  0  0  0
  2  1  1  1  0  0  0
  2  3  1  0  0  0  0
  2  5  1  0  0  0  0
  3  4  1  0  0  0  0
  3 10  1  0  0  0  0
  5  6  1  0  0  0  0
  6  7  1  0  0  0  0
  7  8  1  0  0  0  0
  8  9  1  0  0  0  0
M  END
>  <CHROM.1>
-37.41427915,-63.85684723,73.73511032,-173.86529469,64.56957413,30.03936462
15.96425279,20.72713365,-0.01650622,0.34417376,2.27794170

>  <Name>
ligand

>  <RI>
0

>  <Rbt.Current_Directory>
/home/itssahil/PROJECTS/Mol_Feturizer/New_Systems/rnas/3DIZ

>  <Rbt.Executable>
rbdock ($Id: //depot/dev/client3/rdock/2013.1/src/exe/rbdock.cxx#4 $)

>  <Rbt.Library>
libRbt.so (2013.1, Build901 2013/11/27)

>  <Rbt.Parameter_File>
/export/apps/rDock/src/rDock_2013.1_src/data/scripts/dock_solv.prm

>  <Rbt.Receptor>
prm/pocket_docking_2.prm

>  <SCORE>
-7.00281

>  <SCORE.INTER>
-7.34365

>  <SCORE.INTER.CONST>
1

>  <SCORE.INTER.POLAR>
0

>  <SCORE.INTER.ROT>
5

>  <SCORE.INTER.SOLV>
16.2579

>  <SCORE.INTER.VDW>
-17.2484

>  <SCORE.INTER.norm>
-0.734365

>  <SCORE.INTRA>
0.340844

>  <SCORE.INTRA.DIHEDRAL>
-1.05333

>  <SCORE.INTRA.DIHEDRAL.0>
3.67053

>  <SCORE.INTRA.POLAR>
0

>  <SCORE.INTRA.POLAR.0>
0

>  <SCORE.INTRA.REPUL>
0

>  <SCORE.INTRA.REPUL.0>
0

>  <SCORE.INTRA.SOLV>
1.59864

>  <SCORE.INTRA.SOLV.lig_0>
-32.0553

>  <SCORE.INTRA.VDW>
0.068188

>  <SCORE.INTRA.VDW.0>
-0.571921

>  <SCORE.INTRA.norm>
0.0340844

>  <SCORE.RESTR>
0

>  <SCORE.RESTR.CAVITY>
0

>  <SCORE.RESTR.norm>
0

>  <SCORE.SYSTEM>
0

>  <SCORE.SYSTEM.CONST>
0

>  <SCORE.SYSTEM.DIHEDRAL>
0

>  <SCORE.SYSTEM.SOLV>
0

>  <SCORE.SYSTEM.norm>
0

>  <SCORE.heavy>
10

>  <SCORE.norm>
-0.700281

>  <RMSD>
1.396

$$$$
ligand
 OpenBabel11021811473D
libRbt.so/2013.1/901 2013/11/27
 10  9  0  0  0  0  0  0  0  0999 V2000
   32.2528   15.8925   20.2863 N   0  0  0  0  0  0  0  0  0  0  0  0
   31.1125   16.4386   21.0820 C   0  0  2  0  0  0  0  0  0  0  0  0
   31.5183   17.6806   21.8642 C   0  0  0  0  0  0  0  0  0  0  0  0
   30.7182   18.5813   22.0925 O   0  0  0  0  0  0  0  0  0  0  0  0
   30.5340   15.3706   22.0137 C   0  0  0  0  0  0  0  0  0  0  0  0
   29.1691   15.7260   22.5778 C   0  0  0  0  0  0  0  0  0  0  0  0
   28.0423   15.2054   21.6942 C   0  0  0  0  0  0  0  0  0  0  0  0
   27.9904   15.9715   20.3825 C   0  0  0  0  0  0  0  0  0  0  0  0
   26.9914   15.3971   19.4125 N   0  0  0  0  0  0  0  0  0  0  0  0
   32.6435   17.8228   22.3232 O   0  0  0  0  0  0  0  0  0  0  0  0
  2  1  1  1  0  0  0
  2  3  1  0  0  0  0
  2  5  1  0  0  0  0
  3  4  1  0  0  0  0
  3 10  1  0  0  0  0
  5  6  1  0  0  0  0
  6  7  1  0  0  0  0
  7  8  1  0  0  0  0
  8  9  1  0  0  0  0
M  END
>  <CHROM.1>
148.11401965,-164.86627242,91.10092724,-69.64427138,173.75057504,30.11411176
16.44061480,21.39171019,-0.50903371,-0.11825776,-2.36404502

>  <Name>
ligand

>  <RI>
0

>  <Rbt.Current_Directory>
/home/itssahil/PROJECTS/Mol_Feturizer/New_Systems/rnas/3DIZ

>  <Rbt.Executable>
rbdock ($Id: //depot/dev/client3/rdock/2013.1/src/exe/rbdock.cxx#4 $)

>  <Rbt.Library>
libRbt.so (2013.1, Build901 2013/11/27)

>  <Rbt.Parameter_File>
/export/apps/rDock/src/rDock_2013.1_src/data/scripts/dock_solv.prm

>  <Rbt.Receptor>
prm/pocket_docking_7.prm

>  <SCORE>
-5.95812

>  <SCORE.INTER>
-6.89503

>  <SCORE.INTER.CONST>
1

>  <SCORE.INTER.POLAR>
0

>  <SCORE.INTER.ROT>
5

>  <SCORE.INTER.SOLV>
15.7252

>  <SCORE.INTER.VDW>
-16.7717

>  <SCORE.INTER.norm>
-0.689503

>  <SCORE.INTRA>
0.936911

>  <SCORE.INTRA.DIHEDRAL>
2.36199

>  <SCORE.INTRA.DIHEDRAL.0>
3.67053

>  <SCORE.INTRA.POLAR>
0

>  <SCORE.INTRA.POLAR.0>
0

>  <SCORE.INTRA.REPUL>
0

>  <SCORE.INTRA.REPUL.0>
0

>  <SCORE.INTRA.SOLV>
-0.872846

>  <SCORE.INTRA.SOLV.lig_0>
-32.0553

>  <SCORE.INTRA.VDW>
0.192338

>  <SCORE.INTRA.VDW.0>
-0.571921

>  <SCORE.INTRA.norm>
0.0936911

>  <SCORE.RESTR>
0

>  <SCORE.RESTR.CAVITY>
0

>  <SCORE.RESTR.norm>
0

>  <SCORE.SYSTEM>
0

>  <SCORE.SYSTEM.CONST>
0

>  <SCORE.SYSTEM.DIHEDRAL>
0

>  <SCORE.SYSTEM.SOLV>
0

>  <SCORE.SYSTEM.norm>
0

>  <SCORE.heavy>
10

>  <SCORE.norm>
-0.595812

>  <RMSD>
1.400

$$$$
ligand
 OpenBabel11021811473D
libRbt.so/2013.1/901 2013/11/27
 10  9  0  0  0  0  0  0  0  0999 V2000
   31.8543   15.9849   20.6193 N   0  0  0  0  0  0  0  0  0  0  0  0
   31.0163   16.8465   21.5064 C   0  0  2  0  0  0  0  0  0  0  0  0
   31.8350   17.9640   22.1389 C   0  0  0  0  0  0  0  0  0  0  0  0
   33.0601   17.9218   22.1655 O   0  0  0  0  0  0  0  0  0  0  0  0
   30.3142   16.0092   22.5783 C   0  0  0  0  0  0  0  0  0  0  0  0
   29.2870   15.0389   22.0205 C   0  0  0  0  0  0  0  0  0  0  0  0
   28.1290   15.7687   21.3514 C   0  0  0  0  0  0  0  0  0  0  0  0
   27.0809   14.7814   20.8650 C   0  0  0  0  0  0  0  0  0  0  0  0
   25.9768   15.4432   20.0828 N   0  0  0  0  0  0  0  0  0  0  0  0
   31.3141   18.9615   22.6193 O   0  0  0  0  0  0  0  0  0  0  0  0
  2  1  1  1  0  0  0
  2  3  1  0  0  0  0
  2  5  1  0  0  0  0
  3  4  1  0  0  0  0
  3 10  1  0  0  0  0
  5  6  1  0  0  0  0
  6  7  1  0  0  0  0
  7  8  1  0  0  0  0
  8  9  1  0  0  0  0
M  END
>  <CHROM.1>
-16.89136486,-65.75416768,-64.26145171,-177.08931757,-174.66243340,30.01484611
16.50329707,21.61025574,-0.52794059,0.07578226,-2.80972900

>  <Name>
ligand

>  <RI>
0

>  <Rbt.Current_Directory>
/home/itssahil/PROJECTS/Mol_Feturizer/New_Systems/rnas/3DIZ

>  <Rbt.Executable>
rbdock ($Id: //depot/dev/client3/rdock/2013.1/src/exe/rbdock.cxx#4 $)

>  <Rbt.Library>
libRbt.so (2013.1, Build901 2013/11/27)

>  <Rbt.Parameter_File>
/export/apps/rDock/src/rDock_2013.1_src/data/scripts/dock_solv.prm

>  <Rbt.Receptor>
prm/pocket_docking_4.prm

>  <SCORE>
-8.52955

>  <SCORE.INTER>
-7.49486

>  <SCORE.INTER.CONST>
1

>  <SCORE.INTER.POLAR>
0

>  <SCORE.INTER.ROT>
5

>  <SCORE.INTER.SOLV>
17.8551

>  <SCORE.INTER.VDW>
-17.8816

>  <SCORE.INTER.norm>
-0.749486

>  <SCORE.INTRA>
-1.03469

>  <SCORE.INTRA.DIHEDRAL>
-1.75678

>  <SCORE.INTRA.DIHEDRAL.0>
3.67053

>  <SCORE.INTRA.POLAR>
0

>  <SCORE.INTRA.POLAR.0>
0

>  <SCORE.INTRA.REPUL>
0

>  <SCORE.INTRA.REPUL.0>
0

>  <SCORE.INTRA.SOLV>
-0.36628

>  <SCORE.INTRA.SOLV.lig_0>
-32.0553

>  <SCORE.INTRA.VDW>
0.0268444

>  <SCORE.INTRA.VDW.0>
-0.571921

>  <SCORE.INTRA.norm>
-0.103469

>  <SCORE.RESTR>
0

>  <SCORE.RESTR.CAVITY>
0

>  <SCORE.RESTR.norm>
0

>  <SCORE.SYSTEM>
0

>  <SCORE.SYSTEM.CONST>
0

>  <SCORE.SYSTEM.DIHEDRAL>
0

>  <SCORE.SYSTEM.SOLV>
0

>  <SCORE.SYSTEM.norm>
0

>  <SCORE.heavy>
10

>  <SCORE.norm>
-0.852955

>  <RMSD>
1.426

$$$$
ligand
 OpenBabel11021811473D
libRbt.so/2013.1/901 2013/11/27
 10  9  0  0  0  0  0  0  0  0999 V2000
   31.8227   16.0838   20.5299 N   0  0  0  0  0  0  0  0  0  0  0  0
   31.0010   16.8769   21.4928 C   0  0  2  0  0  0  0  0  0  0  0  0
   31.8101   17.9992   22.1291 C   0  0  0  0  0  0  0  0  0  0  0  0
   33.0309   17.9327   22.2227 O   0  0  0  0  0  0  0  0  0  0  0  0
   30.3863   15.9716   22.5632 C   0  0  0  0  0  0  0  0  0  0  0  0
   29.3512   15.0006   22.0216 C   0  0  0  0  0  0  0  0  0  0  0  0
   28.1432   15.7293   21.4460 C   0  0  0  0  0  0  0  0  0  0  0  0
   27.1029   14.7376   20.9517 C   0  0  0  0  0  0  0  0  0  0  0  0
   25.9365   15.4075   20.2738 N   0  0  0  0  0  0  0  0  0  0  0  0
   31.2873   19.0239   22.5459 O   0  0  0  0  0  0  0  0  0  0  0  0
  2  1  1  6  0  0  0
  2  3  1  0  0  0  0
  2  5  1  0  0  0  0
  3  4  1  0  0  0  0
  3 10  1  0  0  0  0
  5  6  1  0  0  0  0
  6  7  1  0  0  0  0
  7  8  1  0  0  0  0
  8  9  1  0  0  0  0
M  END
>  <CHROM.1>
-25.02215648,-66.69120455,-63.68015078,-178.17803623,-175.45111040,30.01497788
16.50787566,21.63303109,-0.53356293,0.06516630,-2.84200304

>  <Name>
ligand

>  <RI>
0

>  <Rbt.Current_Directory>
/home/itssahil/PROJECTS/Mol_Feturizer/New_Systems/rnas/3DIZ

>  <Rbt.Executable>
rbdock ($Id: //depot/dev/client3/rdock/2013.1/src/exe/rbdock.cxx#4 $)

>  <Rbt.Library>
libRbt.so (2013.1, Build901 2013/11/27)

>  <Rbt.Parameter_File>
/export/apps/rDock/src/rDock_2013.1_src/data/scripts/dock_solv.prm

>  <Rbt.Receptor>
prm/pocket_docking_7.prm

>  <SCORE>
-8.55195

>  <SCORE.INTER>
-7.46499

>  <SCORE.INTER.CONST>
1

>  <SCORE.INTER.POLAR>
0

>  <SCORE.INTER.ROT>
5

>  <SCORE.INTER.SOLV>
18.005

>  <SCORE.INTER.VDW>
-17.9117

>  <SCORE.INTER.norm>
-0.746499

>  <SCORE.INTRA>
-1.08696

>  <SCORE.INTRA.DIHEDRAL>
-1.76958

>  <SCORE.INTRA.DIHEDRAL.0>
3.67053

>  <SCORE.INTRA.POLAR>
0

>  <SCORE.INTRA.POLAR.0>
0

>  <SCORE.INTRA.REPUL>
0

>  <SCORE.INTRA.REPUL.0>
0

>  <SCORE.INTRA.SOLV>
-0.37969

>  <SCORE.INTRA.SOLV.lig_0>
-32.0553

>  <SCORE.INTRA.VDW>
-0.0123269

>  <SCORE.INTRA.VDW.0>
-0.571921

>  <SCORE.INTRA.norm>
-0.108696

>  <SCORE.RESTR>
0

>  <SCORE.RESTR.CAVITY>
0

>  <SCORE.RESTR.norm>
0

>  <SCORE.SYSTEM>
0

>  <SCORE.SYSTEM.CONST>
0

>  <SCORE.SYSTEM.DIHEDRAL>
0

>  <SCORE.SYSTEM.SOLV>
0

>  <SCORE.SYSTEM.norm>
0

>  <SCORE.heavy>
10

>  <SCORE.norm>
-0.855195

>  <RMSD>
1.461

$$$$
ligand
 OpenBabel11021811473D
libRbt.so/2013.1/901 2013/11/27
 10  9  0  0  0  0  0  0  0  0999 V2000
   31.6640   15.9083   20.6843 N   0  0  0  0  0  0  0  0  0  0  0  0
   30.8001   16.8974   21.3962 C   0  0  2  0  0  0  0  0  0  0  0  0
   31.6303   17.9102   22.1735 C   0  0  0  0  0  0  0  0  0  0  0  0
   32.8112   17.7045   22.4315 O   0  0  0  0  0  0  0  0  0  0  0  0
   29.8004   16.1902   22.3146 C   0  0  0  0  0  0  0  0  0  0  0  0
   28.8058   15.3122   21.5746 C   0  0  0  0  0  0  0  0  0  0  0  0
   27.9638   16.1191   20.5942 C   0  0  0  0  0  0  0  0  0  0  0  0
   26.9004   15.2435   19.9519 C   0  0  0  0  0  0  0  0  0  0  0  0
   25.8908   14.7311   20.9453 N   0  0  0  0  0  0  0  0  0  0  0  0
   31.1698   18.9803   22.5476 O   0  0  0  0  0  0  0  0  0  0  0  0
  2  1  1  1  0  0  0
  2  3  1  0  0  0  0
  2  5  1  0  0  0  0
  3  4  1  0  0  0  0
  3 10  1  0  0  0  0
  5  6  1  0  0  0  0
  6  7  1  0  0  0  0
  7  8  1  0  0  0  0
  8  9  1  0  0  0  0
M  END
>  <CHROM.1>
-16.82431104,-63.60123392,-60.53899951,-175.27802350,64.55446329,29.77224675
16.52854959,21.48058813,-0.55007884,-0.01076923,-2.60368025

>  <Name>
ligand

>  <RI>
0

>  <Rbt.Current_Directory>
/home/itssahil/PROJECTS/Mol_Feturizer/New_Systems/rnas/3DIZ

>  <Rbt.Executable>
rbdock ($Id: //depot/dev/client3/rdock/2013.1/src/exe/rbdock.cxx#4 $)

>  <Rbt.Library>
libRbt.so (2013.1, Build901 2013/11/27)

>  <Rbt.Parameter_File>
/export/apps/rDock/src/rDock_2013.1_src/data/scripts/dock_solv.prm

>  <Rbt.Receptor>
prm/pocket_docking_4.prm

>  <SCORE>
-8.0419

>  <SCORE.INTER>
-7.65388

>  <SCORE.INTER.CONST>
1

>  <SCORE.INTER.POLAR>
0

>  <SCORE.INTER.ROT>
5

>  <SCORE.INTER.SOLV>
17.7815

>  <SCORE.INTER.VDW>
-17.9631

>  <SCORE.INTER.norm>
-0.765388

>  <SCORE.INTRA>
-0.388018

>  <SCORE.INTRA.DIHEDRAL>
-1.88631

>  <SCORE.INTRA.DIHEDRAL.0>
3.67053

>  <SCORE.INTRA.POLAR>
0

>  <SCORE.INTRA.POLAR.0>
0

>  <SCORE.INTRA.REPUL>
0

>  <SCORE.INTRA.REPUL.0>
0

>  <SCORE.INTRA.SOLV>
0.663903

>  <SCORE.INTRA.SOLV.lig_0>
-32.0553

>  <SCORE.INTRA.VDW>
0.223187

>  <SCORE.INTRA.VDW.0>
-0.571921

>  <SCORE.INTRA.norm>
-0.0388018

>  <SCORE.RESTR>
0

>  <SCORE.RESTR.CAVITY>
0

>  <SCORE.RESTR.norm>
0

>  <SCORE.SYSTEM>
0

>  <SCORE.SYSTEM.CONST>
0

>  <SCORE.SYSTEM.DIHEDRAL>
0

>  <SCORE.SYSTEM.SOLV>
0

>  <SCORE.SYSTEM.norm>
0

>  <SCORE.heavy>
10

>  <SCORE.norm>
-0.80419

>  <RMSD>
1.529

$$$$
ligand
 OpenBabel11021811473D
libRbt.so/2013.1/901 2013/11/27
 10  9  0  0  0  0  0  0  0  0999 V2000
   33.5099   16.9025   20.9647 N   0  0  0  0  0  0  0  0  0  0  0  0
   32.0991   17.2711   21.2890 C   0  0  2  0  0  0  0  0  0  0  0  0
   32.0344   18.3879   22.3223 C   0  0  0  0  0  0  0  0  0  0  0  0
   33.0237   18.7205   22.9660 O   0  0  0  0  0  0  0  0  0  0  0  0
   31.3070   16.0475   21.7564 C   0  0  0  0  0  0  0  0  0  0  0  0
   29.8008   16.2350   21.6966 C   0  0  0  0  0  0  0  0  0  0  0  0
   29.0595   14.9633   22.0902 C   0  0  0  0  0  0  0  0  0  0  0  0
   27.5930   15.0540   21.7013 C   0  0  0  0  0  0  0  0  0  0  0  0
   27.3908   15.1443   20.2114 N   0  0  0  0  0  0  0  0  0  0  0  0
   31.0086   19.0199   22.5353 O   0  0  0  0  0  0  0  0  0  0  0  0
  2  1  1  1  0  0  0
  2  3  1  0  0  0  0
  2  5  1  0  0  0  0
  3  4  1  0  0  0  0
  3 10  1  0  0  0  0
  5  6  1  0  0  0  0
  6  7  1  0  0  0  0
  7  8  1  0  0  0  0
  8  9  1  0  0  0  0
M  END
>  <CHROM.1>
-13.11094879,-162.31270916,176.53069249,-166.03465249,64.11330495,30.69060854
16.80681584,21.77671025,-0.59302092,-0.15293292,-2.61734986

>  <Name>
ligand

>  <RI>
0

>  <Rbt.Current_Directory>
/home/itssahil/PROJECTS/Mol_Feturizer/New_Systems/rnas/3DIZ

>  <Rbt.Executable>
rbdock ($Id: //depot/dev/client3/rdock/2013.1/src/exe/rbdock.cxx#4 $)

>  <Rbt.Library>
libRbt.so (2013.1, Build901 2013/11/27)

>  <Rbt.Parameter_File>
/export/apps/rDock/src/rDock_2013.1_src/data/scripts/dock_solv.prm

>  <Rbt.Receptor>
prm/blind_docking_60.prm

>  <SCORE>
-8.42186

>  <SCORE.INTER>
-7.87622

>  <SCORE.INTER.CONST>
1

>  <SCORE.INTER.POLAR>
0

>  <SCORE.INTER.ROT>
5

>  <SCORE.INTER.SOLV>
14.8331

>  <SCORE.INTER.VDW>
-17.1285

>  <SCORE.INTER.norm>
-0.787622

>  <SCORE.INTRA>
-0.545648

>  <SCORE.INTRA.DIHEDRAL>
-0.115586

>  <SCORE.INTRA.DIHEDRAL.0>
3.67053

>  <SCORE.INTRA.POLAR>
0

>  <SCORE.INTRA.POLAR.0>
0

>  <SCORE.INTRA.REPUL>
0

>  <SCORE.INTRA.REPUL.0>
0

>  <SCORE.INTRA.SOLV>
-0.669456

>  <SCORE.INTRA.SOLV.lig_0>
-32.0553

>  <SCORE.INTRA.VDW>
-0.153127

>  <SCORE.INTRA.VDW.0>
-0.571921

>  <SCORE.INTRA.norm>
-0.0545648

>  <SCORE.RESTR>
0

>  <SCORE.RESTR.CAVITY>
0

>  <SCORE.RESTR.norm>
0

>  <SCORE.SYSTEM>
0

>  <SCORE.SYSTEM.CONST>
0

>  <SCORE.SYSTEM.DIHEDRAL>
0

>  <SCORE.SYSTEM.SOLV>
0

>  <SCORE.SYSTEM.norm>
0

>  <SCORE.heavy>
10

>  <SCORE.norm>
-0.842186

>  <RMSD>
1.635

$$$$
ligand
 OpenBabel11021811473D
libRbt.so/2013.1/901 2013/11/27
 10  9  0  0  0  0  0  0  0  0999 V2000
   33.5287   16.9348   20.9580 N   0  0  0  0  0  0  0  0  0  0  0  0
   32.1156   17.2802   21.2977 C   0  0  2  0  0  0  0  0  0  0  0  0
   32.0442   18.3703   22.3588 C   0  0  0  0  0  0  0  0  0  0  0  0
   33.0301   18.6888   23.0146 O   0  0  0  0  0  0  0  0  0  0  0  0
   31.3388   16.0370   21.7381 C   0  0  0  0  0  0  0  0  0  0  0  0
   29.8303   16.2075   21.6829 C   0  0  0  0  0  0  0  0  0  0  0  0
   29.1047   14.9186   22.0486 C   0  0  0  0  0  0  0  0  0  0  0  0
   27.6302   15.0123   21.6921 C   0  0  0  0  0  0  0  0  0  0  0  0
   27.3973   15.1450   20.2099 N   0  0  0  0  0  0  0  0  0  0  0  0
   31.0161   18.9943   22.5836 O   0  0  0  0  0  0  0  0  0  0  0  0
  2  1  1  1  0  0  0
  2  3  1  0  0  0  0
  2  5  1  0  0  0  0
  3  4  1  0  0  0  0
  3 10  1  0  0  0  0
  5  6  1  0  0  0  0
  6  7  1  0  0  0  0
  7  8  1  0  0  0  0
  8  9  1  0  0  0  0
M  END
>  <CHROM.1>
-13.79156507,-162.00572003,176.53767718,-167.37256019,64.34711057,30.71133651
16.79055998,21.78256894,-0.59745761,-0.15860825,-2.59977031

>  <Name>
ligand

>  <RI>
0

>  <Rbt.Current_Directory>
/home/itssahil/PROJECTS/Mol_Feturizer/New_Systems/rnas/3DIZ

>  <Rbt.Executable>
rbdock ($Id: //depot/dev/client3/rdock/2013.1/src/exe/rbdock.cxx#4 $)

>  <Rbt.Library>
libRbt.so (2013.1, Build901 2013/11/27)

>  <Rbt.Parameter_File>
/export/apps/rDock/src/rDock_2013.1_src/data/scripts/dock_solv.prm

>  <Rbt.Receptor>
prm/blind_docking_60.prm

>  <SCORE>
-8.41374

>  <SCORE.INTER>
-7.80227

>  <SCORE.INTER.CONST>
1

>  <SCORE.INTER.POLAR>
0

>  <SCORE.INTER.ROT>
5

>  <SCORE.INTER.SOLV>
14.8576

>  <SCORE.INTER.VDW>
-17.0874

>  <SCORE.INTER.norm>
-0.780227

>  <SCORE.INTRA>
-0.611469

>  <SCORE.INTRA.DIHEDRAL>
-0.207478

>  <SCORE.INTRA.DIHEDRAL.0>
3.67053

>  <SCORE.INTRA.POLAR>
0

>  <SCORE.INTRA.POLAR.0>
0

>  <SCORE.INTRA.REPUL>
0

>  <SCORE.INTRA.REPUL.0>
0

>  <SCORE.INTRA.SOLV>
-0.682157

>  <SCORE.INTRA.SOLV.lig_0>
-32.0553

>  <SCORE.INTRA.VDW>
-0.166651

>  <SCORE.INTRA.VDW.0>
-0.571921

>  <SCORE.INTRA.norm>
-0.0611469

>  <SCORE.RESTR>
0

>  <SCORE.RESTR.CAVITY>
0

>  <SCORE.RESTR.norm>
0

>  <SCORE.SYSTEM>
0

>  <SCORE.SYSTEM.CONST>
0

>  <SCORE.SYSTEM.DIHEDRAL>
0

>  <SCORE.SYSTEM.SOLV>
0

>  <SCORE.SYSTEM.norm>
0

>  <SCORE.heavy>
10

>  <SCORE.norm>
-0.841374

>  <RMSD>
1.636

$$$$
ligand
 OpenBabel11021811473D
libRbt.so/2013.1/901 2013/11/27
 10  9  0  0  0  0  0  0  0  0999 V2000
   30.8280   15.6037   22.3173 N   0  0  0  0  0  0  0  0  0  0  0  0
   31.0617   15.9875   20.8927 C   0  0  2  0  0  0  0  0  0  0  0  0
   32.4466   16.5889   20.6937 C   0  0  0  0  0  0  0  0  0  0  0  0
   32.9298   17.3640   21.5117 O   0  0  0  0  0  0  0  0  0  0  0  0
   29.9741   16.9443   20.3980 C   0  0  0  0  0  0  0  0  0  0  0  0
   28.5947   16.3131   20.3187 C   0  0  0  0  0  0  0  0  0  0  0  0
   28.5415   15.2067   19.2725 C   0  0  0  0  0  0  0  0  0  0  0  0
   27.1472   14.6067   19.1952 C   0  0  0  0  0  0  0  0  0  0  0  0
   27.0452   13.5012   18.1772 N   0  0  0  0  0  0  0  0  0  0  0  0
   33.1477   16.3058   19.7318 O   0  0  0  0  0  0  0  0  0  0  0  0
  2  1  1  1  0  0  0
  2  3  1  0  0  0  0
  2  5  1  0  0  0  0
  3  4  1  0  0  0  0
  3 10  1  0  0  0  0
  5  6  1  0  0  0  0
  6  7  1  0  0  0  0
  7  8  1  0  0  0  0
  8  9  1  0  0  0  0
M  END
>  <CHROM.1>
-40.44058251,-66.34964030,-65.28286545,-179.05566745,-179.71932695,30.21331386
15.85860191,20.25034995,0.49315835,0.21994349,1.12322405

>  <Name>
ligand

>  <RI>
0

>  <Rbt.Current_Directory>
/home/itssahil/PROJECTS/Mol_Feturizer/New_Systems/rnas/3DIZ

>  <Rbt.Executable>
rbdock ($Id: //depot/dev/client3/rdock/2013.1/src/exe/rbdock.cxx#4 $)

>  <Rbt.Library>
libRbt.so (2013.1, Build901 2013/11/27)

>  <Rbt.Parameter_File>
/export/apps/rDock/src/rDock_2013.1_src/data/scripts/dock_solv.prm

>  <Rbt.Receptor>
prm/pocket_docking_4.prm

>  <SCORE>
-7.03454

>  <SCORE.INTER>
-5.83594

>  <SCORE.INTER.CONST>
1

>  <SCORE.INTER.POLAR>
0

>  <SCORE.INTER.ROT>
5

>  <SCORE.INTER.SOLV>
17.3439

>  <SCORE.INTER.VDW>
-16.6053

>  <SCORE.INTER.norm>
-0.583594

>  <SCORE.INTRA>
-1.1986

>  <SCORE.INTRA.DIHEDRAL>
-1.8264

>  <SCORE.INTRA.DIHEDRAL.0>
3.67053

>  <SCORE.INTRA.POLAR>
0

>  <SCORE.INTRA.POLAR.0>
0

>  <SCORE.INTRA.REPUL>
0

>  <SCORE.INTRA.REPUL.0>
0

>  <SCORE.INTRA.SOLV>
-0.399038

>  <SCORE.INTRA.SOLV.lig_0>
-32.0553

>  <SCORE.INTRA.VDW>
-0.0858811

>  <SCORE.INTRA.VDW.0>
-0.571921

>  <SCORE.INTRA.norm>
-0.11986

>  <SCORE.RESTR>
0

>  <SCORE.RESTR.CAVITY>
0

>  <SCORE.RESTR.norm>
0

>  <SCORE.SYSTEM>
0

>  <SCORE.SYSTEM.CONST>
0

>  <SCORE.SYSTEM.DIHEDRAL>
0

>  <SCORE.SYSTEM.SOLV>
0

>  <SCORE.SYSTEM.norm>
0

>  <SCORE.heavy>
10

>  <SCORE.norm>
-0.703454

>  <RMSD>
1.657

$$$$
ligand
 OpenBabel11021811473D
libRbt.so/2013.1/901 2013/11/27
 10  9  0  0  0  0  0  0  0  0999 V2000
   33.6290   16.9955   21.2117 N   0  0  0  0  0  0  0  0  0  0  0  0
   32.1813   17.3234   21.3794 C   0  0  2  0  0  0  0  0  0  0  0  0
   31.9750   18.4611   22.3705 C   0  0  0  0  0  0  0  0  0  0  0  0
   32.8632   18.8040   23.1432 O   0  0  0  0  0  0  0  0  0  0  0  0
   31.3840   16.0847   21.7954 C   0  0  0  0  0  0  0  0  0  0  0  0
   29.8807   16.2486   21.6511 C   0  0  0  0  0  0  0  0  0  0  0  0
   29.1348   14.9865   22.0661 C   0  0  0  0  0  0  0  0  0  0  0  0
   27.6787   15.0570   21.6361 C   0  0  0  0  0  0  0  0  0  0  0  0
   27.5140   15.0638   20.1389 N   0  0  0  0  0  0  0  0  0  0  0  0
   30.9328   19.1001   22.4211 O   0  0  0  0  0  0  0  0  0  0  0  0
  2  1  1  1  0  0  0
  2  3  1  0  0  0  0
  2  5  1  0  0  0  0
  3  4  1  0  0  0  0
  3 10  1  0  0  0  0
  5  6  1  0  0  0  0
  6  7  1  0  0  0  0
  7  8  1  0  0  0  0
  8  9  1  0  0  0  0
M  END
>  <CHROM.1>
-16.28731680,-165.62955256,179.52446293,-167.71517936,65.52443082,30.72196523
16.84530157,21.80407570,-0.63675278,-0.09220516,-2.67710381

>  <Name>
ligand

>  <RI>
0

>  <Rbt.Current_Directory>
/home/itssahil/PROJECTS/Mol_Feturizer/New_Systems/rnas/3DIZ

>  <Rbt.Executable>
rbdock ($Id: //depot/dev/client3/rdock/2013.1/src/exe/rbdock.cxx#4 $)

>  <Rbt.Library>
libRbt.so (2013.1, Build901 2013/11/27)

>  <Rbt.Parameter_File>
/export/apps/rDock/src/rDock_2013.1_src/data/scripts/dock_solv.prm

>  <Rbt.Receptor>
prm/pocket_docking_5.prm

>  <SCORE>
-8.45237

>  <SCORE.INTER>
-7.62776

>  <SCORE.INTER.CONST>
1

>  <SCORE.INTER.POLAR>
0

>  <SCORE.INTER.ROT>
5

>  <SCORE.INTER.SOLV>
14.5139

>  <SCORE.INTER.VDW>
-16.8565

>  <SCORE.INTER.norm>
-0.762776

>  <SCORE.INTRA>
-0.824611

>  <SCORE.INTRA.DIHEDRAL>
-0.644522

>  <SCORE.INTRA.DIHEDRAL.0>
3.67053

>  <SCORE.INTRA.POLAR>
0

>  <SCORE.INTRA.POLAR.0>
0

>  <SCORE.INTRA.REPUL>
0

>  <SCORE.INTRA.REPUL.0>
0

>  <SCORE.INTRA.SOLV>
-0.709152

>  <SCORE.INTRA.SOLV.lig_0>
-32.0553

>  <SCORE.INTRA.VDW>
-0.147774

>  <SCORE.INTRA.VDW.0>
-0.571921

>  <SCORE.INTRA.norm>
-0.0824611

>  <SCORE.RESTR>
0

>  <SCORE.RESTR.CAVITY>
0

>  <SCORE.RESTR.norm>
0

>  <SCORE.SYSTEM>
0

>  <SCORE.SYSTEM.CONST>
0

>  <SCORE.SYSTEM.DIHEDRAL>
0

>  <SCORE.SYSTEM.SOLV>
0

>  <SCORE.SYSTEM.norm>
0

>  <SCORE.heavy>
10

>  <SCORE.norm>
-0.845237

>  <RMSD>
1.732

$$$$
ligand
 OpenBabel11021811473D
libRbt.so/2013.1/901 2013/11/27
 10  9  0  0  0  0  0  0  0  0999 V2000
   29.6282   17.4490   20.7078 N   0  0  0  0  0  0  0  0  0  0  0  0
   30.3257   16.9213   21.9188 C   0  0  2  0  0  0  0  0  0  0  0  0
   31.7058   16.3751   21.5778 C   0  0  0  0  0  0  0  0  0  0  0  0
   31.9157   15.7818   20.5255 O   0  0  0  0  0  0  0  0  0  0  0  0
   29.4758   15.8594   22.6210 C   0  0  0  0  0  0  0  0  0  0  0  0
   28.8075   14.8831   21.6682 C   0  0  0  0  0  0  0  0  0  0  0  0
   27.5215   15.4563   21.0860 C   0  0  0  0  0  0  0  0  0  0  0  0
   27.0164   14.5906   19.9434 C   0  0  0  0  0  0  0  0  0  0  0  0
   27.9122   14.6432   18.7337 N   0  0  0  0  0  0  0  0  0  0  0  0
   32.6680   16.5277   22.3180 O   0  0  0  0  0  0  0  0  0  0  0  0
  2  1  1  6  0  0  0
  2  3  1  0  0  0  0
  2  5  1  0  0  0  0
  3  4  1  0  0  0  0
  3 10  1  0  0  0  0
  5  6  1  0  0  0  0
  6  7  1  0  0  0  0
  7  8  1  0  0  0  0
  8  9  1  0  0  0  0
M  END
>  <CHROM.1>
-36.64906232,42.45193030,-82.15038651,168.96678743,-68.33687523,29.73731130
15.84207688,21.10669307,-0.44805729,-0.22312546,-1.88089449

>  <Name>
ligand

>  <RI>
0

>  <Rbt.Current_Directory>
/home/itssahil/PROJECTS/Mol_Feturizer/New_Systems/rnas/3DIZ

>  <Rbt.Executable>
rbdock ($Id: //depot/dev/client3/rdock/2013.1/src/exe/rbdock.cxx#4 $)

>  <Rbt.Library>
libRbt.so (2013.1, Build901 2013/11/27)

>  <Rbt.Parameter_File>
/export/apps/rDock/src/rDock_2013.1_src/data/scripts/dock_solv.prm

>  <Rbt.Receptor>
prm/blind_docking_60.prm

>  <SCORE>
-5.91235

>  <SCORE.INTER>
-8.11593

>  <SCORE.INTER.CONST>
1

>  <SCORE.INTER.POLAR>
0

>  <SCORE.INTER.ROT>
5

>  <SCORE.INTER.SOLV>
13.9368

>  <SCORE.INTER.VDW>
-16.9895

>  <SCORE.INTER.norm>
-0.811593

>  <SCORE.INTRA>
2.20358

>  <SCORE.INTRA.DIHEDRAL>
1.64665

>  <SCORE.INTRA.DIHEDRAL.0>
3.67053

>  <SCORE.INTRA.POLAR>
0

>  <SCORE.INTRA.POLAR.0>
0

>  <SCORE.INTRA.REPUL>
0

>  <SCORE.INTRA.REPUL.0>
0

>  <SCORE.INTRA.SOLV>
2.60461

>  <SCORE.INTRA.SOLV.lig_0>
-32.0553

>  <SCORE.INTRA.VDW>
0.0779488

>  <SCORE.INTRA.VDW.0>
-0.571921

>  <SCORE.INTRA.norm>
0.220358

>  <SCORE.RESTR>
0

>  <SCORE.RESTR.CAVITY>
0

>  <SCORE.RESTR.norm>
0

>  <SCORE.SYSTEM>
0

>  <SCORE.SYSTEM.CONST>
0

>  <SCORE.SYSTEM.DIHEDRAL>
0

>  <SCORE.SYSTEM.SOLV>
0

>  <SCORE.SYSTEM.norm>
0

>  <SCORE.heavy>
10

>  <SCORE.norm>
-0.591235

>  <RMSD>
1.740

$$$$
ligand
 OpenBabel11021811473D
libRbt.so/2013.1/901 2013/11/27
 10  9  0  0  0  0  0  0  0  0999 V2000
   31.0380   15.7248   22.3515 N   0  0  0  0  0  0  0  0  0  0  0  0
   31.2243   15.8784   20.8774 C   0  0  2  0  0  0  0  0  0  0  0  0
   32.6016   16.4343   20.5409 C   0  0  0  0  0  0  0  0  0  0  0  0
   33.2741   15.9658   19.6289 O   0  0  0  0  0  0  0  0  0  0  0  0
   30.1205   16.7505   20.2740 C   0  0  0  0  0  0  0  0  0  0  0  0
   28.7969   16.0262   20.0977 C   0  0  0  0  0  0  0  0  0  0  0  0
   28.1516   15.6993   21.4386 C   0  0  0  0  0  0  0  0  0  0  0  0
   26.9436   14.7968   21.2478 C   0  0  0  0  0  0  0  0  0  0  0  0
   25.9245   15.3806   20.3048 N   0  0  0  0  0  0  0  0  0  0  0  0
   33.0845   17.3854   21.1402 O   0  0  0  0  0  0  0  0  0  0  0  0
  2  1  1  1  0  0  0
  2  3  1  0  0  0  0
  2  5  1  0  0  0  0
  3  4  1  0  0  0  0
  3 10  1  0  0  0  0
  5  6  1  0  0  0  0
  6  7  1  0  0  0  0
  7  8  1  0  0  0  0
  8  9  1  0  0  0  0
M  END
>  <CHROM.1>
136.03963239,-77.35841003,68.46345137,-171.44128761,-55.87516068,30.15862852
16.01786487,20.78162701,-0.05731240,0.19510649,1.69729684

>  <Name>
ligand

>  <RI>
0

>  <Rbt.Current_Directory>
/home/itssahil/PROJECTS/Mol_Feturizer/New_Systems/rnas/3DIZ

>  <Rbt.Executable>
rbdock ($Id: //depot/dev/client3/rdock/2013.1/src/exe/rbdock.cxx#4 $)

>  <Rbt.Library>
libRbt.so (2013.1, Build901 2013/11/27)

>  <Rbt.Parameter_File>
/export/apps/rDock/src/rDock_2013.1_src/data/scripts/dock_solv.prm

>  <Rbt.Receptor>
prm/pocket_docking_8.prm

>  <SCORE>
-6.41026

>  <SCORE.INTER>
-6.99183

>  <SCORE.INTER.CONST>
1

>  <SCORE.INTER.POLAR>
0

>  <SCORE.INTER.ROT>
5

>  <SCORE.INTER.SOLV>
17.8759

>  <SCORE.INTER.VDW>
-17.5532

>  <SCORE.INTER.norm>
-0.699183

>  <SCORE.INTRA>
0.581565

>  <SCORE.INTRA.DIHEDRAL>
-0.405513

>  <SCORE.INTRA.DIHEDRAL.0>
3.67053

>  <SCORE.INTRA.POLAR>
0

>  <SCORE.INTRA.POLAR.0>
0

>  <SCORE.INTRA.REPUL>
0

>  <SCORE.INTRA.REPUL.0>
0

>  <SCORE.INTRA.SOLV>
1.34832

>  <SCORE.INTRA.SOLV.lig_0>
-32.0553

>  <SCORE.INTRA.VDW>
0.110162

>  <SCORE.INTRA.VDW.0>
-0.571921

>  <SCORE.INTRA.norm>
0.0581565

>  <SCORE.RESTR>
0

>  <SCORE.RESTR.CAVITY>
0

>  <SCORE.RESTR.norm>
0

>  <SCORE.SYSTEM>
0

>  <SCORE.SYSTEM.CONST>
0

>  <SCORE.SYSTEM.DIHEDRAL>
0

>  <SCORE.SYSTEM.SOLV>
0

>  <SCORE.SYSTEM.norm>
0

>  <SCORE.heavy>
10

>  <SCORE.norm>
-0.641026

>  <RMSD>
1.785

$$$$
ligand
 OpenBabel11021811473D
libRbt.so/2013.1/901 2013/11/27
 10  9  0  0  0  0  0  0  0  0999 V2000
   30.7664   17.4235   21.9292 N   0  0  0  0  0  0  0  0  0  0  0  0
   31.5544   16.2056   21.5724 C   0  0  2  0  0  0  0  0  0  0  0  0
   32.7512   16.5488   20.6954 C   0  0  0  0  0  0  0  0  0  0  0  0
   33.7170   17.1578   21.1426 O   0  0  0  0  0  0  0  0  0  0  0  0
   30.6662   15.1566   20.8989 C   0  0  0  0  0  0  0  0  0  0  0  0
   29.5333   14.6583   21.7798 C   0  0  0  0  0  0  0  0  0  0  0  0
   28.3981   15.6711   21.8628 C   0  0  0  0  0  0  0  0  0  0  0  0
   27.6985   15.8054   20.5202 C   0  0  0  0  0  0  0  0  0  0  0  0
   27.0960   14.5089   20.0460 N   0  0  0  0  0  0  0  0  0  0  0  0
   32.8174   16.2098   19.5217 O   0  0  0  0  0  0  0  0  0  0  0  0
  2  1  1  6  0  0  0
  2  3  1  0  0  0  0
  2  5  1  0  0  0  0
  3  4  1  0  0  0  0
  3 10  1  0  0  0  0
  5  6  1  0  0  0  0
  6  7  1  0  0  0  0
  7  8  1  0  0  0  0
  8  9  1  0  0  0  0
M  END
>  <CHROM.1>
70.24027726,-61.46299005,76.69650578,67.79921218,60.27858231,30.53797196
15.94480368,20.97852965,0.14463893,0.27220170,1.02559029

>  <Name>
ligand

>  <RI>
0

>  <Rbt.Current_Directory>
/home/itssahil/PROJECTS/Mol_Feturizer/New_Systems/rnas/3DIZ

>  <Rbt.Executable>
rbdock ($Id: //depot/dev/client3/rdock/2013.1/src/exe/rbdock.cxx#4 $)

>  <Rbt.Library>
libRbt.so (2013.1, Build901 2013/11/27)

>  <Rbt.Parameter_File>
/export/apps/rDock/src/rDock_2013.1_src/data/scripts/dock_solv.prm

>  <Rbt.Receptor>
prm/pocket_docking_6.prm

>  <SCORE>
-6.4621

>  <SCORE.INTER>
-8.67313

>  <SCORE.INTER.CONST>
1

>  <SCORE.INTER.POLAR>
0

>  <SCORE.INTER.ROT>
5

>  <SCORE.INTER.SOLV>
13.0336

>  <SCORE.INTER.VDW>
-17.0599

>  <SCORE.INTER.norm>
-0.867313

>  <SCORE.INTRA>
2.21103

>  <SCORE.INTRA.DIHEDRAL>
-0.780891

>  <SCORE.INTRA.DIHEDRAL.0>
3.67053

>  <SCORE.INTRA.POLAR>
0

>  <SCORE.INTRA.POLAR.0>
0

>  <SCORE.INTRA.REPUL>
0

>  <SCORE.INTRA.REPUL.0>
0

>  <SCORE.INTRA.SOLV>
2.4354

>  <SCORE.INTRA.SOLV.lig_0>
-32.0553

>  <SCORE.INTRA.VDW>
1.38377

>  <SCORE.INTRA.VDW.0>
-0.571921

>  <SCORE.INTRA.norm>
0.221103

>  <SCORE.RESTR>
0

>  <SCORE.RESTR.CAVITY>
0

>  <SCORE.RESTR.norm>
0

>  <SCORE.SYSTEM>
0

>  <SCORE.SYSTEM.CONST>
0

>  <SCORE.SYSTEM.DIHEDRAL>
0

>  <SCORE.SYSTEM.SOLV>
0

>  <SCORE.SYSTEM.norm>
0

>  <SCORE.heavy>
10

>  <SCORE.norm>
-0.64621

>  <RMSD>
1.796

$$$$
ligand
 OpenBabel11021811473D
libRbt.so/2013.1/901 2013/11/27
 10  9  0  0  0  0  0  0  0  0999 V2000
   31.0836   17.3041   22.4618 N   0  0  0  0  0  0  0  0  0  0  0  0
   31.4979   16.4077   21.3409 C   0  0  2  0  0  0  0  0  0  0  0  0
   32.8659   16.7911   20.7924 C   0  0  0  0  0  0  0  0  0  0  0  0
   33.3990   16.1449   19.8970 O   0  0  0  0  0  0  0  0  0  0  0  0
   30.4460   16.3994   20.2290 C   0  0  0  0  0  0  0  0  0  0  0  0
   29.1849   15.6315   20.5863 C   0  0  0  0  0  0  0  0  0  0  0  0
   28.1570   15.6839   19.4629 C   0  0  0  0  0  0  0  0  0  0  0  0
   26.9846   14.7647   19.7641 C   0  0  0  0  0  0  0  0  0  0  0  0
   26.2616   15.1401   21.0310 N   0  0  0  0  0  0  0  0  0  0  0  0
   33.4781   17.7709   21.1952 O   0  0  0  0  0  0  0  0  0  0  0  0
  2  1  1  1  0  0  0
  2  3  1  0  0  0  0
  2  5  1  0  0  0  0
  3  4  1  0  0  0  0
  3 10  1  0  0  0  0
  5  6  1  0  0  0  0
  6  7  1  0  0  0  0
  7  8  1  0  0  0  0
  8  9  1  0  0  0  0
M  END
>  <CHROM.1>
177.53775554,-73.18255284,178.51259459,172.62223172,60.54831457,30.37864178
16.21506307,20.66572196,0.23584518,0.22109270,1.09367924

>  <Name>
ligand

>  <RI>
0

>  <Rbt.Current_Directory>
/home/itssahil/PROJECTS/Mol_Feturizer/New_Systems/rnas/3DIZ

>  <Rbt.Executable>
rbdock ($Id: //depot/dev/client3/rdock/2013.1/src/exe/rbdock.cxx#4 $)

>  <Rbt.Library>
libRbt.so (2013.1, Build901 2013/11/27)

>  <Rbt.Parameter_File>
/export/apps/rDock/src/rDock_2013.1_src/data/scripts/dock_solv.prm

>  <Rbt.Receptor>
prm/pocket_docking_7.prm

>  <SCORE>
-6.91285

>  <SCORE.INTER>
-6.24253

>  <SCORE.INTER.CONST>
1

>  <SCORE.INTER.POLAR>
0

>  <SCORE.INTER.ROT>
5

>  <SCORE.INTER.SOLV>
16.2024

>  <SCORE.INTER.VDW>
-16.4958

>  <SCORE.INTER.norm>
-0.624253

>  <SCORE.INTRA>
-0.670317

>  <SCORE.INTRA.DIHEDRAL>
-1.25886

>  <SCORE.INTRA.DIHEDRAL.0>
3.67053

>  <SCORE.INTRA.POLAR>
0

>  <SCORE.INTRA.POLAR.0>
0

>  <SCORE.INTRA.REPUL>
0

>  <SCORE.INTRA.REPUL.0>
0

>  <SCORE.INTRA.SOLV>
-0.0344389

>  <SCORE.INTRA.SOLV.lig_0>
-32.0553

>  <SCORE.INTRA.VDW>
-0.0236673

>  <SCORE.INTRA.VDW.0>
-0.571921

>  <SCORE.INTRA.norm>
-0.0670317

>  <SCORE.RESTR>
0

>  <SCORE.RESTR.CAVITY>
0

>  <SCORE.RESTR.norm>
0

>  <SCORE.SYSTEM>
0

>  <SCORE.SYSTEM.CONST>
0

>  <SCORE.SYSTEM.DIHEDRAL>
0

>  <SCORE.SYSTEM.SOLV>
0

>  <SCORE.SYSTEM.norm>
0

>  <SCORE.heavy>
10

>  <SCORE.norm>
-0.691285

>  <RMSD>
1.812

$$$$
ligand
 OpenBabel11021811473D
libRbt.so/2013.1/901 2013/11/27
 10  9  0  0  0  0  0  0  0  0999 V2000
   31.1268   17.3035   22.2837 N   0  0  0  0  0  0  0  0  0  0  0  0
   31.1807   16.2042   21.2737 C   0  0  2  0  0  0  0  0  0  0  0  0
   32.4318   16.2967   20.4103 C   0  0  0  0  0  0  0  0  0  0  0  0
   33.3601   17.0403   20.7085 O   0  0  0  0  0  0  0  0  0  0  0  0
   29.9185   16.1939   20.4077 C   0  0  0  0  0  0  0  0  0  0  0  0
   28.6455   15.9097   21.1863 C   0  0  0  0  0  0  0  0  0  0  0  0
   27.4199   15.9125   20.2810 C   0  0  0  0  0  0  0  0  0  0  0  0
   27.3345   14.6186   19.4883 C   0  0  0  0  0  0  0  0  0  0  0  0
   28.4322   14.4897   18.4650 N   0  0  0  0  0  0  0  0  0  0  0  0
   32.5805   15.6171   19.4037 O   0  0  0  0  0  0  0  0  0  0  0  0
  2  1  1  1  0  0  0
  2  3  1  0  0  0  0
  2  5  1  0  0  0  0
  3  4  1  0  0  0  0
  3 10  1  0  0  0  0
  5  6  1  0  0  0  0
  6  7  1  0  0  0  0
  7  8  1  0  0  0  0
  8  9  1  0  0  0  0
M  END
>  <CHROM.1>
12.37312259,-63.38243519,179.91434235,77.28141668,-68.28757694,30.28147229
15.96240616,20.37487715,0.33065602,0.14431033,1.00049414

>  <Name>
ligand

>  <RI>
0

>  <Rbt.Current_Directory>
/home/itssahil/PROJECTS/Mol_Feturizer/New_Systems/rnas/3DIZ

>  <Rbt.Executable>
rbdock ($Id: //depot/dev/client3/rdock/2013.1/src/exe/rbdock.cxx#4 $)

>  <Rbt.Library>
libRbt.so (2013.1, Build901 2013/11/27)

>  <Rbt.Parameter_File>
/export/apps/rDock/src/rDock_2013.1_src/data/scripts/dock_solv.prm

>  <Rbt.Receptor>
prm/pocket_docking_4.prm

>  <SCORE>
-7.67908

>  <SCORE.INTER>
-8.59017

>  <SCORE.INTER.CONST>
1

>  <SCORE.INTER.POLAR>
0

>  <SCORE.INTER.ROT>
5

>  <SCORE.INTER.SOLV>
11.4921

>  <SCORE.INTER.VDW>
-16.4908

>  <SCORE.INTER.norm>
-0.859017

>  <SCORE.INTRA>
0.911089

>  <SCORE.INTRA.DIHEDRAL>
-0.723352

>  <SCORE.INTRA.DIHEDRAL.0>
3.67053

>  <SCORE.INTRA.POLAR>
0

>  <SCORE.INTRA.POLAR.0>
0

>  <SCORE.INTRA.REPUL>
0

>  <SCORE.INTRA.REPUL.0>
0

>  <SCORE.INTRA.SOLV>
1.41296

>  <SCORE.INTRA.SOLV.lig_0>
-32.0553

>  <SCORE.INTRA.VDW>
0.566287

>  <SCORE.INTRA.VDW.0>
-0.571921

>  <SCORE.INTRA.norm>
0.0911089

>  <SCORE.RESTR>
0

>  <SCORE.RESTR.CAVITY>
0

>  <SCORE.RESTR.norm>
0

>  <SCORE.SYSTEM>
0

>  <SCORE.SYSTEM.CONST>
0

>  <SCORE.SYSTEM.DIHEDRAL>
0

>  <SCORE.SYSTEM.SOLV>
0

>  <SCORE.SYSTEM.norm>
0

>  <SCORE.heavy>
10

>  <SCORE.norm>
-0.767908

>  <RMSD>
1.840

$$$$
ligand
 OpenBabel11021811473D
libRbt.so/2013.1/901 2013/11/27
 10  9  0  0  0  0  0  0  0  0999 V2000
   30.8935   18.0005   22.4995 N   0  0  0  0  0  0  0  0  0  0  0  0
   31.9369   17.0098   22.0981 C   0  0  2  0  0  0  0  0  0  0  0  0
   33.2895   17.6757   21.8827 C   0  0  0  0  0  0  0  0  0  0  0  0
   33.5263   18.7965   22.3199 O   0  0  0  0  0  0  0  0  0  0  0  0
   31.5048   16.2343   20.8510 C   0  0  0  0  0  0  0  0  0  0  0  0
   30.3951   15.2298   21.1100 C   0  0  0  0  0  0  0  0  0  0  0  0
   29.0197   15.8821   21.0469 C   0  0  0  0  0  0  0  0  0  0  0  0
   27.9230   14.8355   21.1566 C   0  0  0  0  0  0  0  0  0  0  0  0
   26.5506   15.4022   20.9038 N   0  0  0  0  0  0  0  0  0  0  0  0
   34.2049   17.1162   21.2945 O   0  0  0  0  0  0  0  0  0  0  0  0
  2  1  1  6  0  0  0
  2  3  1  0  0  0  0
  2  5  1  0  0  0  0
  3  4  1  0  0  0  0
  3 10  1  0  0  0  0
  5  6  1  0  0  0  0
  6  7  1  0  0  0  0
  7  8  1  0  0  0  0
  8  9  1  0  0  0  0
M  END
>  <CHROM.1>
16.98701216,-72.19876464,84.81618715,173.79171286,-171.82822583,30.96627520
16.63775864,21.51498597,0.43633071,0.09319962,0.52364260

>  <Name>
ligand

>  <RI>
0

>  <Rbt.Current_Directory>
/home/itssahil/PROJECTS/Mol_Feturizer/New_Systems/rnas/3DIZ

>  <Rbt.Executable>
rbdock ($Id: //depot/dev/client3/rdock/2013.1/src/exe/rbdock.cxx#4 $)

>  <Rbt.Library>
libRbt.so (2013.1, Build901 2013/11/27)

>  <Rbt.Parameter_File>
/export/apps/rDock/src/rDock_2013.1_src/data/scripts/dock_solv.prm

>  <Rbt.Receptor>
prm/pocket_docking_2.prm

>  <SCORE>
-4.53385

>  <SCORE.INTER>
-5.17708

>  <SCORE.INTER.CONST>
1

>  <SCORE.INTER.POLAR>
0

>  <SCORE.INTER.ROT>
5

>  <SCORE.INTER.SOLV>
17.8268

>  <SCORE.INTER.VDW>
-16.327

>  <SCORE.INTER.norm>
-0.517708

>  <SCORE.INTRA>
0.635814

>  <SCORE.INTRA.DIHEDRAL>
1.02908

>  <SCORE.INTRA.DIHEDRAL.0>
3.67053

>  <SCORE.INTRA.POLAR>
0

>  <SCORE.INTRA.POLAR.0>
0

>  <SCORE.INTRA.REPUL>
0

>  <SCORE.INTRA.REPUL.0>
0

>  <SCORE.INTRA.SOLV>
0.142218

>  <SCORE.INTRA.SOLV.lig_0>
-32.0553

>  <SCORE.INTRA.VDW>
0.0501647

>  <SCORE.INTRA.VDW.0>
-0.571921

>  <SCORE.INTRA.norm>
0.0635814

>  <SCORE.RESTR>
0.00742081

>  <SCORE.RESTR.CAVITY>
0.00742081

>  <SCORE.RESTR.norm>
0.000742081

>  <SCORE.SYSTEM>
0

>  <SCORE.SYSTEM.CONST>
0

>  <SCORE.SYSTEM.DIHEDRAL>
0

>  <SCORE.SYSTEM.SOLV>
0

>  <SCORE.SYSTEM.norm>
0

>  <SCORE.heavy>
10

>  <SCORE.norm>
-0.453385

>  <RMSD>
1.844

$$$$
ligand
 OpenBabel11021811473D
libRbt.so/2013.1/901 2013/11/27
 10  9  0  0  0  0  0  0  0  0999 V2000
   30.4513   17.4215   21.6394 N   0  0  0  0  0  0  0  0  0  0  0  0
   31.2322   16.1551   21.5058 C   0  0  2  0  0  0  0  0  0  0  0  0
   32.4054   16.3179   20.5486 C   0  0  0  0  0  0  0  0  0  0  0  0
   33.3516   17.0503   20.8168 O   0  0  0  0  0  0  0  0  0  0  0  0
   30.3289   14.9981   21.0715 C   0  0  0  0  0  0  0  0  0  0  0  0
   29.2448   14.6574   22.0795 C   0  0  0  0  0  0  0  0  0  0  0  0
   28.0220   15.5512   21.9142 C   0  0  0  0  0  0  0  0  0  0  0  0
   27.1258   15.0350   20.8004 C   0  0  0  0  0  0  0  0  0  0  0  0
   27.7781   15.1140   19.4451 N   0  0  0  0  0  0  0  0  0  0  0  0
   32.4724   15.7077   19.4903 O   0  0  0  0  0  0  0  0  0  0  0  0
  2  1  1  6  0  0  0
  2  3  1  0  0  0  0
  2  5  1  0  0  0  0
  3  4  1  0  0  0  0
  3 10  1  0  0  0  0
  5  6  1  0  0  0  0
  6  7  1  0  0  0  0
  7  8  1  0  0  0  0
  8  9  1  0  0  0  0
M  END
>  <CHROM.1>
66.65736191,-63.14025159,84.08891721,82.08170350,-65.65715921,30.27823407
15.80692464,20.91088744,0.03752109,0.29255863,1.17152605

>  <Name>
ligand

>  <RI>
0

>  <Rbt.Current_Directory>
/home/itssahil/PROJECTS/Mol_Feturizer/New_Systems/rnas/3DIZ

>  <Rbt.Executable>
rbdock ($Id: //depot/dev/client3/rdock/2013.1/src/exe/rbdock.cxx#4 $)

>  <Rbt.Library>
libRbt.so (2013.1, Build901 2013/11/27)

>  <Rbt.Parameter_File>
/export/apps/rDock/src/rDock_2013.1_src/data/scripts/dock_solv.prm

>  <Rbt.Receptor>
prm/pocket_docking_7.prm

>  <SCORE>
-6.80902

>  <SCORE.INTER>
-10.1933

>  <SCORE.INTER.CONST>
1

>  <SCORE.INTER.POLAR>
0

>  <SCORE.INTER.ROT>
5

>  <SCORE.INTER.SOLV>
11.1026

>  <SCORE.INTER.VDW>
-17.4297

>  <SCORE.INTER.norm>
-1.01933

>  <SCORE.INTRA>
3.38429

>  <SCORE.INTRA.DIHEDRAL>
1.96936

>  <SCORE.INTRA.DIHEDRAL.0>
3.67053

>  <SCORE.INTRA.POLAR>
0

>  <SCORE.INTRA.POLAR.0>
0

>  <SCORE.INTRA.REPUL>
0

>  <SCORE.INTRA.REPUL.0>
0

>  <SCORE.INTRA.SOLV>
3.14915

>  <SCORE.INTRA.SOLV.lig_0>
-32.0553

>  <SCORE.INTRA.VDW>
0.82504

>  <SCORE.INTRA.VDW.0>
-0.571921

>  <SCORE.INTRA.norm>
0.338429

>  <SCORE.RESTR>
0

>  <SCORE.RESTR.CAVITY>
0

>  <SCORE.RESTR.norm>
0

>  <SCORE.SYSTEM>
0

>  <SCORE.SYSTEM.CONST>
0

>  <SCORE.SYSTEM.DIHEDRAL>
0

>  <SCORE.SYSTEM.SOLV>
0

>  <SCORE.SYSTEM.norm>
0

>  <SCORE.heavy>
10

>  <SCORE.norm>
-0.680902

>  <RMSD>
1.859

$$$$
ligand
 OpenBabel11021811473D
libRbt.so/2013.1/901 2013/11/27
 10  9  0  0  0  0  0  0  0  0999 V2000
   33.7620   17.1348   21.4359 N   0  0  0  0  0  0  0  0  0  0  0  0
   32.2976   17.4202   21.5115 C   0  0  2  0  0  0  0  0  0  0  0  0
   31.9975   18.5610   22.4746 C   0  0  0  0  0  0  0  0  0  0  0  0
   30.8918   19.0898   22.5135 O   0  0  0  0  0  0  0  0  0  0  0  0
   31.5136   16.1621   21.8931 C   0  0  0  0  0  0  0  0  0  0  0  0
   30.0149   16.2874   21.6789 C   0  0  0  0  0  0  0  0  0  0  0  0
   29.2791   15.0201   22.0960 C   0  0  0  0  0  0  0  0  0  0  0  0
   27.8116   15.0986   21.7083 C   0  0  0  0  0  0  0  0  0  0  0  0
   27.6052   15.1380   20.2168 N   0  0  0  0  0  0  0  0  0  0  0  0
   32.8292   18.9795   23.2683 O   0  0  0  0  0  0  0  0  0  0  0  0
  2  1  1  1  0  0  0
  2  3  1  0  0  0  0
  2  5  1  0  0  0  0
  3  4  1  0  0  0  0
  3 10  1  0  0  0  0
  5  6  1  0  0  0  0
  6  7  1  0  0  0  0
  7  8  1  0  0  0  0
  8  9  1  0  0  0  0
M  END
>  <CHROM.1>
167.91664518,-166.64960690,-178.99842953,-172.69356657,65.10776431,30.80213570
16.92167229,21.90238656,-0.65499874,-0.06613190,-2.69962710

>  <Name>
ligand

>  <RI>
0

>  <Rbt.Current_Directory>
/home/itssahil/PROJECTS/Mol_Feturizer/New_Systems/rnas/3DIZ

>  <Rbt.Executable>
rbdock ($Id: //depot/dev/client3/rdock/2013.1/src/exe/rbdock.cxx#4 $)

>  <Rbt.Library>
libRbt.so (2013.1, Build901 2013/11/27)

>  <Rbt.Parameter_File>
/export/apps/rDock/src/rDock_2013.1_src/data/scripts/dock_solv.prm

>  <Rbt.Receptor>
prm/pocket_docking_5.prm

>  <SCORE>
-8.52035

>  <SCORE.INTER>
-7.46099

>  <SCORE.INTER.CONST>
1

>  <SCORE.INTER.POLAR>
0

>  <SCORE.INTER.ROT>
5

>  <SCORE.INTER.SOLV>
14.3647

>  <SCORE.INTER.VDW>
-16.6956

>  <SCORE.INTER.norm>
-0.746099

>  <SCORE.INTRA>
-1.05936

>  <SCORE.INTRA.DIHEDRAL>
-1.23817

>  <SCORE.INTRA.DIHEDRAL.0>
3.67053

>  <SCORE.INTRA.POLAR>
0

>  <SCORE.INTRA.POLAR.0>
0

>  <SCORE.INTRA.REPUL>
0

>  <SCORE.INTRA.REPUL.0>
0

>  <SCORE.INTRA.SOLV>
-0.749686

>  <SCORE.INTRA.SOLV.lig_0>
-32.0553

>  <SCORE.INTRA.VDW>
-0.0654311

>  <SCORE.INTRA.VDW.0>
-0.571921

>  <SCORE.INTRA.norm>
-0.105936

>  <SCORE.RESTR>
0

>  <SCORE.RESTR.CAVITY>
0

>  <SCORE.RESTR.norm>
0

>  <SCORE.SYSTEM>
0

>  <SCORE.SYSTEM.CONST>
0

>  <SCORE.SYSTEM.DIHEDRAL>
0

>  <SCORE.SYSTEM.SOLV>
0

>  <SCORE.SYSTEM.norm>
0

>  <SCORE.heavy>
10

>  <SCORE.norm>
-0.852035

>  <RMSD>
1.879

$$$$
ligand
 OpenBabel11021811473D
libRbt.so/2013.1/901 2013/11/27
 10  9  0  0  0  0  0  0  0  0999 V2000
   32.0642   17.7436   22.3898 N   0  0  0  0  0  0  0  0  0  0  0  0
   31.4520   16.6027   21.6449 C   0  0  2  0  0  0  0  0  0  0  0  0
   32.2599   16.2445   20.4047 C   0  0  0  0  0  0  0  0  0  0  0  0
   33.2955   16.8378   20.1237 O   0  0  0  0  0  0  0  0  0  0  0  0
   29.9963   16.9050   21.2805 C   0  0  0  0  0  0  0  0  0  0  0  0
   29.2380   15.7027   20.7446 C   0  0  0  0  0  0  0  0  0  0  0  0
   27.8267   16.0763   20.3086 C   0  0  0  0  0  0  0  0  0  0  0  0
   27.0822   14.8551   19.7945 C   0  0  0  0  0  0  0  0  0  0  0  0
   27.7262   14.2525   18.5734 N   0  0  0  0  0  0  0  0  0  0  0  0
   31.9321   15.3360   19.6535 O   0  0  0  0  0  0  0  0  0  0  0  0
  2  1  1  6  0  0  0
  2  3  1  0  0  0  0
  2  5  1  0  0  0  0
  3  4  1  0  0  0  0
  3 10  1  0  0  0  0
  5  6  1  0  0  0  0
  6  7  1  0  0  0  0
  7  8  1  0  0  0  0
  8  9  1  0  0  0  0
M  END
>  <CHROM.1>
1.57505641,-169.67275978,-176.11431975,-179.22743155,-62.48291216,30.31597822
16.04989466,20.46796562,0.42850701,0.12420540,0.91180428

>  <Name>
ligand

>  <RI>
0

>  <Rbt.Current_Directory>
/home/itssahil/PROJECTS/Mol_Feturizer/New_Systems/rnas/3DIZ

>  <Rbt.Executable>
rbdock ($Id: //depot/dev/client3/rdock/2013.1/src/exe/rbdock.cxx#4 $)

>  <Rbt.Library>
libRbt.so (2013.1, Build901 2013/11/27)

>  <Rbt.Parameter_File>
/export/apps/rDock/src/rDock_2013.1_src/data/scripts/dock_solv.prm

>  <Rbt.Receptor>
prm/blind_docking_60.prm

>  <SCORE>
-8.59842

>  <SCORE.INTER>
-7.5992

>  <SCORE.INTER.CONST>
1

>  <SCORE.INTER.POLAR>
0

>  <SCORE.INTER.ROT>
5

>  <SCORE.INTER.SOLV>
13.8527

>  <SCORE.INTER.VDW>
-16.617

>  <SCORE.INTER.norm>
-0.75992

>  <SCORE.INTRA>
-0.999222

>  <SCORE.INTRA.DIHEDRAL>
-1.69132

>  <SCORE.INTRA.DIHEDRAL.0>
3.67053

>  <SCORE.INTRA.POLAR>
0

>  <SCORE.INTRA.POLAR.0>
0

>  <SCORE.INTRA.REPUL>
0

>  <SCORE.INTRA.REPUL.0>
0

>  <SCORE.INTRA.SOLV>
-0.754184

>  <SCORE.INTRA.SOLV.lig_0>
-32.0553

>  <SCORE.INTRA.VDW>
0.223531

>  <SCORE.INTRA.VDW.0>
-0.571921

>  <SCORE.INTRA.norm>
-0.0999222

>  <SCORE.RESTR>
0

>  <SCORE.RESTR.CAVITY>
0

>  <SCORE.RESTR.norm>
0

>  <SCORE.SYSTEM>
0

>  <SCORE.SYSTEM.CONST>
0

>  <SCORE.SYSTEM.DIHEDRAL>
0

>  <SCORE.SYSTEM.SOLV>
0

>  <SCORE.SYSTEM.norm>
0

>  <SCORE.heavy>
10

>  <SCORE.norm>
-0.859842

>  <RMSD>
1.903

$$$$
ligand
 OpenBabel11021811473D
libRbt.so/2013.1/901 2013/11/27
 10  9  0  0  0  0  0  0  0  0999 V2000
   31.3083   17.7719   22.3694 N   0  0  0  0  0  0  0  0  0  0  0  0
   31.6478   16.3489   22.0674 C   0  0  2  0  0  0  0  0  0  0  0  0
   32.1989   16.1910   20.6565 C   0  0  0  0  0  0  0  0  0  0  0  0
   33.1207   16.8895   20.2490 O   0  0  0  0  0  0  0  0  0  0  0  0
   30.4367   15.4387   22.2861 C   0  0  0  0  0  0  0  0  0  0  0  0
   29.2308   15.8123   21.4413 C   0  0  0  0  0  0  0  0  0  0  0  0
   28.0711   14.8483   21.6587 C   0  0  0  0  0  0  0  0  0  0  0  0
   26.9461   15.1310   20.6766 C   0  0  0  0  0  0  0  0  0  0  0  0
   27.3701   14.9604   19.2414 N   0  0  0  0  0  0  0  0  0  0  0  0
   31.7715   15.3469   19.8807 O   0  0  0  0  0  0  0  0  0  0  0  0
  2  1  1  6  0  0  0
  2  3  1  0  0  0  0
  2  5  1  0  0  0  0
  3  4  1  0  0  0  0
  3 10  1  0  0  0  0
  5  6  1  0  0  0  0
  6  7  1  0  0  0  0
  7  8  1  0  0  0  0
  8  9  1  0  0  0  0
M  END
>  <CHROM.1>
51.28160795,58.53629736,177.97096169,-172.65030357,61.24573829,30.23427039
15.87265875,21.02358853,0.18784242,0.27510426,1.23361720

>  <Name>
ligand

>  <RI>
0

>  <Rbt.Current_Directory>
/home/itssahil/PROJECTS/Mol_Feturizer/New_Systems/rnas/3DIZ

>  <Rbt.Executable>
rbdock ($Id: //depot/dev/client3/rdock/2013.1/src/exe/rbdock.cxx#4 $)

>  <Rbt.Library>
libRbt.so (2013.1, Build901 2013/11/27)

>  <Rbt.Parameter_File>
/export/apps/rDock/src/rDock_2013.1_src/data/scripts/dock_solv.prm

>  <Rbt.Receptor>
prm/pocket_docking_2.prm

>  <SCORE>
-9.33764

>  <SCORE.INTER>
-9.19701

>  <SCORE.INTER.CONST>
1

>  <SCORE.INTER.POLAR>
0

>  <SCORE.INTER.ROT>
5

>  <SCORE.INTER.SOLV>
13.6232

>  <SCORE.INTER.VDW>
-17.6057

>  <SCORE.INTER.norm>
-0.919701

>  <SCORE.INTRA>
-0.140629

>  <SCORE.INTRA.DIHEDRAL>
-1.94118

>  <SCORE.INTRA.DIHEDRAL.0>
3.67053

>  <SCORE.INTRA.POLAR>
0

>  <SCORE.INTRA.POLAR.0>
0

>  <SCORE.INTRA.REPUL>
0

>  <SCORE.INTRA.REPUL.0>
0

>  <SCORE.INTRA.SOLV>
0.182009

>  <SCORE.INTRA.SOLV.lig_0>
-32.0553

>  <SCORE.INTRA.VDW>
0.738957

>  <SCORE.INTRA.VDW.0>
-0.571921

>  <SCORE.INTRA.norm>
-0.0140629

>  <SCORE.RESTR>
0

>  <SCORE.RESTR.CAVITY>
0

>  <SCORE.RESTR.norm>
0

>  <SCORE.SYSTEM>
0

>  <SCORE.SYSTEM.CONST>
0

>  <SCORE.SYSTEM.DIHEDRAL>
0

>  <SCORE.SYSTEM.SOLV>
0

>  <SCORE.SYSTEM.norm>
0

>  <SCORE.heavy>
10

>  <SCORE.norm>
-0.933764

>  <RMSD>
1.917

$$$$
ligand
 OpenBabel11021811473D
libRbt.so/2013.1/901 2013/11/27
 10  9  0  0  0  0  0  0  0  0999 V2000
   32.0842   17.7743   22.2604 N   0  0  0  0  0  0  0  0  0  0  0  0
   31.4524   16.6245   21.5461 C   0  0  2  0  0  0  0  0  0  0  0  0
   32.2431   16.2322   20.3051 C   0  0  0  0  0  0  0  0  0  0  0  0
   33.2625   16.8318   19.9813 O   0  0  0  0  0  0  0  0  0  0  0  0
   29.9960   16.9342   21.1910 C   0  0  0  0  0  0  0  0  0  0  0  0
   29.2149   15.7252   20.7054 C   0  0  0  0  0  0  0  0  0  0  0  0
   27.7872   16.0946   20.3222 C   0  0  0  0  0  0  0  0  0  0  0  0
   27.0436   14.8818   19.7872 C   0  0  0  0  0  0  0  0  0  0  0  0
   27.6609   14.3293   18.5292 N   0  0  0  0  0  0  0  0  0  0  0  0
   31.9176   15.2895   19.5962 O   0  0  0  0  0  0  0  0  0  0  0  0
  2  1  1  6  0  0  0
  2  3  1  0  0  0  0
  2  5  1  0  0  0  0
  3  4  1  0  0  0  0
  3 10  1  0  0  0  0
  5  6  1  0  0  0  0
  6  7  1  0  0  0  0
  7  8  1  0  0  0  0
  8  9  1  0  0  0  0
M  END
>  <CHROM.1>
-0.38057643,-168.93432399,-178.12861951,177.71030135,-62.42749668,30.29459908
16.06518314,20.39834753,0.40670599,0.12537007,0.90323484

>  <Name>
ligand

>  <RI>
0

>  <Rbt.Current_Directory>
/home/itssahil/PROJECTS/Mol_Feturizer/New_Systems/rnas/3DIZ

>  <Rbt.Executable>
rbdock ($Id: //depot/dev/client3/rdock/2013.1/src/exe/rbdock.cxx#4 $)

>  <Rbt.Library>
libRbt.so (2013.1, Build901 2013/11/27)

>  <Rbt.Parameter_File>
/export/apps/rDock/src/rDock_2013.1_src/data/scripts/dock_solv.prm

>  <Rbt.Receptor>
prm/pocket_docking_4.prm

>  <SCORE>
-8.6868

>  <SCORE.INTER>
-7.64851

>  <SCORE.INTER.CONST>
1

>  <SCORE.INTER.POLAR>
0

>  <SCORE.INTER.ROT>
5

>  <SCORE.INTER.SOLV>
13.8405

>  <SCORE.INTER.VDW>
-16.6459

>  <SCORE.INTER.norm>
-0.764851

>  <SCORE.INTRA>
-1.03828

>  <SCORE.INTRA.DIHEDRAL>
-1.65735

>  <SCORE.INTRA.DIHEDRAL.0>
3.67053

>  <SCORE.INTRA.POLAR>
0

>  <SCORE.INTRA.POLAR.0>
0

>  <SCORE.INTRA.REPUL>
0

>  <SCORE.INTRA.REPUL.0>
0

>  <SCORE.INTRA.SOLV>
-0.73552

>  <SCORE.INTRA.SOLV.lig_0>
-32.0553

>  <SCORE.INTRA.VDW>
0.15815

>  <SCORE.INTRA.VDW.0>
-0.571921

>  <SCORE.INTRA.norm>
-0.103828

>  <SCORE.RESTR>
0

>  <SCORE.RESTR.CAVITY>
0

>  <SCORE.RESTR.norm>
0

>  <SCORE.SYSTEM>
0

>  <SCORE.SYSTEM.CONST>
0

>  <SCORE.SYSTEM.DIHEDRAL>
0

>  <SCORE.SYSTEM.SOLV>
0

>  <SCORE.SYSTEM.norm>
0

>  <SCORE.heavy>
10

>  <SCORE.norm>
-0.86868

>  <RMSD>
1.918

$$$$
ligand
 OpenBabel11021811473D
libRbt.so/2013.1/901 2013/11/27
 10  9  0  0  0  0  0  0  0  0999 V2000
   32.4626   17.7279   22.1591 N   0  0  0  0  0  0  0  0  0  0  0  0
   31.7931   16.6032   21.4392 C   0  0  2  0  0  0  0  0  0  0  0  0
   32.6305   16.1102   20.2666 C   0  0  0  0  0  0  0  0  0  0  0  0
   33.8338   16.3368   20.2012 O   0  0  0  0  0  0  0  0  0  0  0  0
   30.3903   17.0063   20.9778 C   0  0  0  0  0  0  0  0  0  0  0  0
   29.5012   15.8270   20.6228 C   0  0  0  0  0  0  0  0  0  0  0  0
   28.1056   16.2786   20.2108 C   0  0  0  0  0  0  0  0  0  0  0  0
   27.2534   15.0874   19.8046 C   0  0  0  0  0  0  0  0  0  0  0  0
   27.7963   14.3684   18.5975 N   0  0  0  0  0  0  0  0  0  0  0  0
   32.1516   15.4452   19.3580 O   0  0  0  0  0  0  0  0  0  0  0  0
  2  1  1  6  0  0  0
  2  3  1  0  0  0  0
  2  5  1  0  0  0  0
  3  4  1  0  0  0  0
  3 10  1  0  0  0  0
  5  6  1  0  0  0  0
  6  7  1  0  0  0  0
  7  8  1  0  0  0  0
  8  9  1  0  0  0  0
M  END
>  <CHROM.1>
20.14002584,-162.55896368,178.28503443,177.62131594,-63.02216485,30.62139218
16.06967587,20.34114159,0.35421769,0.05839853,0.86564924

>  <Name>
ligand

>  <RI>
0

>  <Rbt.Current_Directory>
/home/itssahil/PROJECTS/Mol_Feturizer/New_Systems/rnas/3DIZ

>  <Rbt.Executable>
rbdock ($Id: //depot/dev/client3/rdock/2013.1/src/exe/rbdock.cxx#4 $)

>  <Rbt.Library>
libRbt.so (2013.1, Build901 2013/11/27)

>  <Rbt.Parameter_File>
/export/apps/rDock/src/rDock_2013.1_src/data/scripts/dock_solv.prm

>  <Rbt.Receptor>
prm/pocket_docking_2.prm

>  <SCORE>
-8.05956

>  <SCORE.INTER>
-7.47882

>  <SCORE.INTER.CONST>
1

>  <SCORE.INTER.POLAR>
0

>  <SCORE.INTER.ROT>
5

>  <SCORE.INTER.SOLV>
13.714

>  <SCORE.INTER.VDW>
-16.4905

>  <SCORE.INTER.norm>
-0.747882

>  <SCORE.INTRA>
-0.590876

>  <SCORE.INTRA.DIHEDRAL>
-1.06426

>  <SCORE.INTRA.DIHEDRAL.0>
3.67053

>  <SCORE.INTRA.POLAR>
0

>  <SCORE.INTRA.POLAR.0>
0

>  <SCORE.INTRA.REPUL>
0

>  <SCORE.INTRA.REPUL.0>
0

>  <SCORE.INTRA.SOLV>
-0.738504

>  <SCORE.INTRA.SOLV.lig_0>
-32.0553

>  <SCORE.INTRA.VDW>
0.310506

>  <SCORE.INTRA.VDW.0>
-0.571921

>  <SCORE.INTRA.norm>
-0.0590876

>  <SCORE.RESTR>
0.0101364

>  <SCORE.RESTR.CAVITY>
0.0101364

>  <SCORE.RESTR.norm>
0.00101364

>  <SCORE.SYSTEM>
0

>  <SCORE.SYSTEM.CONST>
0

>  <SCORE.SYSTEM.DIHEDRAL>
0

>  <SCORE.SYSTEM.SOLV>
0

>  <SCORE.SYSTEM.norm>
0

>  <SCORE.heavy>
10

>  <SCORE.norm>
-0.805956

>  <RMSD>
1.922

$$$$
ligand
 OpenBabel11021811473D
libRbt.so/2013.1/901 2013/11/27
 10  9  0  0  0  0  0  0  0  0999 V2000
   31.3274   17.7464   22.5029 N   0  0  0  0  0  0  0  0  0  0  0  0
   31.6375   16.3650   22.0262 C   0  0  2  0  0  0  0  0  0  0  0  0
   32.0429   16.3560   20.5583 C   0  0  0  0  0  0  0  0  0  0  0  0
   32.9283   15.6153   20.1448 O   0  0  0  0  0  0  0  0  0  0  0  0
   30.4568   15.4227   22.2731 C   0  0  0  0  0  0  0  0  0  0  0  0
   29.1917   15.8210   21.5326 C   0  0  0  0  0  0  0  0  0  0  0  0
   28.0622   14.8272   21.7736 C   0  0  0  0  0  0  0  0  0  0  0  0
   26.8758   15.1337   20.8743 C   0  0  0  0  0  0  0  0  0  0  0  0
   27.2093   15.0139   19.4104 N   0  0  0  0  0  0  0  0  0  0  0  0
   31.4883   17.0595   19.7249 O   0  0  0  0  0  0  0  0  0  0  0  0
  2  1  1  6  0  0  0
  2  3  1  0  0  0  0
  2  5  1  0  0  0  0
  3  4  1  0  0  0  0
  3 10  1  0  0  0  0
  5  6  1  0  0  0  0
  6  7  1  0  0  0  0
  7  8  1  0  0  0  0
  8  9  1  0  0  0  0
M  END
>  <CHROM.1>
141.86406096,61.81727747,178.07203167,-171.98545458,62.19239940,30.14233476
15.93809774,21.05082046,0.10053674,0.29019389,1.38464465

>  <Name>
ligand

>  <RI>
0

>  <Rbt.Current_Directory>
/home/itssahil/PROJECTS/Mol_Feturizer/New_Systems/rnas/3DIZ

>  <Rbt.Executable>
rbdock ($Id: //depot/dev/client3/rdock/2013.1/src/exe/rbdock.cxx#4 $)

>  <Rbt.Library>
libRbt.so (2013.1, Build901 2013/11/27)

>  <Rbt.Parameter_File>
/export/apps/rDock/src/rDock_2013.1_src/data/scripts/dock_solv.prm

>  <Rbt.Receptor>
prm/pocket_docking_3.prm

>  <SCORE>
-8.72747

>  <SCORE.INTER>
-7.76114

>  <SCORE.INTER.CONST>
1

>  <SCORE.INTER.POLAR>
0

>  <SCORE.INTER.ROT>
5

>  <SCORE.INTER.SOLV>
13.8961

>  <SCORE.INTER.VDW>
-16.7395

>  <SCORE.INTER.norm>
-0.776114

>  <SCORE.INTRA>
-0.966331

>  <SCORE.INTRA.DIHEDRAL>
-1.91402

>  <SCORE.INTRA.DIHEDRAL.0>
3.67053

>  <SCORE.INTRA.POLAR>
0

>  <SCORE.INTRA.POLAR.0>
0

>  <SCORE.INTRA.REPUL>
0

>  <SCORE.INTRA.REPUL.0>
0

>  <SCORE.INTRA.SOLV>
0.133958

>  <SCORE.INTRA.SOLV.lig_0>
-32.0553

>  <SCORE.INTRA.VDW>
-0.0762988

>  <SCORE.INTRA.VDW.0>
-0.571921

>  <SCORE.INTRA.norm>
-0.0966331

>  <SCORE.RESTR>
0

>  <SCORE.RESTR.CAVITY>
0

>  <SCORE.RESTR.norm>
0

>  <SCORE.SYSTEM>
0

>  <SCORE.SYSTEM.CONST>
0

>  <SCORE.SYSTEM.DIHEDRAL>
0

>  <SCORE.SYSTEM.SOLV>
0

>  <SCORE.SYSTEM.norm>
0

>  <SCORE.heavy>
10

>  <SCORE.norm>
-0.872747

>  <RMSD>
1.932

$$$$
ligand
 OpenBabel11021811473D
libRbt.so/2013.1/901 2013/11/27
 10  9  0  0  0  0  0  0  0  0999 V2000
   31.0884   17.8583   22.1729 N   0  0  0  0  0  0  0  0  0  0  0  0
   31.5615   16.4485   22.0312 C   0  0  2  0  0  0  0  0  0  0  0  0
   32.2896   16.2311   20.7114 C   0  0  0  0  0  0  0  0  0  0  0  0
   33.2257   16.9471   20.3731 O   0  0  0  0  0  0  0  0  0  0  0  0
   30.3998   15.4633   22.1833 C   0  0  0  0  0  0  0  0  0  0  0  0
   29.3090   15.6388   21.1407 C   0  0  0  0  0  0  0  0  0  0  0  0
   28.1535   14.6718   21.3672 C   0  0  0  0  0  0  0  0  0  0  0  0
   27.2121   14.6709   20.1740 C   0  0  0  0  0  0  0  0  0  0  0  0
   26.6404   16.0337   19.8829 N   0  0  0  0  0  0  0  0  0  0  0  0
   31.9964   15.3213   19.9477 O   0  0  0  0  0  0  0  0  0  0  0  0
  2  1  1  6  0  0  0
  2  3  1  0  0  0  0
  2  5  1  0  0  0  0
  3  4  1  0  0  0  0
  3 10  1  0  0  0  0
  5  6  1  0  0  0  0
  6  7  1  0  0  0  0
  7  8  1  0  0  0  0
  8  9  1  0  0  0  0
M  END
>  <CHROM.1>
53.23960679,60.94109598,-177.83377731,-168.87111082,-58.43769081,30.21593303
15.92590259,20.97172910,0.22808876,0.17514100,0.96833650

>  <Name>
ligand

>  <RI>
0

>  <Rbt.Current_Directory>
/home/itssahil/PROJECTS/Mol_Feturizer/New_Systems/rnas/3DIZ

>  <Rbt.Executable>
rbdock ($Id: //depot/dev/client3/rdock/2013.1/src/exe/rbdock.cxx#4 $)

>  <Rbt.Library>
libRbt.so (2013.1, Build901 2013/11/27)

>  <Rbt.Parameter_File>
/export/apps/rDock/src/rDock_2013.1_src/data/scripts/dock_solv.prm

>  <Rbt.Receptor>
prm/pocket_docking_6.prm

>  <SCORE>
-7.19404

>  <SCORE.INTER>
-7.31954

>  <SCORE.INTER.CONST>
1

>  <SCORE.INTER.POLAR>
0

>  <SCORE.INTER.ROT>
5

>  <SCORE.INTER.SOLV>
17.1637

>  <SCORE.INTER.VDW>
-17.5343

>  <SCORE.INTER.norm>
-0.731954

>  <SCORE.INTRA>
0.125501

>  <SCORE.INTRA.DIHEDRAL>
-1.65909

>  <SCORE.INTRA.DIHEDRAL.0>
3.67053

>  <SCORE.INTRA.POLAR>
0

>  <SCORE.INTRA.POLAR.0>
0

>  <SCORE.INTRA.REPUL>
0

>  <SCORE.INTRA.REPUL.0>
0

>  <SCORE.INTRA.SOLV>
0.122191

>  <SCORE.INTRA.SOLV.lig_0>
-32.0553

>  <SCORE.INTRA.VDW>
0.893949

>  <SCORE.INTRA.VDW.0>
-0.571921

>  <SCORE.INTRA.norm>
0.0125501

>  <SCORE.RESTR>
0

>  <SCORE.RESTR.CAVITY>
0

>  <SCORE.RESTR.norm>
0

>  <SCORE.SYSTEM>
0

>  <SCORE.SYSTEM.CONST>
0

>  <SCORE.SYSTEM.DIHEDRAL>
0

>  <SCORE.SYSTEM.SOLV>
0

>  <SCORE.SYSTEM.norm>
0

>  <SCORE.heavy>
10

>  <SCORE.norm>
-0.719404

>  <RMSD>
1.949

$$$$
ligand
 OpenBabel11021811473D
libRbt.so/2013.1/901 2013/11/27
 10  9  0  0  0  0  0  0  0  0999 V2000
   31.6046   18.3219   22.0335 N   0  0  0  0  0  0  0  0  0  0  0  0
   32.2102   16.9596   21.9393 C   0  0  2  0  0  0  0  0  0  0  0  0
   32.7914   16.6984   20.5562 C   0  0  0  0  0  0  0  0  0  0  0  0
   32.1195   16.8511   19.5418 O   0  0  0  0  0  0  0  0  0  0  0  0
   31.1922   15.8806   22.3170 C   0  0  0  0  0  0  0  0  0  0  0  0
   30.0102   15.7959   21.3666 C   0  0  0  0  0  0  0  0  0  0  0  0
   29.0177   14.7231   21.7974 C   0  0  0  0  0  0  0  0  0  0  0  0
   27.9353   14.5394   20.7462 C   0  0  0  0  0  0  0  0  0  0  0  0
   27.0694   15.7610   20.5831 N   0  0  0  0  0  0  0  0  0  0  0  0
   33.9546   16.3561   20.3922 O   0  0  0  0  0  0  0  0  0  0  0  0
  2  1  1  6  0  0  0
  2  3  1  0  0  0  0
  2  5  1  0  0  0  0
  3  4  1  0  0  0  0
  3 10  1  0  0  0  0
  5  6  1  0  0  0  0
  6  7  1  0  0  0  0
  7  8  1  0  0  0  0
  8  9  1  0  0  0  0
M  END
>  <CHROM.1>
-53.20523277,64.42258157,-179.14568540,-173.07952736,-65.06945135,30.81500850
16.18727574,21.09720520,0.12373264,0.32859347,1.08281193

>  <Name>
ligand

>  <RI>
0

>  <Rbt.Current_Directory>
/home/itssahil/PROJECTS/Mol_Feturizer/New_Systems/rnas/3DIZ

>  <Rbt.Executable>
rbdock ($Id: //depot/dev/client3/rdock/2013.1/src/exe/rbdock.cxx#4 $)

>  <Rbt.Library>
libRbt.so (2013.1, Build901 2013/11/27)

>  <Rbt.Parameter_File>
/export/apps/rDock/src/rDock_2013.1_src/data/scripts/dock_solv.prm

>  <Rbt.Receptor>
prm/pocket_docking_2.prm

>  <SCORE>
-6.60181

>  <SCORE.INTER>
-5.79638

>  <SCORE.INTER.CONST>
1

>  <SCORE.INTER.POLAR>
0

>  <SCORE.INTER.ROT>
5

>  <SCORE.INTER.SOLV>
16.945

>  <SCORE.INTER.VDW>
-16.4459

>  <SCORE.INTER.norm>
-0.579638

>  <SCORE.INTRA>
-0.805432

>  <SCORE.INTRA.DIHEDRAL>
-1.78641

>  <SCORE.INTRA.DIHEDRAL.0>
3.67053

>  <SCORE.INTRA.POLAR>
0

>  <SCORE.INTRA.POLAR.0>
0

>  <SCORE.INTRA.REPUL>
0

>  <SCORE.INTRA.REPUL.0>
0

>  <SCORE.INTRA.SOLV>
0.000411093

>  <SCORE.INTRA.SOLV.lig_0>
-32.0553

>  <SCORE.INTRA.VDW>
0.0875657

>  <SCORE.INTRA.VDW.0>
-0.571921

>  <SCORE.INTRA.norm>
-0.0805432

>  <SCORE.RESTR>
0

>  <SCORE.RESTR.CAVITY>
0

>  <SCORE.RESTR.norm>
0

>  <SCORE.SYSTEM>
0

>  <SCORE.SYSTEM.CONST>
0

>  <SCORE.SYSTEM.DIHEDRAL>
0

>  <SCORE.SYSTEM.SOLV>
0

>  <SCORE.SYSTEM.norm>
0

>  <SCORE.heavy>
10

>  <SCORE.norm>
-0.660181

>  <RMSD>
1.988

$$$$
ligand
 OpenBabel11021811473D
libRbt.so/2013.1/901 2013/11/27
 10  9  0  0  0  0  0  0  0  0999 V2000
   31.4546   17.4682   22.2510 N   0  0  0  0  0  0  0  0  0  0  0  0
   31.7458   16.1925   21.5304 C   0  0  2  0  0  0  0  0  0  0  0  0
   32.7171   16.4086   20.3777 C   0  0  0  0  0  0  0  0  0  0  0  0
   33.5181   17.3370   20.3829 O   0  0  0  0  0  0  0  0  0  0  0  0
   30.4540   15.5333   21.0405 C   0  0  0  0  0  0  0  0  0  0  0  0
   29.5043   15.1429   22.1599 C   0  0  0  0  0  0  0  0  0  0  0  0
   28.2203   14.5265   21.6190 C   0  0  0  0  0  0  0  0  0  0  0  0
   27.3841   15.5719   20.8993 C   0  0  0  0  0  0  0  0  0  0  0  0
   26.0655   15.0290   20.4141 N   0  0  0  0  0  0  0  0  0  0  0  0
   32.7637   15.6550   19.4149 O   0  0  0  0  0  0  0  0  0  0  0  0
  2  1  1  6  0  0  0
  2  3  1  0  0  0  0
  2  5  1  0  0  0  0
  3  4  1  0  0  0  0
  3 10  1  0  0  0  0
  5  6  1  0  0  0  0
  6  7  1  0  0  0  0
  7  8  1  0  0  0  0
  8  9  1  0  0  0  0
M  END
>  <CHROM.1>
26.01972952,-61.96689983,178.46289859,-68.94813854,-176.70536728,30.41723756
15.89378568,20.98313966,0.02746727,0.29485452,1.16326755

>  <Name>
ligand

>  <RI>
0

>  <Rbt.Current_Directory>
/home/itssahil/PROJECTS/Mol_Feturizer/New_Systems/rnas/3DIZ

>  <Rbt.Executable>
rbdock ($Id: //depot/dev/client3/rdock/2013.1/src/exe/rbdock.cxx#4 $)

>  <Rbt.Library>
libRbt.so (2013.1, Build901 2013/11/27)

>  <Rbt.Parameter_File>
/export/apps/rDock/src/rDock_2013.1_src/data/scripts/dock_solv.prm

>  <Rbt.Receptor>
prm/pocket_docking_8.prm

>  <SCORE>
-7.79179

>  <SCORE.INTER>
-7.43217

>  <SCORE.INTER.CONST>
1

>  <SCORE.INTER.POLAR>
0

>  <SCORE.INTER.ROT>
5

>  <SCORE.INTER.SOLV>
17.3921

>  <SCORE.INTER.VDW>
-17.6855

>  <SCORE.INTER.norm>
-0.743217

>  <SCORE.INTRA>
-0.359621

>  <SCORE.INTRA.DIHEDRAL>
-1.82699

>  <SCORE.INTRA.DIHEDRAL.0>
3.67053

>  <SCORE.INTRA.POLAR>
0

>  <SCORE.INTRA.POLAR.0>
0

>  <SCORE.INTRA.REPUL>
0

>  <SCORE.INTRA.REPUL.0>
0

>  <SCORE.INTRA.SOLV>
-0.610891

>  <SCORE.INTRA.SOLV.lig_0>
-32.0553

>  <SCORE.INTRA.VDW>
0.859321

>  <SCORE.INTRA.VDW.0>
-0.571921

>  <SCORE.INTRA.norm>
-0.0359621

>  <SCORE.RESTR>
0

>  <SCORE.RESTR.CAVITY>
0

>  <SCORE.RESTR.norm>
0

>  <SCORE.SYSTEM>
0

>  <SCORE.SYSTEM.CONST>
0

>  <SCORE.SYSTEM.DIHEDRAL>
0

>  <SCORE.SYSTEM.SOLV>
0

>  <SCORE.SYSTEM.norm>
0

>  <SCORE.heavy>
10

>  <SCORE.norm>
-0.779179

>  <RMSD>
1.988

$$$$
ligand
 OpenBabel11021811473D
libRbt.so/2013.1/901 2013/11/27
 10  9  0  0  0  0  0  0  0  0999 V2000
   31.0757   17.4907   22.2916 N   0  0  0  0  0  0  0  0  0  0  0  0
   31.3340   16.0542   21.9733 C   0  0  2  0  0  0  0  0  0  0  0  0
   31.9424   15.8874   20.5872 C   0  0  0  0  0  0  0  0  0  0  0  0
   33.0131   16.4075   20.2929 O   0  0  0  0  0  0  0  0  0  0  0  0
   30.0555   15.2241   22.1125 C   0  0  0  0  0  0  0  0  0  0  0  0
   28.9157   15.7046   21.2308 C   0  0  0  0  0  0  0  0  0  0  0  0
   27.6697   14.8449   21.4039 C   0  0  0  0  0  0  0  0  0  0  0  0
   26.6305   15.1865   20.3487 C   0  0  0  0  0  0  0  0  0  0  0  0
   27.1263   14.9509   18.9461 N   0  0  0  0  0  0  0  0  0  0  0  0
   31.4106   15.2079   19.7197 O   0  0  0  0  0  0  0  0  0  0  0  0
  2  1  1  6  0  0  0
  2  3  1  0  0  0  0
  2  5  1  0  0  0  0
  3  4  1  0  0  0  0
  3 10  1  0  0  0  0
  5  6  1  0  0  0  0
  6  7  1  0  0  0  0
  7  8  1  0  0  0  0
  8  9  1  0  0  0  0
M  END
>  <CHROM.1>
59.93606777,57.90907706,179.86816094,-170.17879574,60.62403887,29.94270279
15.69354993,20.86263357,0.20779365,0.19329103,1.24734932

>  <Name>
ligand

>  <RI>
0

>  <Rbt.Current_Directory>
/home/itssahil/PROJECTS/Mol_Feturizer/New_Systems/rnas/3DIZ

>  <Rbt.Executable>
rbdock ($Id: //depot/dev/client3/rdock/2013.1/src/exe/rbdock.cxx#4 $)

>  <Rbt.Library>
libRbt.so (2013.1, Build901 2013/11/27)

>  <Rbt.Parameter_File>
/export/apps/rDock/src/rDock_2013.1_src/data/scripts/dock_solv.prm

>  <Rbt.Receptor>
prm/pocket_docking_3.prm

>  <SCORE>
-9.33742

>  <SCORE.INTER>
-9.38311

>  <SCORE.INTER.CONST>
1

>  <SCORE.INTER.POLAR>
0

>  <SCORE.INTER.ROT>
5

>  <SCORE.INTER.SOLV>
14.6022

>  <SCORE.INTER.VDW>
-18.0561

>  <SCORE.INTER.norm>
-0.938311

>  <SCORE.INTRA>
0.0456863

>  <SCORE.INTRA.DIHEDRAL>
-1.75427

>  <SCORE.INTRA.DIHEDRAL.0>
3.67053

>  <SCORE.INTRA.POLAR>
0

>  <SCORE.INTRA.POLAR.0>
0

>  <SCORE.INTRA.REPUL>
0

>  <SCORE.INTRA.REPUL.0>
0

>  <SCORE.INTRA.SOLV>
0.218592

>  <SCORE.INTRA.SOLV.lig_0>
-32.0553

>  <SCORE.INTRA.VDW>
0.813526

>  <SCORE.INTRA.VDW.0>
-0.571921

>  <SCORE.INTRA.norm>
0.00456863

>  <SCORE.RESTR>
0

>  <SCORE.RESTR.CAVITY>
0

>  <SCORE.RESTR.norm>
0

>  <SCORE.SYSTEM>
0

>  <SCORE.SYSTEM.CONST>
0

>  <SCORE.SYSTEM.DIHEDRAL>
0

>  <SCORE.SYSTEM.SOLV>
0

>  <SCORE.SYSTEM.norm>
0

>  <SCORE.heavy>
10

>  <SCORE.norm>
-0.933742

>  <RMSD>
1.994

$$$$
ligand
 OpenBabel11021811473D
libRbt.so/2013.1/901 2013/11/27
 10  9  0  0  0  0  0  0  0  0999 V2000
   31.0362   17.6070   22.2215 N   0  0  0  0  0  0  0  0  0  0  0  0
   31.2792   16.1464   22.0238 C   0  0  2  0  0  0  0  0  0  0  0  0
   31.9035   15.8606   20.6645 C   0  0  0  0  0  0  0  0  0  0  0  0
   31.3368   15.1551   19.8370 O   0  0  0  0  0  0  0  0  0  0  0  0
   29.9878   15.3463   22.2112 C   0  0  0  0  0  0  0  0  0  0  0  0
   28.8638   15.7734   21.2829 C   0  0  0  0  0  0  0  0  0  0  0  0
   27.6117   14.9303   21.4904 C   0  0  0  0  0  0  0  0  0  0  0  0
   26.5931   15.2029   20.3958 C   0  0  0  0  0  0  0  0  0  0  0  0
   27.0958   14.8269   19.0266 N   0  0  0  0  0  0  0  0  0  0  0  0
   32.9763   16.3418   20.3261 O   0  0  0  0  0  0  0  0  0  0  0  0
  2  1  1  6  0  0  0
  2  3  1  0  0  0  0
  2  5  1  0  0  0  0
  3  4  1  0  0  0  0
  3 10  1  0  0  0  0
  5  6  1  0  0  0  0
  6  7  1  0  0  0  0
  7  8  1  0  0  0  0
  8  9  1  0  0  0  0
M  END
>  <CHROM.1>
-119.01258867,57.58083100,178.90406083,-169.91921877,62.65026914,29.89345534
15.71468057,20.92020489,0.21948844,0.18167259,1.17187987

>  <Name>
ligand

>  <RI>
0

>  <Rbt.Current_Directory>
/home/itssahil/PROJECTS/Mol_Feturizer/New_Systems/rnas/3DIZ

>  <Rbt.Executable>
rbdock ($Id: //depot/dev/client3/rdock/2013.1/src/exe/rbdock.cxx#4 $)

>  <Rbt.Library>
libRbt.so (2013.1, Build901 2013/11/27)

>  <Rbt.Parameter_File>
/export/apps/rDock/src/rDock_2013.1_src/data/scripts/dock_solv.prm

>  <Rbt.Receptor>
prm/blind_docking_60.prm

>  <SCORE>
-9.30869

>  <SCORE.INTER>
-9.45464

>  <SCORE.INTER.CONST>
1

>  <SCORE.INTER.POLAR>
0

>  <SCORE.INTER.ROT>
5

>  <SCORE.INTER.SOLV>
14.8679

>  <SCORE.INTER.VDW>
-18.1924

>  <SCORE.INTER.norm>
-0.945464

>  <SCORE.INTRA>
0.14595

>  <SCORE.INTRA.DIHEDRAL>
-1.68996

>  <SCORE.INTRA.DIHEDRAL.0>
3.67053

>  <SCORE.INTRA.POLAR>
0

>  <SCORE.INTRA.POLAR.0>
0

>  <SCORE.INTRA.REPUL>
0

>  <SCORE.INTRA.REPUL.0>
0

>  <SCORE.INTRA.SOLV>
0.201027

>  <SCORE.INTRA.SOLV.lig_0>
-32.0553

>  <SCORE.INTRA.VDW>
0.890414

>  <SCORE.INTRA.VDW.0>
-0.571921

>  <SCORE.INTRA.norm>
0.014595

>  <SCORE.RESTR>
0

>  <SCORE.RESTR.CAVITY>
0

>  <SCORE.RESTR.norm>
0

>  <SCORE.SYSTEM>
0

>  <SCORE.SYSTEM.CONST>
0

>  <SCORE.SYSTEM.DIHEDRAL>
0

>  <SCORE.SYSTEM.SOLV>
0

>  <SCORE.SYSTEM.norm>
0

>  <SCORE.heavy>
10

>  <SCORE.norm>
-0.930869

>  <RMSD>
1.997

$$$$
ligand
 OpenBabel11021811473D
libRbt.so/2013.1/901 2013/11/27
 10  9  0  0  0  0  0  0  0  0999 V2000
   31.1035   17.5640   22.3389 N   0  0  0  0  0  0  0  0  0  0  0  0
   31.3424   16.1137   22.0726 C   0  0  2  0  0  0  0  0  0  0  0  0
   31.9104   15.8856   20.6781 C   0  0  0  0  0  0  0  0  0  0  0  0
   32.9687   16.3964   20.3282 O   0  0  0  0  0  0  0  0  0  0  0  0
   30.0623   15.3006   22.2811 C   0  0  0  0  0  0  0  0  0  0  0  0
   28.9038   15.7496   21.4070 C   0  0  0  0  0  0  0  0  0  0  0  0
   27.6713   14.8785   21.6154 C   0  0  0  0  0  0  0  0  0  0  0  0
   26.6041   15.2015   20.5825 C   0  0  0  0  0  0  0  0  0  0  0  0
   27.0725   14.9690   19.1700 N   0  0  0  0  0  0  0  0  0  0  0  0
   31.3573   15.1641   19.8593 O   0  0  0  0  0  0  0  0  0  0  0  0
  2  1  1  6  0  0  0
  2  3  1  0  0  0  0
  2  5  1  0  0  0  0
  3  4  1  0  0  0  0
  3 10  1  0  0  0  0
  5  6  1  0  0  0  0
  6  7  1  0  0  0  0
  7  8  1  0  0  0  0
  8  9  1  0  0  0  0
M  END
>  <CHROM.1>
59.10922544,58.21784615,177.93786707,-171.05609315,60.25608470,29.92409480
15.71862327,21.00477565,0.18460573,0.19631702,1.22197556

>  <Name>
ligand

>  <RI>
0

>  <Rbt.Current_Directory>
/home/itssahil/PROJECTS/Mol_Feturizer/New_Systems/rnas/3DIZ

>  <Rbt.Executable>
rbdock ($Id: //depot/dev/client3/rdock/2013.1/src/exe/rbdock.cxx#4 $)

>  <Rbt.Library>
libRbt.so (2013.1, Build901 2013/11/27)

>  <Rbt.Parameter_File>
/export/apps/rDock/src/rDock_2013.1_src/data/scripts/dock_solv.prm

>  <Rbt.Receptor>
prm/pocket_docking_4.prm

>  <SCORE>
-9.43083

>  <SCORE.INTER>
-9.44493

>  <SCORE.INTER.CONST>
1

>  <SCORE.INTER.POLAR>
0

>  <SCORE.INTER.ROT>
5

>  <SCORE.INTER.SOLV>
14.5896

>  <SCORE.INTER.VDW>
-18.0932

>  <SCORE.INTER.norm>
-0.944493

>  <SCORE.INTRA>
0.0140994

>  <SCORE.INTRA.DIHEDRAL>
-1.81211

>  <SCORE.INTRA.DIHEDRAL.0>
3.67053

>  <SCORE.INTRA.POLAR>
0

>  <SCORE.INTRA.POLAR.0>
0

>  <SCORE.INTRA.REPUL>
0

>  <SCORE.INTRA.REPUL.0>
0

>  <SCORE.INTRA.SOLV>
0.205344

>  <SCORE.INTRA.SOLV.lig_0>
-32.0553

>  <SCORE.INTRA.VDW>
0.817484

>  <SCORE.INTRA.VDW.0>
-0.571921

>  <SCORE.INTRA.norm>
0.00140994

>  <SCORE.RESTR>
0

>  <SCORE.RESTR.CAVITY>
0

>  <SCORE.RESTR.norm>
0

>  <SCORE.SYSTEM>
0

>  <SCORE.SYSTEM.CONST>
0

>  <SCORE.SYSTEM.DIHEDRAL>
0

>  <SCORE.SYSTEM.SOLV>
0

>  <SCORE.SYSTEM.norm>
0

>  <SCORE.heavy>
10

>  <SCORE.norm>
-0.943083

>  <RMSD>
2.020

$$$$
ligand
 OpenBabel11021811473D
libRbt.so/2013.1/901 2013/11/27
 10  9  0  0  0  0  0  0  0  0999 V2000
   31.1226   17.5545   22.2411 N   0  0  0  0  0  0  0  0  0  0  0  0
   31.3507   16.0982   21.9994 C   0  0  2  0  0  0  0  0  0  0  0  0
   31.9063   15.8413   20.6050 C   0  0  0  0  0  0  0  0  0  0  0  0
   32.9907   16.2949   20.2560 O   0  0  0  0  0  0  0  0  0  0  0  0
   30.0674   15.2969   22.2326 C   0  0  0  0  0  0  0  0  0  0  0  0
   28.9036   15.7398   21.3625 C   0  0  0  0  0  0  0  0  0  0  0  0
   27.6637   14.8883   21.6055 C   0  0  0  0  0  0  0  0  0  0  0  0
   26.5943   15.1881   20.5678 C   0  0  0  0  0  0  0  0  0  0  0  0
   27.0549   14.9103   19.1609 N   0  0  0  0  0  0  0  0  0  0  0  0
   31.3157   15.1513   19.7852 O   0  0  0  0  0  0  0  0  0  0  0  0
  2  1  1  6  0  0  0
  2  3  1  0  0  0  0
  2  5  1  0  0  0  0
  3  4  1  0  0  0  0
  3 10  1  0  0  0  0
  5  6  1  0  0  0  0
  6  7  1  0  0  0  0
  7  8  1  0  0  0  0
  8  9  1  0  0  0  0
M  END
>  <CHROM.1>
62.09155932,58.04564096,178.46652672,-170.34865958,60.01363737,29.92121670
15.69202598,20.95293475,0.17332727,0.19221786,1.20604227

>  <Name>
ligand

>  <RI>
0

>  <Rbt.Current_Directory>
/home/itssahil/PROJECTS/Mol_Feturizer/New_Systems/rnas/3DIZ

>  <Rbt.Executable>
rbdock ($Id: //depot/dev/client3/rdock/2013.1/src/exe/rbdock.cxx#4 $)

>  <Rbt.Library>
libRbt.so (2013.1, Build901 2013/11/27)

>  <Rbt.Parameter_File>
/export/apps/rDock/src/rDock_2013.1_src/data/scripts/dock_solv.prm

>  <Rbt.Receptor>
prm/pocket_docking_4.prm

>  <SCORE>
-9.37166

>  <SCORE.INTER>
-9.43783

>  <SCORE.INTER.CONST>
1

>  <SCORE.INTER.POLAR>
0

>  <SCORE.INTER.ROT>
5

>  <SCORE.INTER.SOLV>
14.6169

>  <SCORE.INTER.VDW>
-18.0975

>  <SCORE.INTER.norm>
-0.943783

>  <SCORE.INTRA>
0.0661655

>  <SCORE.INTRA.DIHEDRAL>
-1.75478

>  <SCORE.INTRA.DIHEDRAL.0>
3.67053

>  <SCORE.INTRA.POLAR>
0

>  <SCORE.INTRA.POLAR.0>
0

>  <SCORE.INTRA.REPUL>
0

>  <SCORE.INTRA.REPUL.0>
0

>  <SCORE.INTRA.SOLV>
0.216355

>  <SCORE.INTRA.SOLV.lig_0>
-32.0553

>  <SCORE.INTRA.VDW>
0.83538

>  <SCORE.INTRA.VDW.0>
-0.571921

>  <SCORE.INTRA.norm>
0.00661655

>  <SCORE.RESTR>
0

>  <SCORE.RESTR.CAVITY>
0

>  <SCORE.RESTR.norm>
0

>  <SCORE.SYSTEM>
0

>  <SCORE.SYSTEM.CONST>
0

>  <SCORE.SYSTEM.DIHEDRAL>
0

>  <SCORE.SYSTEM.SOLV>
0

>  <SCORE.SYSTEM.norm>
0

>  <SCORE.heavy>
10

>  <SCORE.norm>
-0.937166

>  <RMSD>
2.022

$$$$
ligand
 OpenBabel11021811473D
libRbt.so/2013.1/901 2013/11/27
 10  9  0  0  0  0  0  0  0  0999 V2000
   31.1398   17.5401   22.2154 N   0  0  0  0  0  0  0  0  0  0  0  0
   31.3600   16.0801   21.9888 C   0  0  2  0  0  0  0  0  0  0  0  0
   31.9143   15.8057   20.5972 C   0  0  0  0  0  0  0  0  0  0  0  0
   31.2672   15.1811   19.7637 O   0  0  0  0  0  0  0  0  0  0  0  0
   30.0725   15.2882   22.2302 C   0  0  0  0  0  0  0  0  0  0  0  0
   28.9059   15.7408   21.3689 C   0  0  0  0  0  0  0  0  0  0  0  0
   27.6629   14.8951   21.6159 C   0  0  0  0  0  0  0  0  0  0  0  0
   26.5954   15.1924   20.5756 C   0  0  0  0  0  0  0  0  0  0  0  0
   27.0571   14.9078   19.1705 N   0  0  0  0  0  0  0  0  0  0  0  0
   33.0092   16.2179   20.2390 O   0  0  0  0  0  0  0  0  0  0  0  0
  2  1  1  6  0  0  0
  2  3  1  0  0  0  0
  2  5  1  0  0  0  0
  3  4  1  0  0  0  0
  3 10  1  0  0  0  0
  5  6  1  0  0  0  0
  6  7  1  0  0  0  0
  7  8  1  0  0  0  0
  8  9  1  0  0  0  0
M  END
>  <CHROM.1>
-114.67484078,57.25926945,178.24883663,-169.65302563,59.88346296,29.92204297
15.68064434,20.94753647,0.16537854,0.18774840,1.21085086

>  <Name>
ligand

>  <RI>
0

>  <Rbt.Current_Directory>
/home/itssahil/PROJECTS/Mol_Feturizer/New_Systems/rnas/3DIZ

>  <Rbt.Executable>
rbdock ($Id: //depot/dev/client3/rdock/2013.1/src/exe/rbdock.cxx#4 $)

>  <Rbt.Library>
libRbt.so (2013.1, Build901 2013/11/27)

>  <Rbt.Parameter_File>
/export/apps/rDock/src/rDock_2013.1_src/data/scripts/dock_solv.prm

>  <Rbt.Receptor>
prm/pocket_docking_7.prm

>  <SCORE>
-9.24799

>  <SCORE.INTER>
-9.44662

>  <SCORE.INTER.CONST>
1

>  <SCORE.INTER.POLAR>
0

>  <SCORE.INTER.ROT>
5

>  <SCORE.INTER.SOLV>
14.5244

>  <SCORE.INTER.VDW>
-18.0725

>  <SCORE.INTER.norm>
-0.944662

>  <SCORE.INTRA>
0.198634

>  <SCORE.INTRA.DIHEDRAL>
-1.69353

>  <SCORE.INTRA.DIHEDRAL.0>
3.67053

>  <SCORE.INTRA.POLAR>
0

>  <SCORE.INTRA.POLAR.0>
0

>  <SCORE.INTRA.REPUL>
0

>  <SCORE.INTRA.REPUL.0>
0

>  <SCORE.INTRA.SOLV>
0.240826

>  <SCORE.INTRA.SOLV.lig_0>
-32.0553

>  <SCORE.INTRA.VDW>
0.924987

>  <SCORE.INTRA.VDW.0>
-0.571921

>  <SCORE.INTRA.norm>
0.0198634

>  <SCORE.RESTR>
0

>  <SCORE.RESTR.CAVITY>
0

>  <SCORE.RESTR.norm>
0

>  <SCORE.SYSTEM>
0

>  <SCORE.SYSTEM.CONST>
0

>  <SCORE.SYSTEM.DIHEDRAL>
0

>  <SCORE.SYSTEM.SOLV>
0

>  <SCORE.SYSTEM.norm>
0

>  <SCORE.heavy>
10

>  <SCORE.norm>
-0.924799

>  <RMSD>
2.026

$$$$
ligand
 OpenBabel11021811473D
libRbt.so/2013.1/901 2013/11/27
 10  9  0  0  0  0  0  0  0  0999 V2000
   31.1118   17.4476   22.1935 N   0  0  0  0  0  0  0  0  0  0  0  0
   31.3464   15.9952   21.9346 C   0  0  2  0  0  0  0  0  0  0  0  0
   31.9175   15.7586   20.5428 C   0  0  0  0  0  0  0  0  0  0  0  0
   31.2794   15.1594   19.6841 O   0  0  0  0  0  0  0  0  0  0  0  0
   30.0630   15.1875   22.1434 C   0  0  0  0  0  0  0  0  0  0  0  0
   28.9034   15.6477   21.2769 C   0  0  0  0  0  0  0  0  0  0  0  0
   27.6645   14.7871   21.4914 C   0  0  0  0  0  0  0  0  0  0  0  0
   26.5946   15.1199   20.4645 C   0  0  0  0  0  0  0  0  0  0  0  0
   27.0224   14.8032   19.0554 N   0  0  0  0  0  0  0  0  0  0  0  0
   33.0177   16.1777   20.2101 O   0  0  0  0  0  0  0  0  0  0  0  0
  2  1  1  6  0  0  0
  2  3  1  0  0  0  0
  2  5  1  0  0  0  0
  3  4  1  0  0  0  0
  3 10  1  0  0  0  0
  5  6  1  0  0  0  0
  6  7  1  0  0  0  0
  7  8  1  0  0  0  0
  8  9  1  0  0  0  0
M  END
>  <CHROM.1>
-114.00699423,57.48383471,178.29307138,-171.00330529,63.84057081,29.91607147
15.60500735,20.87082366,0.18042556,0.19137424,1.22507637

>  <Name>
ligand

>  <RI>
0

>  <Rbt.Current_Directory>
/home/itssahil/PROJECTS/Mol_Feturizer/New_Systems/rnas/3DIZ

>  <Rbt.Executable>
rbdock ($Id: //depot/dev/client3/rdock/2013.1/src/exe/rbdock.cxx#4 $)

>  <Rbt.Library>
libRbt.so (2013.1, Build901 2013/11/27)

>  <Rbt.Parameter_File>
/export/apps/rDock/src/rDock_2013.1_src/data/scripts/dock_solv.prm

>  <Rbt.Receptor>
prm/pocket_docking_8.prm

>  <SCORE>
-9.21842

>  <SCORE.INTER>
-9.32309

>  <SCORE.INTER.CONST>
1

>  <SCORE.INTER.POLAR>
0

>  <SCORE.INTER.ROT>
5

>  <SCORE.INTER.SOLV>
14.7496

>  <SCORE.INTER.VDW>
-18.0653

>  <SCORE.INTER.norm>
-0.932309

>  <SCORE.INTRA>
0.104666

>  <SCORE.INTRA.DIHEDRAL>
-1.75077

>  <SCORE.INTRA.DIHEDRAL.0>
3.67053

>  <SCORE.INTRA.POLAR>
0

>  <SCORE.INTRA.POLAR.0>
0

>  <SCORE.INTRA.REPUL>
0

>  <SCORE.INTRA.REPUL.0>
0

>  <SCORE.INTRA.SOLV>
0.173872

>  <SCORE.INTRA.SOLV.lig_0>
-32.0553

>  <SCORE.INTRA.VDW>
0.893116

>  <SCORE.INTRA.VDW.0>
-0.571921

>  <SCORE.INTRA.norm>
0.0104666

>  <SCORE.RESTR>
0

>  <SCORE.RESTR.CAVITY>
0

>  <SCORE.RESTR.norm>
0

>  <SCORE.SYSTEM>
0

>  <SCORE.SYSTEM.CONST>
0

>  <SCORE.SYSTEM.DIHEDRAL>
0

>  <SCORE.SYSTEM.SOLV>
0

>  <SCORE.SYSTEM.norm>
0

>  <SCORE.heavy>
10

>  <SCORE.norm>
-0.921842

>  <RMSD>
2.028

$$$$
ligand
 OpenBabel11021811473D
libRbt.so/2013.1/901 2013/11/27
 10  9  0  0  0  0  0  0  0  0999 V2000
   32.3217   18.3234   21.9830 N   0  0  0  0  0  0  0  0  0  0  0  0
   32.5340   16.8639   21.7454 C   0  0  2  0  0  0  0  0  0  0  0  0
   33.0101   16.5903   20.3250 C   0  0  0  0  0  0  0  0  0  0  0  0
   34.0661   16.0065   20.1067 O   0  0  0  0  0  0  0  0  0  0  0  0
   31.2648   16.0678   22.0593 C   0  0  0  0  0  0  0  0  0  0  0  0
   30.0676   16.4678   21.2140 C   0  0  0  0  0  0  0  0  0  0  0  0
   28.8495   15.6053   21.5201 C   0  0  0  0  0  0  0  0  0  0  0  0
   27.7125   15.9222   20.5626 C   0  0  0  0  0  0  0  0  0  0  0  0
   26.4774   15.1041   20.8350 N   0  0  0  0  0  0  0  0  0  0  0  0
   32.3525   16.9107   19.3442 O   0  0  0  0  0  0  0  0  0  0  0  0
  2  1  1  6  0  0  0
  2  3  1  0  0  0  0
  2  5  1  0  0  0  0
  3  4  1  0  0  0  0
  3 10  1  0  0  0  0
  5  6  1  0  0  0  0
  6  7  1  0  0  0  0
  7  8  1  0  0  0  0
  8  9  1  0  0  0  0
M  END
>  <CHROM.1>
122.28987261,60.22114885,177.42131710,-173.94339411,-179.36221102,30.88901777
16.38181632,20.93828059,0.04580413,0.22371538,1.10553845

>  <Name>
ligand

>  <RI>
0

>  <Rbt.Current_Directory>
/home/itssahil/PROJECTS/Mol_Feturizer/New_Systems/rnas/3DIZ

>  <Rbt.Executable>
rbdock ($Id: //depot/dev/client3/rdock/2013.1/src/exe/rbdock.cxx#4 $)

>  <Rbt.Library>
libRbt.so (2013.1, Build901 2013/11/27)

>  <Rbt.Parameter_File>
/export/apps/rDock/src/rDock_2013.1_src/data/scripts/dock_solv.prm

>  <Rbt.Receptor>
prm/blind_docking_60.prm

>  <SCORE>
-7.1103

>  <SCORE.INTER>
-5.67083

>  <SCORE.INTER.CONST>
1

>  <SCORE.INTER.POLAR>
0

>  <SCORE.INTER.ROT>
5

>  <SCORE.INTER.SOLV>
17.8422

>  <SCORE.INTER.VDW>
-16.6613

>  <SCORE.INTER.norm>
-0.567083

>  <SCORE.INTRA>
-1.43947

>  <SCORE.INTRA.DIHEDRAL>
-1.98907

>  <SCORE.INTRA.DIHEDRAL.0>
3.67053

>  <SCORE.INTRA.POLAR>
0

>  <SCORE.INTRA.POLAR.0>
0

>  <SCORE.INTRA.REPUL>
0

>  <SCORE.INTRA.REPUL.0>
0

>  <SCORE.INTRA.SOLV>
-0.855755

>  <SCORE.INTRA.SOLV.lig_0>
-32.0553

>  <SCORE.INTRA.VDW>
-0.0170574

>  <SCORE.INTRA.VDW.0>
-0.571921

>  <SCORE.INTRA.norm>
-0.143947

>  <SCORE.RESTR>
0

>  <SCORE.RESTR.CAVITY>
0

>  <SCORE.RESTR.norm>
0

>  <SCORE.SYSTEM>
0

>  <SCORE.SYSTEM.CONST>
0

>  <SCORE.SYSTEM.DIHEDRAL>
0

>  <SCORE.SYSTEM.SOLV>
0

>  <SCORE.SYSTEM.norm>
0

>  <SCORE.heavy>
10

>  <SCORE.norm>
-0.71103

>  <RMSD>
2.065

$$$$
ligand
 OpenBabel11021811473D
libRbt.so/2013.1/901 2013/11/27
 10  9  0  0  0  0  0  0  0  0999 V2000
   31.7184   17.9469   22.3808 N   0  0  0  0  0  0  0  0  0  0  0  0
   31.5434   16.5962   21.7672 C   0  0  2  0  0  0  0  0  0  0  0  0
   32.4700   16.3973   20.5751 C   0  0  0  0  0  0  0  0  0  0  0  0
   32.3479   15.4350   19.8249 O   0  0  0  0  0  0  0  0  0  0  0  0
   30.0839   16.3600   21.3704 C   0  0  0  0  0  0  0  0  0  0  0  0
   29.7487   14.9008   21.1138 C   0  0  0  0  0  0  0  0  0  0  0  0
   28.3705   14.7426   20.4838 C   0  0  0  0  0  0  0  0  0  0  0  0
   27.2796   15.0867   21.4846 C   0  0  0  0  0  0  0  0  0  0  0  0
   25.8948   14.9217   20.9154 N   0  0  0  0  0  0  0  0  0  0  0  0
   33.3526   17.1971   20.2954 O   0  0  0  0  0  0  0  0  0  0  0  0
  2  1  1  6  0  0  0
  2  3  1  0  0  0  0
  2  5  1  0  0  0  0
  3  4  1  0  0  0  0
  3 10  1  0  0  0  0
  5  6  1  0  0  0  0
  6  7  1  0  0  0  0
  7  8  1  0  0  0  0
  8  9  1  0  0  0  0
M  END
>  <CHROM.1>
-169.62351163,-163.54459930,-169.69855674,-69.75030964,-178.97769973,30.31295965
15.95745723,20.99514760,0.20848144,0.26235349,0.76662263

>  <Name>
ligand

>  <RI>
0

>  <Rbt.Current_Directory>
/home/itssahil/PROJECTS/Mol_Feturizer/New_Systems/rnas/3DIZ

>  <Rbt.Executable>
rbdock ($Id: //depot/dev/client3/rdock/2013.1/src/exe/rbdock.cxx#4 $)

>  <Rbt.Library>
libRbt.so (2013.1, Build901 2013/11/27)

>  <Rbt.Parameter_File>
/export/apps/rDock/src/rDock_2013.1_src/data/scripts/dock_solv.prm

>  <Rbt.Receptor>
prm/pocket_docking_6.prm

>  <SCORE>
-6.75018

>  <SCORE.INTER>
-6.65464

>  <SCORE.INTER.CONST>
1

>  <SCORE.INTER.POLAR>
0

>  <SCORE.INTER.ROT>
5

>  <SCORE.INTER.SOLV>
19.0726

>  <SCORE.INTER.VDW>
-17.7273

>  <SCORE.INTER.norm>
-0.665464

>  <SCORE.INTRA>
-0.0955307

>  <SCORE.INTRA.DIHEDRAL>
-0.341607

>  <SCORE.INTRA.DIHEDRAL.0>
3.67053

>  <SCORE.INTRA.POLAR>
0

>  <SCORE.INTRA.POLAR.0>
0

>  <SCORE.INTRA.REPUL>
0

>  <SCORE.INTRA.REPUL.0>
0

>  <SCORE.INTRA.SOLV>
-1.47874

>  <SCORE.INTRA.SOLV.lig_0>
-32.0553

>  <SCORE.INTRA.VDW>
0.814645

>  <SCORE.INTRA.VDW.0>
-0.571921

>  <SCORE.INTRA.norm>
-0.00955307

>  <SCORE.RESTR>
0

>  <SCORE.RESTR.CAVITY>
0

>  <SCORE.RESTR.norm>
0

>  <SCORE.SYSTEM>
0

>  <SCORE.SYSTEM.CONST>
0

>  <SCORE.SYSTEM.DIHEDRAL>
0

>  <SCORE.SYSTEM.SOLV>
0

>  <SCORE.SYSTEM.norm>
0

>  <SCORE.heavy>
10

>  <SCORE.norm>
-0.675018

>  <RMSD>
2.067

$$$$
ligand
 OpenBabel11021811473D
libRbt.so/2013.1/901 2013/11/27
 10  9  0  0  0  0  0  0  0  0999 V2000
   31.5422   17.8009   22.3557 N   0  0  0  0  0  0  0  0  0  0  0  0
   31.7615   16.3601   22.0280 C   0  0  2  0  0  0  0  0  0  0  0  0
   32.3160   16.1830   20.6208 C   0  0  0  0  0  0  0  0  0  0  0  0
   31.8943   15.3068   19.8738 O   0  0  0  0  0  0  0  0  0  0  0  0
   30.4733   15.5542   22.2134 C   0  0  0  0  0  0  0  0  0  0  0  0
   29.3387   15.9983   21.3062 C   0  0  0  0  0  0  0  0  0  0  0  0
   28.0776   15.1754   21.5387 C   0  0  0  0  0  0  0  0  0  0  0  0
   27.0095   15.5287   20.5168 C   0  0  0  0  0  0  0  0  0  0  0  0
   25.7038   14.8226   20.7722 N   0  0  0  0  0  0  0  0  0  0  0  0
   33.1795   16.9193   20.1633 O   0  0  0  0  0  0  0  0  0  0  0  0
  2  1  1  6  0  0  0
  2  3  1  0  0  0  0
  2  5  1  0  0  0  0
  3  4  1  0  0  0  0
  3 10  1  0  0  0  0
  5  6  1  0  0  0  0
  6  7  1  0  0  0  0
  7  8  1  0  0  0  0
  8  9  1  0  0  0  0
M  END
>  <CHROM.1>
-137.00945881,61.75881308,-179.44903820,-173.57926631,-175.35073354,30.15447751
15.96303844,21.10851425,0.11440536,0.22098971,1.06704962

>  <Name>
ligand

>  <RI>
0

>  <Rbt.Current_Directory>
/home/itssahil/PROJECTS/Mol_Feturizer/New_Systems/rnas/3DIZ

>  <Rbt.Executable>
rbdock ($Id: //depot/dev/client3/rdock/2013.1/src/exe/rbdock.cxx#4 $)

>  <Rbt.Library>
libRbt.so (2013.1, Build901 2013/11/27)

>  <Rbt.Parameter_File>
/export/apps/rDock/src/rDock_2013.1_src/data/scripts/dock_solv.prm

>  <Rbt.Receptor>
prm/pocket_docking_3.prm

>  <SCORE>
-8.02912

>  <SCORE.INTER>
-7.37927

>  <SCORE.INTER.CONST>
1

>  <SCORE.INTER.POLAR>
0

>  <SCORE.INTER.ROT>
5

>  <SCORE.INTER.SOLV>
18.7905

>  <SCORE.INTER.VDW>
-18.1163

>  <SCORE.INTER.norm>
-0.737927

>  <SCORE.INTRA>
-0.649849

>  <SCORE.INTRA.DIHEDRAL>
-1.85536

>  <SCORE.INTRA.DIHEDRAL.0>
3.67053

>  <SCORE.INTRA.POLAR>
0

>  <SCORE.INTRA.POLAR.0>
0

>  <SCORE.INTRA.REPUL>
0

>  <SCORE.INTRA.REPUL.0>
0

>  <SCORE.INTRA.SOLV>
-0.841525

>  <SCORE.INTRA.SOLV.lig_0>
-32.0553

>  <SCORE.INTRA.VDW>
0.698594

>  <SCORE.INTRA.VDW.0>
-0.571921

>  <SCORE.INTRA.norm>
-0.0649849

>  <SCORE.RESTR>
0

>  <SCORE.RESTR.CAVITY>
0

>  <SCORE.RESTR.norm>
0

>  <SCORE.SYSTEM>
0

>  <SCORE.SYSTEM.CONST>
0

>  <SCORE.SYSTEM.DIHEDRAL>
0

>  <SCORE.SYSTEM.SOLV>
0

>  <SCORE.SYSTEM.norm>
0

>  <SCORE.heavy>
10

>  <SCORE.norm>
-0.802912

>  <RMSD>
2.071

$$$$
ligand
 OpenBabel11021811473D
libRbt.so/2013.1/901 2013/11/27
 10  9  0  0  0  0  0  0  0  0999 V2000
   31.0783   15.6487   22.9439 N   0  0  0  0  0  0  0  0  0  0  0  0
   30.8784   15.4358   21.4789 C   0  0  2  0  0  0  0  0  0  0  0  0
   31.0367   16.7329   20.6969 C   0  0  0  0  0  0  0  0  0  0  0  0
   31.8624   16.8391   19.7965 O   0  0  0  0  0  0  0  0  0  0  0  0
   29.5180   14.7918   21.1998 C   0  0  0  0  0  0  0  0  0  0  0  0
   28.3472   15.5534   21.7971 C   0  0  0  0  0  0  0  0  0  0  0  0
   27.0115   14.9815   21.3387 C   0  0  0  0  0  0  0  0  0  0  0  0
   26.6973   15.4225   19.9185 C   0  0  0  0  0  0  0  0  0  0  0  0
   27.6653   14.8644   18.9085 N   0  0  0  0  0  0  0  0  0  0  0  0
   30.3332   17.7113   20.9084 O   0  0  0  0  0  0  0  0  0  0  0  0
  2  1  1  1  0  0  0
  2  3  1  0  0  0  0
  2  5  1  0  0  0  0
  3  4  1  0  0  0  0
  3 10  1  0  0  0  0
  5  6  1  0  0  0  0
  6  7  1  0  0  0  0
  7  8  1  0  0  0  0
  8  9  1  0  0  0  0
M  END
>  <CHROM.1>
122.44613085,54.38364092,172.39404743,-77.16330641,65.40824334,29.45609467
15.82880984,20.88218571,0.05023438,0.38721342,1.92366875

>  <Name>
ligand

>  <RI>
0

>  <Rbt.Current_Directory>
/home/itssahil/PROJECTS/Mol_Feturizer/New_Systems/rnas/3DIZ

>  <Rbt.Executable>
rbdock ($Id: //depot/dev/client3/rdock/2013.1/src/exe/rbdock.cxx#4 $)

>  <Rbt.Library>
libRbt.so (2013.1, Build901 2013/11/27)

>  <Rbt.Parameter_File>
/export/apps/rDock/src/rDock_2013.1_src/data/scripts/dock_solv.prm

>  <Rbt.Receptor>
prm/pocket_docking_8.prm

>  <SCORE>
-6.54259

>  <SCORE.INTER>
-7.49513

>  <SCORE.INTER.CONST>
1

>  <SCORE.INTER.POLAR>
0

>  <SCORE.INTER.ROT>
5

>  <SCORE.INTER.SOLV>
15.8341

>  <SCORE.INTER.VDW>
-17.2081

>  <SCORE.INTER.norm>
-0.749513

>  <SCORE.INTRA>
0.952531

>  <SCORE.INTRA.DIHEDRAL>
-0.531013

>  <SCORE.INTRA.DIHEDRAL.0>
3.67053

>  <SCORE.INTRA.POLAR>
0

>  <SCORE.INTRA.POLAR.0>
0

>  <SCORE.INTRA.REPUL>
0

>  <SCORE.INTRA.REPUL.0>
0

>  <SCORE.INTRA.SOLV>
1.60931

>  <SCORE.INTRA.SOLV.lig_0>
-32.0553

>  <SCORE.INTRA.VDW>
0.413385

>  <SCORE.INTRA.VDW.0>
-0.571921

>  <SCORE.INTRA.norm>
0.0952531

>  <SCORE.RESTR>
0

>  <SCORE.RESTR.CAVITY>
0

>  <SCORE.RESTR.norm>
0

>  <SCORE.SYSTEM>
0

>  <SCORE.SYSTEM.CONST>
0

>  <SCORE.SYSTEM.DIHEDRAL>
0

>  <SCORE.SYSTEM.SOLV>
0

>  <SCORE.SYSTEM.norm>
0

>  <SCORE.heavy>
10

>  <SCORE.norm>
-0.654259

>  <RMSD>
2.072

$$$$
ligand
 OpenBabel11021811473D
libRbt.so/2013.1/901 2013/11/27
 10  9  0  0  0  0  0  0  0  0999 V2000
   31.5291   17.7837   22.3814 N   0  0  0  0  0  0  0  0  0  0  0  0
   31.7558   16.3542   22.0121 C   0  0  2  0  0  0  0  0  0  0  0  0
   32.3010   16.2201   20.5965 C   0  0  0  0  0  0  0  0  0  0  0  0
   33.1211   17.0148   20.1501 O   0  0  0  0  0  0  0  0  0  0  0  0
   30.4746   15.5344   22.1843 C   0  0  0  0  0  0  0  0  0  0  0  0
   29.3288   15.9984   21.3015 C   0  0  0  0  0  0  0  0  0  0  0  0
   28.0831   15.1439   21.5011 C   0  0  0  0  0  0  0  0  0  0  0  0
   26.9929   15.5465   20.5217 C   0  0  0  0  0  0  0  0  0  0  0  0
   25.6950   14.8220   20.7659 N   0  0  0  0  0  0  0  0  0  0  0  0
   31.9715   15.3040   19.8555 O   0  0  0  0  0  0  0  0  0  0  0  0
  2  1  1  6  0  0  0
  2  3  1  0  0  0  0
  2  5  1  0  0  0  0
  3  4  1  0  0  0  0
  3 10  1  0  0  0  0
  5  6  1  0  0  0  0
  6  7  1  0  0  0  0
  7  8  1  0  0  0  0
  8  9  1  0  0  0  0
M  END
>  <CHROM.1>
38.56065186,61.56628830,179.48785964,-174.95712618,-174.46407250,30.15067755
15.97107067,21.09670859,0.11437779,0.22597123,1.06970286

>  <Name>
ligand

>  <RI>
0

>  <Rbt.Current_Directory>
/home/itssahil/PROJECTS/Mol_Feturizer/New_Systems/rnas/3DIZ

>  <Rbt.Executable>
rbdock ($Id: //depot/dev/client3/rdock/2013.1/src/exe/rbdock.cxx#4 $)

>  <Rbt.Library>
libRbt.so (2013.1, Build901 2013/11/27)

>  <Rbt.Parameter_File>
/export/apps/rDock/src/rDock_2013.1_src/data/scripts/dock_solv.prm

>  <Rbt.Receptor>
prm/pocket_docking_3.prm

>  <SCORE>
-8.21584

>  <SCORE.INTER>
-7.30431

>  <SCORE.INTER.CONST>
1

>  <SCORE.INTER.POLAR>
0

>  <SCORE.INTER.ROT>
5

>  <SCORE.INTER.SOLV>
18.7576

>  <SCORE.INTER.VDW>
-18.0554

>  <SCORE.INTER.norm>
-0.730431

>  <SCORE.INTRA>
-0.911529

>  <SCORE.INTRA.DIHEDRAL>
-1.99741

>  <SCORE.INTRA.DIHEDRAL.0>
3.67053

>  <SCORE.INTRA.POLAR>
0

>  <SCORE.INTRA.POLAR.0>
0

>  <SCORE.INTRA.REPUL>
0

>  <SCORE.INTRA.REPUL.0>
0

>  <SCORE.INTRA.SOLV>
-0.845967

>  <SCORE.INTRA.SOLV.lig_0>
-32.0553

>  <SCORE.INTRA.VDW>
0.510157

>  <SCORE.INTRA.VDW.0>
-0.571921

>  <SCORE.INTRA.norm>
-0.0911529

>  <SCORE.RESTR>
0

>  <SCORE.RESTR.CAVITY>
0

>  <SCORE.RESTR.norm>
0

>  <SCORE.SYSTEM>
0

>  <SCORE.SYSTEM.CONST>
0

>  <SCORE.SYSTEM.DIHEDRAL>
0

>  <SCORE.SYSTEM.SOLV>
0

>  <SCORE.SYSTEM.norm>
0

>  <SCORE.heavy>
10

>  <SCORE.norm>
-0.821584

>  <RMSD>
2.075

$$$$
ligand
 OpenBabel11021811473D
libRbt.so/2013.1/901 2013/11/27
 10  9  0  0  0  0  0  0  0  0999 V2000
   32.6331   17.8251   22.3941 N   0  0  0  0  0  0  0  0  0  0  0  0
   31.9290   16.6436   21.8112 C   0  0  2  0  0  0  0  0  0  0  0  0
   32.4500   16.3105   20.4195 C   0  0  0  0  0  0  0  0  0  0  0  0
   32.0886   15.2994   19.8274 O   0  0  0  0  0  0  0  0  0  0  0  0
   30.4145   16.8646   21.7894 C   0  0  0  0  0  0  0  0  0  0  0  0
   29.6213   15.6257   21.4106 C   0  0  0  0  0  0  0  0  0  0  0  0
   28.1347   15.9298   21.2728 C   0  0  0  0  0  0  0  0  0  0  0  0
   27.3650   14.6801   20.8778 C   0  0  0  0  0  0  0  0  0  0  0  0
   25.8891   14.9330   20.7155 N   0  0  0  0  0  0  0  0  0  0  0  0
   33.2236   17.0450   19.8203 O   0  0  0  0  0  0  0  0  0  0  0  0
  2  1  1  6  0  0  0
  2  3  1  0  0  0  0
  2  5  1  0  0  0  0
  3  4  1  0  0  0  0
  3 10  1  0  0  0  0
  5  6  1  0  0  0  0
  6  7  1  0  0  0  0
  7  8  1  0  0  0  0
  8  9  1  0  0  0  0
M  END
>  <CHROM.1>
172.98420244,-171.07963434,-174.53393683,179.33559265,-179.42784487,30.39823414
16.11061558,21.00311746,0.15942500,0.25480942,0.94288244

>  <Name>
ligand

>  <RI>
0

>  <Rbt.Current_Directory>
/home/itssahil/PROJECTS/Mol_Feturizer/New_Systems/rnas/3DIZ

>  <Rbt.Executable>
rbdock ($Id: //depot/dev/client3/rdock/2013.1/src/exe/rbdock.cxx#4 $)

>  <Rbt.Library>
libRbt.so (2013.1, Build901 2013/11/27)

>  <Rbt.Parameter_File>
/export/apps/rDock/src/rDock_2013.1_src/data/scripts/dock_solv.prm

>  <Rbt.Receptor>
prm/pocket_docking_3.prm

>  <SCORE>
-7.77017

>  <SCORE.INTER>
-6.0798

>  <SCORE.INTER.CONST>
1

>  <SCORE.INTER.POLAR>
0

>  <SCORE.INTER.ROT>
5

>  <SCORE.INTER.SOLV>
19.0019

>  <SCORE.INTER.VDW>
-17.3205

>  <SCORE.INTER.norm>
-0.60798

>  <SCORE.INTRA>
-1.69037

>  <SCORE.INTRA.DIHEDRAL>
-1.77882

>  <SCORE.INTRA.DIHEDRAL.0>
3.67053

>  <SCORE.INTRA.POLAR>
0

>  <SCORE.INTRA.POLAR.0>
0

>  <SCORE.INTRA.REPUL>
0

>  <SCORE.INTRA.REPUL.0>
0

>  <SCORE.INTRA.SOLV>
-1.70625

>  <SCORE.INTRA.SOLV.lig_0>
-32.0553

>  <SCORE.INTRA.VDW>
0.0521692

>  <SCORE.INTRA.VDW.0>
-0.571921

>  <SCORE.INTRA.norm>
-0.169037

>  <SCORE.RESTR>
0

>  <SCORE.RESTR.CAVITY>
0

>  <SCORE.RESTR.norm>
0

>  <SCORE.SYSTEM>
0

>  <SCORE.SYSTEM.CONST>
0

>  <SCORE.SYSTEM.DIHEDRAL>
0

>  <SCORE.SYSTEM.SOLV>
0

>  <SCORE.SYSTEM.norm>
0

>  <SCORE.heavy>
10

>  <SCORE.norm>
-0.777017

>  <RMSD>
2.097

$$$$
ligand
 OpenBabel11021811473D
libRbt.so/2013.1/901 2013/11/27
 10  9  0  0  0  0  0  0  0  0999 V2000
   31.9131   17.5823   22.3281 N   0  0  0  0  0  0  0  0  0  0  0  0
   31.3397   16.3016   21.8159 C   0  0  2  0  0  0  0  0  0  0  0  0
   31.7727   16.0270   20.3819 C   0  0  0  0  0  0  0  0  0  0  0  0
   31.3735   15.0411   19.7719 O   0  0  0  0  0  0  0  0  0  0  0  0
   29.8137   16.2981   21.9363 C   0  0  0  0  0  0  0  0  0  0  0  0
   29.1871   14.9306   21.7247 C   0  0  0  0  0  0  0  0  0  0  0  0
   27.6676   15.0138   21.6480 C   0  0  0  0  0  0  0  0  0  0  0  0
   27.2319   15.7231   20.3764 C   0  0  0  0  0  0  0  0  0  0  0  0
   27.6742   15.0044   19.1287 N   0  0  0  0  0  0  0  0  0  0  0  0
   32.5088   16.7865   19.7668 O   0  0  0  0  0  0  0  0  0  0  0  0
  2  1  1  6  0  0  0
  2  3  1  0  0  0  0
  2  5  1  0  0  0  0
  3  4  1  0  0  0  0
  3 10  1  0  0  0  0
  5  6  1  0  0  0  0
  6  7  1  0  0  0  0
  7  8  1  0  0  0  0
  8  9  1  0  0  0  0
M  END
>  <CHROM.1>
-177.87967494,-167.30748608,-171.52453191,68.69759956,61.34701528,30.06737888
15.86661863,20.85723804,0.16943072,0.27899713,1.23907591

>  <Name>
ligand

>  <RI>
0

>  <Rbt.Current_Directory>
/home/itssahil/PROJECTS/Mol_Feturizer/New_Systems/rnas/3DIZ

>  <Rbt.Executable>
rbdock ($Id: //depot/dev/client3/rdock/2013.1/src/exe/rbdock.cxx#4 $)

>  <Rbt.Library>
libRbt.so (2013.1, Build901 2013/11/27)

>  <Rbt.Parameter_File>
/export/apps/rDock/src/rDock_2013.1_src/data/scripts/dock_solv.prm

>  <Rbt.Receptor>
prm/pocket_docking_4.prm

>  <SCORE>
-8.97612

>  <SCORE.INTER>
-9.17279

>  <SCORE.INTER.CONST>
1

>  <SCORE.INTER.POLAR>
0

>  <SCORE.INTER.ROT>
5

>  <SCORE.INTER.SOLV>
11.9221

>  <SCORE.INTER.VDW>
-17.0226

>  <SCORE.INTER.norm>
-0.917279

>  <SCORE.INTRA>
0.196668

>  <SCORE.INTRA.DIHEDRAL>
-0.96574

>  <SCORE.INTRA.DIHEDRAL.0>
3.67053

>  <SCORE.INTRA.POLAR>
0

>  <SCORE.INTRA.POLAR.0>
0

>  <SCORE.INTRA.REPUL>
0

>  <SCORE.INTRA.REPUL.0>
0

>  <SCORE.INTRA.SOLV>
-0.068783

>  <SCORE.INTRA.SOLV.lig_0>
-32.0553

>  <SCORE.INTRA.VDW>
0.713929

>  <SCORE.INTRA.VDW.0>
-0.571921

>  <SCORE.INTRA.norm>
0.0196668

>  <SCORE.RESTR>
0

>  <SCORE.RESTR.CAVITY>
0

>  <SCORE.RESTR.norm>
0

>  <SCORE.SYSTEM>
0

>  <SCORE.SYSTEM.CONST>
0

>  <SCORE.SYSTEM.DIHEDRAL>
0

>  <SCORE.SYSTEM.SOLV>
0

>  <SCORE.SYSTEM.norm>
0

>  <SCORE.heavy>
10

>  <SCORE.norm>
-0.897612

>  <RMSD>
2.098

$$$$
ligand
 OpenBabel11021811473D
libRbt.so/2013.1/901 2013/11/27
 10  9  0  0  0  0  0  0  0  0999 V2000
   31.8694   17.5577   22.3185 N   0  0  0  0  0  0  0  0  0  0  0  0
   31.2835   16.2781   21.8177 C   0  0  2  0  0  0  0  0  0  0  0  0
   31.7344   15.9734   20.3953 C   0  0  0  0  0  0  0  0  0  0  0  0
   31.2747   15.0248   19.7690 O   0  0  0  0  0  0  0  0  0  0  0  0
   29.7559   16.3007   21.9138 C   0  0  0  0  0  0  0  0  0  0  0  0
   29.1115   14.9377   21.7279 C   0  0  0  0  0  0  0  0  0  0  0  0
   27.5966   15.0437   21.6050 C   0  0  0  0  0  0  0  0  0  0  0  0
   27.2087   15.6947   20.2874 C   0  0  0  0  0  0  0  0  0  0  0  0
   27.7001   14.9234   19.0906 N   0  0  0  0  0  0  0  0  0  0  0  0
   32.5471   16.6725   19.8057 O   0  0  0  0  0  0  0  0  0  0  0  0
  2  1  1  6  0  0  0
  2  3  1  0  0  0  0
  2  5  1  0  0  0  0
  3  4  1  0  0  0  0
  3 10  1  0  0  0  0
  5  6  1  0  0  0  0
  6  7  1  0  0  0  0
  7  8  1  0  0  0  0
  8  9  1  0  0  0  0
M  END
>  <CHROM.1>
-173.90786669,-166.72731300,-170.71139942,69.77602567,59.92516251,30.02766259
15.83575554,20.84285415,0.18809376,0.26544861,1.21510212

>  <Name>
ligand

>  <RI>
0

>  <Rbt.Current_Directory>
/home/itssahil/PROJECTS/Mol_Feturizer/New_Systems/rnas/3DIZ

>  <Rbt.Executable>
rbdock ($Id: //depot/dev/client3/rdock/2013.1/src/exe/rbdock.cxx#4 $)

>  <Rbt.Library>
libRbt.so (2013.1, Build901 2013/11/27)

>  <Rbt.Parameter_File>
/export/apps/rDock/src/rDock_2013.1_src/data/scripts/dock_solv.prm

>  <Rbt.Receptor>
prm/pocket_docking_8.prm

>  <SCORE>
-9.00748

>  <SCORE.INTER>
-9.36544

>  <SCORE.INTER.CONST>
1

>  <SCORE.INTER.POLAR>
0

>  <SCORE.INTER.ROT>
5

>  <SCORE.INTER.SOLV>
11.8583

>  <SCORE.INTER.VDW>
-17.1297

>  <SCORE.INTER.norm>
-0.936544

>  <SCORE.INTRA>
0.357961

>  <SCORE.INTRA.DIHEDRAL>
-0.767232

>  <SCORE.INTRA.DIHEDRAL.0>
3.67053

>  <SCORE.INTRA.POLAR>
0

>  <SCORE.INTRA.POLAR.0>
0

>  <SCORE.INTRA.REPUL>
0

>  <SCORE.INTRA.REPUL.0>
0

>  <SCORE.INTRA.SOLV>
0.0182129

>  <SCORE.INTRA.SOLV.lig_0>
-32.0553

>  <SCORE.INTRA.VDW>
0.732471

>  <SCORE.INTRA.VDW.0>
-0.571921

>  <SCORE.INTRA.norm>
0.0357961

>  <SCORE.RESTR>
0

>  <SCORE.RESTR.CAVITY>
0

>  <SCORE.RESTR.norm>
0

>  <SCORE.SYSTEM>
0

>  <SCORE.SYSTEM.CONST>
0

>  <SCORE.SYSTEM.DIHEDRAL>
0

>  <SCORE.SYSTEM.SOLV>
0

>  <SCORE.SYSTEM.norm>
0

>  <SCORE.heavy>
10

>  <SCORE.norm>
-0.900748

>  <RMSD>
2.102

$$$$
ligand
 OpenBabel11021811473D
libRbt.so/2013.1/901 2013/11/27
 10  9  0  0  0  0  0  0  0  0999 V2000
   32.7383   17.1195   22.1678 N   0  0  0  0  0  0  0  0  0  0  0  0
   31.5832   16.4780   21.4709 C   0  0  2  0  0  0  0  0  0  0  0  0
   31.9682   15.9883   20.0812 C   0  0  0  0  0  0  0  0  0  0  0  0
   32.9124   16.4773   19.4705 O   0  0  0  0  0  0  0  0  0  0  0  0
   30.3871   17.4308   21.4028 C   0  0  0  0  0  0  0  0  0  0  0  0
   29.1297   16.7937   20.8366 C   0  0  0  0  0  0  0  0  0  0  0  0
   28.5981   15.6931   21.7463 C   0  0  0  0  0  0  0  0  0  0  0  0
   27.2784   15.1524   21.2208 C   0  0  0  0  0  0  0  0  0  0  0  0
   27.4034   14.5472   19.8472 N   0  0  0  0  0  0  0  0  0  0  0  0
   31.3771   15.0719   19.5264 O   0  0  0  0  0  0  0  0  0  0  0  0
  2  1  1  6  0  0  0
  2  3  1  0  0  0  0
  2  5  1  0  0  0  0
  3  4  1  0  0  0  0
  3 10  1  0  0  0  0
  5  6  1  0  0  0  0
  6  7  1  0  0  0  0
  7  8  1  0  0  0  0
  8  9  1  0  0  0  0
M  END
>  <CHROM.1>
-23.78320529,-173.94495074,65.55177365,175.18817396,60.89498716,30.35599928
16.06523333,20.74622160,0.12759917,0.24343675,0.94165859

>  <Name>
ligand

>  <RI>
0

>  <Rbt.Current_Directory>
/home/itssahil/PROJECTS/Mol_Feturizer/New_Systems/rnas/3DIZ

>  <Rbt.Executable>
rbdock ($Id: //depot/dev/client3/rdock/2013.1/src/exe/rbdock.cxx#4 $)

>  <Rbt.Library>
libRbt.so (2013.1, Build901 2013/11/27)

>  <Rbt.Parameter_File>
/export/apps/rDock/src/rDock_2013.1_src/data/scripts/dock_solv.prm

>  <Rbt.Receptor>
prm/pocket_docking_7.prm

>  <SCORE>
-8.72156

>  <SCORE.INTER>
-7.63491

>  <SCORE.INTER.CONST>
1

>  <SCORE.INTER.POLAR>
0

>  <SCORE.INTER.ROT>
5

>  <SCORE.INTER.SOLV>
14.2319

>  <SCORE.INTER.VDW>
-16.7673

>  <SCORE.INTER.norm>
-0.763491

>  <SCORE.INTRA>
-1.08665

>  <SCORE.INTRA.DIHEDRAL>
-1.75074

>  <SCORE.INTRA.DIHEDRAL.0>
3.67053

>  <SCORE.INTRA.POLAR>
0

>  <SCORE.INTRA.POLAR.0>
0

>  <SCORE.INTRA.REPUL>
0

>  <SCORE.INTRA.REPUL.0>
0

>  <SCORE.INTRA.SOLV>
-0.501065

>  <SCORE.INTRA.SOLV.lig_0>
-32.0553

>  <SCORE.INTRA.VDW>
0.0392553

>  <SCORE.INTRA.VDW.0>
-0.571921

>  <SCORE.INTRA.norm>
-0.108665

>  <SCORE.RESTR>
0

>  <SCORE.RESTR.CAVITY>
0

>  <SCORE.RESTR.norm>
0

>  <SCORE.SYSTEM>
0

>  <SCORE.SYSTEM.CONST>
0

>  <SCORE.SYSTEM.DIHEDRAL>
0

>  <SCORE.SYSTEM.SOLV>
0

>  <SCORE.SYSTEM.norm>
0

>  <SCORE.heavy>
10

>  <SCORE.norm>
-0.872156

>  <RMSD>
2.114

$$$$
ligand
 OpenBabel11021811473D
libRbt.so/2013.1/901 2013/11/27
 10  9  0  0  0  0  0  0  0  0999 V2000
   32.8765   17.1464   22.2642 N   0  0  0  0  0  0  0  0  0  0  0  0
   31.7069   16.4954   21.6011 C   0  0  2  0  0  0  0  0  0  0  0  0
   32.0582   15.9993   20.2048 C   0  0  0  0  0  0  0  0  0  0  0  0
   31.4183   15.1030   19.6657 O   0  0  0  0  0  0  0  0  0  0  0  0
   30.5048   17.4420   21.5585 C   0  0  0  0  0  0  0  0  0  0  0  0
   29.2424   16.8024   21.0064 C   0  0  0  0  0  0  0  0  0  0  0  0
   28.7378   15.6833   21.9089 C   0  0  0  0  0  0  0  0  0  0  0  0
   27.4120   15.1404   21.4015 C   0  0  0  0  0  0  0  0  0  0  0  0
   27.5091   14.5775   20.0077 N   0  0  0  0  0  0  0  0  0  0  0  0
   32.9686   16.4881   19.5496 O   0  0  0  0  0  0  0  0  0  0  0  0
  2  1  1  6  0  0  0
  2  3  1  0  0  0  0
  2  5  1  0  0  0  0
  3  4  1  0  0  0  0
  3 10  1  0  0  0  0
  5  6  1  0  0  0  0
  6  7  1  0  0  0  0
  7  8  1  0  0  0  0
  8  9  1  0  0  0  0
M  END
>  <CHROM.1>
156.99930210,-174.93599618,65.02245303,175.09807127,59.99705814,30.46038741
16.07803618,20.88546392,0.12081612,0.25632634,0.95559735

>  <Name>
ligand

>  <RI>
0

>  <Rbt.Current_Directory>
/home/itssahil/PROJECTS/Mol_Feturizer/New_Systems/rnas/3DIZ

>  <Rbt.Executable>
rbdock ($Id: //depot/dev/client3/rdock/2013.1/src/exe/rbdock.cxx#4 $)

>  <Rbt.Library>
libRbt.so (2013.1, Build901 2013/11/27)

>  <Rbt.Parameter_File>
/export/apps/rDock/src/rDock_2013.1_src/data/scripts/dock_solv.prm

>  <Rbt.Receptor>
prm/blind_docking_60.prm

>  <SCORE>
-8.85232

>  <SCORE.INTER>
-7.7465

>  <SCORE.INTER.CONST>
1

>  <SCORE.INTER.POLAR>
0

>  <SCORE.INTER.ROT>
5

>  <SCORE.INTER.SOLV>
14.1871

>  <SCORE.INTER.VDW>
-16.8267

>  <SCORE.INTER.norm>
-0.77465

>  <SCORE.INTRA>
-1.10582

>  <SCORE.INTRA.DIHEDRAL>
-1.9328

>  <SCORE.INTRA.DIHEDRAL.0>
3.67053

>  <SCORE.INTRA.POLAR>
0

>  <SCORE.INTRA.POLAR.0>
0

>  <SCORE.INTRA.REPUL>
0

>  <SCORE.INTRA.REPUL.0>
0

>  <SCORE.INTRA.SOLV>
-0.479684

>  <SCORE.INTRA.SOLV.lig_0>
-32.0553

>  <SCORE.INTRA.VDW>
0.100419

>  <SCORE.INTRA.VDW.0>
-0.571921

>  <SCORE.INTRA.norm>
-0.110582

>  <SCORE.RESTR>
0

>  <SCORE.RESTR.CAVITY>
0

>  <SCORE.RESTR.norm>
0

>  <SCORE.SYSTEM>
0

>  <SCORE.SYSTEM.CONST>
0

>  <SCORE.SYSTEM.DIHEDRAL>
0

>  <SCORE.SYSTEM.SOLV>
0

>  <SCORE.SYSTEM.norm>
0

>  <SCORE.heavy>
10

>  <SCORE.norm>
-0.885232

>  <RMSD>
2.124

$$$$
ligand
 OpenBabel11021811473D
libRbt.so/2013.1/901 2013/11/27
 10  9  0  0  0  0  0  0  0  0999 V2000
   32.6003   17.5680   22.1205 N   0  0  0  0  0  0  0  0  0  0  0  0
   31.6096   16.5695   21.6177 C   0  0  2  0  0  0  0  0  0  0  0  0
   31.9208   16.1405   20.1900 C   0  0  0  0  0  0  0  0  0  0  0  0
   31.4915   15.0873   19.7317 O   0  0  0  0  0  0  0  0  0  0  0  0
   30.1823   17.1118   21.7266 C   0  0  0  0  0  0  0  0  0  0  0  0
   29.1106   16.0734   21.4424 C   0  0  0  0  0  0  0  0  0  0  0  0
   28.7118   16.0643   19.9719 C   0  0  0  0  0  0  0  0  0  0  0  0
   27.6785   14.9829   19.7021 C   0  0  0  0  0  0  0  0  0  0  0  0
   26.4056   15.1873   20.4812 N   0  0  0  0  0  0  0  0  0  0  0  0
   32.5829   16.8348   19.4307 O   0  0  0  0  0  0  0  0  0  0  0  0
  2  1  1  6  0  0  0
  2  3  1  0  0  0  0
  2  5  1  0  0  0  0
  3  4  1  0  0  0  0
  3 10  1  0  0  0  0
  5  6  1  0  0  0  0
  6  7  1  0  0  0  0
  7  8  1  0  0  0  0
  8  9  1  0  0  0  0
M  END
>  <CHROM.1>
158.87381841,-170.78940685,-91.66001950,177.83577242,61.22270428,30.24611761
16.15370419,20.61113396,0.23658687,0.19635648,1.03507737

>  <Name>
ligand

>  <RI>
0

>  <Rbt.Current_Directory>
/home/itssahil/PROJECTS/Mol_Feturizer/New_Systems/rnas/3DIZ

>  <Rbt.Executable>
rbdock ($Id: //depot/dev/client3/rdock/2013.1/src/exe/rbdock.cxx#4 $)

>  <Rbt.Library>
libRbt.so (2013.1, Build901 2013/11/27)

>  <Rbt.Parameter_File>
/export/apps/rDock/src/rDock_2013.1_src/data/scripts/dock_solv.prm

>  <Rbt.Receptor>
prm/pocket_docking_8.prm

>  <SCORE>
-5.41641

>  <SCORE.INTER>
-5.73423

>  <SCORE.INTER.CONST>
1

>  <SCORE.INTER.POLAR>
0

>  <SCORE.INTER.ROT>
5

>  <SCORE.INTER.SOLV>
16.4206

>  <SCORE.INTER.VDW>
-16.2297

>  <SCORE.INTER.norm>
-0.573423

>  <SCORE.INTRA>
0.317813

>  <SCORE.INTRA.DIHEDRAL>
1.43354

>  <SCORE.INTRA.DIHEDRAL.0>
3.67053

>  <SCORE.INTRA.POLAR>
0

>  <SCORE.INTRA.POLAR.0>
0

>  <SCORE.INTRA.REPUL>
0

>  <SCORE.INTRA.REPUL.0>
0

>  <SCORE.INTRA.SOLV>
-0.732972

>  <SCORE.INTRA.SOLV.lig_0>
-32.0553

>  <SCORE.INTRA.VDW>
-0.0324716

>  <SCORE.INTRA.VDW.0>
-0.571921

>  <SCORE.INTRA.norm>
0.0317813

>  <SCORE.RESTR>
0

>  <SCORE.RESTR.CAVITY>
0

>  <SCORE.RESTR.norm>
0

>  <SCORE.SYSTEM>
0

>  <SCORE.SYSTEM.CONST>
0

>  <SCORE.SYSTEM.DIHEDRAL>
0

>  <SCORE.SYSTEM.SOLV>
0

>  <SCORE.SYSTEM.norm>
0

>  <SCORE.heavy>
10

>  <SCORE.norm>
-0.541641

>  <RMSD>
2.182

$$$$
ligand
 OpenBabel11021811473D
libRbt.so/2013.1/901 2013/11/27
 10  9  0  0  0  0  0  0  0  0999 V2000
   30.0214   16.6108   23.2367 N   0  0  0  0  0  0  0  0  0  0  0  0
   29.5833   15.7931   22.0658 C   0  0  2  0  0  0  0  0  0  0  0  0
   29.9764   16.4459   20.7473 C   0  0  0  0  0  0  0  0  0  0  0  0
   29.5139   17.5297   20.4083 O   0  0  0  0  0  0  0  0  0  0  0  0
   28.0767   15.5275   22.1165 C   0  0  0  0  0  0  0  0  0  0  0  0
   27.5727   14.6479   20.9851 C   0  0  0  0  0  0  0  0  0  0  0  0
   27.4378   15.4280   19.6833 C   0  0  0  0  0  0  0  0  0  0  0  0
   27.2134   14.4851   18.5127 C   0  0  0  0  0  0  0  0  0  0  0  0
   28.3427   13.5052   18.3302 N   0  0  0  0  0  0  0  0  0  0  0  0
   30.7878   15.9380   19.9853 O   0  0  0  0  0  0  0  0  0  0  0  0
  2  1  1  1  0  0  0
  2  3  1  0  0  0  0
  2  5  1  0  0  0  0
  3  4  1  0  0  0  0
  3 10  1  0  0  0  0
  5  6  1  0  0  0  0
  6  7  1  0  0  0  0
  7  8  1  0  0  0  0
  8  9  1  0  0  0  0
M  END
>  <CHROM.1>
-63.96083463,-177.46346556,-77.88741911,168.32479905,-59.91659087,28.86753755
15.60957582,20.58318459,0.93914818,0.57502438,1.32244200

>  <Name>
ligand

>  <RI>
0

>  <Rbt.Current_Directory>
/home/itssahil/PROJECTS/Mol_Feturizer/New_Systems/rnas/3DIZ

>  <Rbt.Executable>
rbdock ($Id: //depot/dev/client3/rdock/2013.1/src/exe/rbdock.cxx#4 $)

>  <Rbt.Library>
libRbt.so (2013.1, Build901 2013/11/27)

>  <Rbt.Parameter_File>
/export/apps/rDock/src/rDock_2013.1_src/data/scripts/dock_solv.prm

>  <Rbt.Receptor>
prm/pocket_docking_7.prm

>  <SCORE>
-5.11832

>  <SCORE.INTER>
-5.06809

>  <SCORE.INTER.CONST>
1

>  <SCORE.INTER.POLAR>
0

>  <SCORE.INTER.ROT>
5

>  <SCORE.INTER.SOLV>
17.1832

>  <SCORE.INTER.VDW>
-16.0398

>  <SCORE.INTER.norm>
-0.506809

>  <SCORE.INTRA>
-0.0502266

>  <SCORE.INTRA.DIHEDRAL>
-0.365266

>  <SCORE.INTRA.DIHEDRAL.0>
3.67053

>  <SCORE.INTRA.POLAR>
0

>  <SCORE.INTRA.POLAR.0>
0

>  <SCORE.INTRA.REPUL>
0

>  <SCORE.INTRA.REPUL.0>
0

>  <SCORE.INTRA.SOLV>
-0.38522

>  <SCORE.INTRA.SOLV.lig_0>
-32.0553

>  <SCORE.INTRA.VDW>
0.325016

>  <SCORE.INTRA.VDW.0>
-0.571921

>  <SCORE.INTRA.norm>
-0.00502266

>  <SCORE.RESTR>
0

>  <SCORE.RESTR.CAVITY>
0

>  <SCORE.RESTR.norm>
0

>  <SCORE.SYSTEM>
0

>  <SCORE.SYSTEM.CONST>
0

>  <SCORE.SYSTEM.DIHEDRAL>
0

>  <SCORE.SYSTEM.SOLV>
0

>  <SCORE.SYSTEM.norm>
0

>  <SCORE.heavy>
10

>  <SCORE.norm>
-0.511832

>  <RMSD>
2.843

$$$$
ligand
 OpenBabel11021811473D
libRbt.so/2013.1/901 2013/11/27
 10  9  0  0  0  0  0  0  0  0999 V2000
   26.7044   14.5467   19.5052 N   0  0  0  0  0  0  0  0  0  0  0  0
   27.9508   15.0325   20.1699 C   0  0  2  0  0  0  0  0  0  0  0  0
   27.9023   14.8199   21.6770 C   0  0  0  0  0  0  0  0  0  0  0  0
   26.9574   15.2201   22.3484 O   0  0  0  0  0  0  0  0  0  0  0  0
   28.2135   16.5025   19.8334 C   0  0  0  0  0  0  0  0  0  0  0  0
   29.6398   16.9471   20.1083 C   0  0  0  0  0  0  0  0  0  0  0  0
   29.9363   16.9946   21.6020 C   0  0  0  0  0  0  0  0  0  0  0  0
   31.3444   17.5081   21.8542 C   0  0  0  0  0  0  0  0  0  0  0  0
   32.4035   16.6187   21.2574 N   0  0  0  0  0  0  0  0  0  0  0  0
   28.7817   14.2188   22.2789 O   0  0  0  0  0  0  0  0  0  0  0  0
  2  1  1  6  0  0  0
  2  3  1  0  0  0  0
  2  5  1  0  0  0  0
  3  4  1  0  0  0  0
  3 10  1  0  0  0  0
  5  6  1  0  0  0  0
  6  7  1  0  0  0  0
  7  8  1  0  0  0  0
  8  9  1  0  0  0  0
M  END
>  <CHROM.1>
-52.32180466,-162.47522237,-69.30203337,-177.15678321,-61.89089002,28.97491292
15.82997759,21.09623187,3.02895925,0.49518863,2.02565586

>  <Name>
ligand

>  <RI>
0

>  <Rbt.Current_Directory>
/home/itssahil/PROJECTS/Mol_Feturizer/New_Systems/rnas/3DIZ

>  <Rbt.Executable>
rbdock ($Id: //depot/dev/client3/rdock/2013.1/src/exe/rbdock.cxx#4 $)

>  <Rbt.Library>
libRbt.so (2013.1, Build901 2013/11/27)

>  <Rbt.Parameter_File>
/export/apps/rDock/src/rDock_2013.1_src/data/scripts/dock_solv.prm

>  <Rbt.Receptor>
prm/pocket_docking_7.prm

>  <SCORE>
-7.81147

>  <SCORE.INTER>
-7.27561

>  <SCORE.INTER.CONST>
1

>  <SCORE.INTER.POLAR>
0

>  <SCORE.INTER.ROT>
5

>  <SCORE.INTER.SOLV>
15.0138

>  <SCORE.INTER.VDW>
-16.7884

>  <SCORE.INTER.norm>
-0.727561

>  <SCORE.INTRA>
-0.535861

>  <SCORE.INTRA.DIHEDRAL>
-0.651403

>  <SCORE.INTRA.DIHEDRAL.0>
3.67053

>  <SCORE.INTRA.POLAR>
0

>  <SCORE.INTRA.POLAR.0>
0

>  <SCORE.INTRA.REPUL>
0

>  <SCORE.INTRA.REPUL.0>
0

>  <SCORE.INTRA.SOLV>
-0.631027

>  <SCORE.INTRA.SOLV.lig_0>
-32.0553

>  <SCORE.INTRA.VDW>
0.105354

>  <SCORE.INTRA.VDW.0>
-0.571921

>  <SCORE.INTRA.norm>
-0.0535861

>  <SCORE.RESTR>
0

>  <SCORE.RESTR.CAVITY>
0

>  <SCORE.RESTR.norm>
0

>  <SCORE.SYSTEM>
0

>  <SCORE.SYSTEM.CONST>
0

>  <SCORE.SYSTEM.DIHEDRAL>
0

>  <SCORE.SYSTEM.SOLV>
0

>  <SCORE.SYSTEM.norm>
0

>  <SCORE.heavy>
10

>  <SCORE.norm>
-0.781147

>  <RMSD>
4.801

$$$$
ligand
 OpenBabel11021811473D
libRbt.so/2013.1/901 2013/11/27
 10  9  0  0  0  0  0  0  0  0999 V2000
   26.9775   14.3448   19.5343 N   0  0  0  0  0  0  0  0  0  0  0  0
   28.1804   14.8902   20.2323 C   0  0  2  0  0  0  0  0  0  0  0  0
   27.9920   14.9082   21.7434 C   0  0  0  0  0  0  0  0  0  0  0  0
   28.9071   14.6140   22.5047 O   0  0  0  0  0  0  0  0  0  0  0  0
   28.5318   16.2850   19.7087 C   0  0  0  0  0  0  0  0  0  0  0  0
   29.7326   16.9114   20.3965 C   0  0  0  0  0  0  0  0  0  0  0  0
   30.9673   16.0250   20.2907 C   0  0  0  0  0  0  0  0  0  0  0  0
   32.1927   16.7438   20.8308 C   0  0  0  0  0  0  0  0  0  0  0  0
   32.0589   17.1084   22.2861 N   0  0  0  0  0  0  0  0  0  0  0  0
   26.9368   15.2430   22.2645 O   0  0  0  0  0  0  0  0  0  0  0  0
  2  1  1  6  0  0  0
  2  3  1  0  0  0  0
  2  5  1  0  0  0  0
  3  4  1  0  0  0  0
  3 10  1  0  0  0  0
  5  6  1  0  0  0  0
  6  7  1  0  0  0  0
  7  8  1  0  0  0  0
  8  9  1  0  0  0  0
M  END
>  <CHROM.1>
140.41259290,178.87600985,56.55497767,172.95824967,61.13990063,29.23612867
15.70285181,21.01292190,3.12710370,0.42885121,1.73060923

>  <Name>
ligand

>  <RI>
0

>  <Rbt.Current_Directory>
/home/itssahil/PROJECTS/Mol_Feturizer/New_Systems/rnas/3DIZ

>  <Rbt.Executable>
rbdock ($Id: //depot/dev/client3/rdock/2013.1/src/exe/rbdock.cxx#4 $)

>  <Rbt.Library>
libRbt.so (2013.1, Build901 2013/11/27)

>  <Rbt.Parameter_File>
/export/apps/rDock/src/rDock_2013.1_src/data/scripts/dock_solv.prm

>  <Rbt.Receptor>
prm/pocket_docking_3.prm

>  <SCORE>
-8.57157

>  <SCORE.INTER>
-7.63137

>  <SCORE.INTER.CONST>
1

>  <SCORE.INTER.POLAR>
0

>  <SCORE.INTER.ROT>
5

>  <SCORE.INTER.SOLV>
14.1923

>  <SCORE.INTER.VDW>
-16.7517

>  <SCORE.INTER.norm>
-0.763137

>  <SCORE.INTRA>
-0.940204

>  <SCORE.INTRA.DIHEDRAL>
-1.95198

>  <SCORE.INTRA.DIHEDRAL.0>
3.67053

>  <SCORE.INTRA.POLAR>
0

>  <SCORE.INTRA.POLAR.0>
0

>  <SCORE.INTRA.REPUL>
0

>  <SCORE.INTRA.REPUL.0>
0

>  <SCORE.INTRA.SOLV>
-0.531627

>  <SCORE.INTRA.SOLV.lig_0>
-32.0553

>  <SCORE.INTRA.VDW>
0.301598

>  <SCORE.INTRA.VDW.0>
-0.571921

>  <SCORE.INTRA.norm>
-0.0940204

>  <SCORE.RESTR>
0

>  <SCORE.RESTR.CAVITY>
0

>  <SCORE.RESTR.norm>
0

>  <SCORE.SYSTEM>
0

>  <SCORE.SYSTEM.CONST>
0

>  <SCORE.SYSTEM.DIHEDRAL>
0

>  <SCORE.SYSTEM.SOLV>
0

>  <SCORE.SYSTEM.norm>
0

>  <SCORE.heavy>
10

>  <SCORE.norm>
-0.857157

>  <RMSD>
4.804

$$$$
ligand
 OpenBabel11021811473D
libRbt.so/2013.1/901 2013/11/27
 10  9  0  0  0  0  0  0  0  0999 V2000
   27.3163   14.8574   19.3982 N   0  0  0  0  0  0  0  0  0  0  0  0
   28.4547   15.2437   20.2849 C   0  0  2  0  0  0  0  0  0  0  0  0
   28.1480   14.9569   21.7487 C   0  0  0  0  0  0  0  0  0  0  0  0
   29.0041   14.5120   22.5054 O   0  0  0  0  0  0  0  0  0  0  0  0
   28.8315   16.7135   20.0831 C   0  0  0  0  0  0  0  0  0  0  0  0
   30.0895   17.1296   20.8261 C   0  0  0  0  0  0  0  0  0  0  0  0
   31.3114   16.3620   20.3372 C   0  0  0  0  0  0  0  0  0  0  0  0
   32.5845   16.9469   20.9263 C   0  0  0  0  0  0  0  0  0  0  0  0
   32.6013   16.9057   22.4319 N   0  0  0  0  0  0  0  0  0  0  0  0
   27.0510   15.1833   22.2409 O   0  0  0  0  0  0  0  0  0  0  0  0
  2  1  1  6  0  0  0
  2  3  1  0  0  0  0
  2  5  1  0  0  0  0
  3  4  1  0  0  0  0
  3 10  1  0  0  0  0
  5  6  1  0  0  0  0
  6  7  1  0  0  0  0
  7  8  1  0  0  0  0
  8  9  1  0  0  0  0
M  END
>  <CHROM.1>
140.53765865,-172.88303311,62.51553132,170.78740007,59.75905767,29.52446840
15.86995307,21.11059362,3.06529710,0.38699394,1.90124078

>  <Name>
ligand

>  <RI>
0

>  <Rbt.Current_Directory>
/home/itssahil/PROJECTS/Mol_Feturizer/New_Systems/rnas/3DIZ

>  <Rbt.Executable>
rbdock ($Id: //depot/dev/client3/rdock/2013.1/src/exe/rbdock.cxx#4 $)

>  <Rbt.Library>
libRbt.so (2013.1, Build901 2013/11/27)

>  <Rbt.Parameter_File>
/export/apps/rDock/src/rDock_2013.1_src/data/scripts/dock_solv.prm

>  <Rbt.Receptor>
prm/pocket_docking_8.prm

>  <SCORE>
-8.52609

>  <SCORE.INTER>
-7.4757

>  <SCORE.INTER.CONST>
1

>  <SCORE.INTER.POLAR>
0

>  <SCORE.INTER.ROT>
5

>  <SCORE.INTER.SOLV>
14.1819

>  <SCORE.INTER.VDW>
-16.6444

>  <SCORE.INTER.norm>
-0.74757

>  <SCORE.INTRA>
-1.05039

>  <SCORE.INTRA.DIHEDRAL>
-1.66239

>  <SCORE.INTRA.DIHEDRAL.0>
3.67053

>  <SCORE.INTRA.POLAR>
0

>  <SCORE.INTRA.POLAR.0>
0

>  <SCORE.INTRA.REPUL>
0

>  <SCORE.INTRA.REPUL.0>
0

>  <SCORE.INTRA.SOLV>
-0.500074

>  <SCORE.INTRA.SOLV.lig_0>
-32.0553

>  <SCORE.INTRA.VDW>
0.0308428

>  <SCORE.INTRA.VDW.0>
-0.571921

>  <SCORE.INTRA.norm>
-0.105039

>  <SCORE.RESTR>
0

>  <SCORE.RESTR.CAVITY>
0

>  <SCORE.RESTR.norm>
0

>  <SCORE.SYSTEM>
0

>  <SCORE.SYSTEM.CONST>
0

>  <SCORE.SYSTEM.DIHEDRAL>
0

>  <SCORE.SYSTEM.SOLV>
0

>  <SCORE.SYSTEM.norm>
0

>  <SCORE.heavy>
10

>  <SCORE.norm>
-0.852609

>  <RMSD>
4.820

$$$$
ligand
 OpenBabel11021811473D
libRbt.so/2013.1/901 2013/11/27
 10  9  0  0  0  0  0  0  0  0999 V2000
   29.2430   14.4702   19.3129 N   0  0  0  0  0  0  0  0  0  0  0  0
   28.1930   14.3966   20.3729 C   0  0  2  0  0  0  0  0  0  0  0  0
   27.1780   15.5237   20.2363 C   0  0  0  0  0  0  0  0  0  0  0  0
   27.4982   16.6212   19.7930 O   0  0  0  0  0  0  0  0  0  0  0  0
   28.8228   14.3944   21.7681 C   0  0  0  0  0  0  0  0  0  0  0  0
   30.0884   15.2285   21.8688 C   0  0  0  0  0  0  0  0  0  0  0  0
   29.8051   16.7094   21.6493 C   0  0  0  0  0  0  0  0  0  0  0  0
   31.0414   17.5425   21.9450 C   0  0  0  0  0  0  0  0  0  0  0  0
   32.2226   17.1524   21.0957 N   0  0  0  0  0  0  0  0  0  0  0  0
   25.9996   15.3786   20.5318 O   0  0  0  0  0  0  0  0  0  0  0  0
  2  1  1  6  0  0  0
  2  3  1  0  0  0  0
  2  5  1  0  0  0  0
  3  4  1  0  0  0  0
  3 10  1  0  0  0  0
  5  6  1  0  0  0  0
  6  7  1  0  0  0  0
  7  8  1  0  0  0  0
  8  9  1  0  0  0  0
M  END
>  <CHROM.1>
-31.59534015,33.91103395,65.12961857,172.08686802,58.34527558,28.97751267
15.76167198,20.85046379,-2.77241906,-0.28909291,0.03498761

>  <Name>
ligand

>  <RI>
0

>  <Rbt.Current_Directory>
/home/itssahil/PROJECTS/Mol_Feturizer/New_Systems/rnas/3DIZ

>  <Rbt.Executable>
rbdock ($Id: //depot/dev/client3/rdock/2013.1/src/exe/rbdock.cxx#4 $)

>  <Rbt.Library>
libRbt.so (2013.1, Build901 2013/11/27)

>  <Rbt.Parameter_File>
/export/apps/rDock/src/rDock_2013.1_src/data/scripts/dock_solv.prm

>  <Rbt.Receptor>
prm/pocket_docking_7.prm

>  <SCORE>
-7.32989

>  <SCORE.INTER>
-8.86742

>  <SCORE.INTER.CONST>
1

>  <SCORE.INTER.POLAR>
0

>  <SCORE.INTER.ROT>
5

>  <SCORE.INTER.SOLV>
12.7448

>  <SCORE.INTER.VDW>
-17.0932

>  <SCORE.INTER.norm>
-0.886742

>  <SCORE.INTRA>
1.53754

>  <SCORE.INTRA.DIHEDRAL>
0.606525

>  <SCORE.INTRA.DIHEDRAL.0>
3.67053

>  <SCORE.INTRA.POLAR>
0

>  <SCORE.INTRA.POLAR.0>
0

>  <SCORE.INTRA.REPUL>
0

>  <SCORE.INTRA.REPUL.0>
0

>  <SCORE.INTRA.SOLV>
1.38924

>  <SCORE.INTRA.SOLV.lig_0>
-32.0553

>  <SCORE.INTRA.VDW>
0.539655

>  <SCORE.INTRA.VDW.0>
-0.571921

>  <SCORE.INTRA.norm>
0.153754

>  <SCORE.RESTR>
0

>  <SCORE.RESTR.CAVITY>
0

>  <SCORE.RESTR.norm>
0

>  <SCORE.SYSTEM>
0

>  <SCORE.SYSTEM.CONST>
0

>  <SCORE.SYSTEM.DIHEDRAL>
0

>  <SCORE.SYSTEM.SOLV>
0

>  <SCORE.SYSTEM.norm>
0

>  <SCORE.heavy>
10

>  <SCORE.norm>
-0.732989

>  <RMSD>
4.868

$$$$
ligand
 OpenBabel11021811473D
libRbt.so/2013.1/901 2013/11/27
 10  9  0  0  0  0  0  0  0  0999 V2000
   26.9167   15.1136   19.2755 N   0  0  0  0  0  0  0  0  0  0  0  0
   28.1556   15.2882   20.0917 C   0  0  2  0  0  0  0  0  0  0  0  0
   27.9460   14.8407   21.5321 C   0  0  0  0  0  0  0  0  0  0  0  0
   28.7570   14.1178   22.1007 O   0  0  0  0  0  0  0  0  0  0  0  0
   28.6487   16.7363   20.0355 C   0  0  0  0  0  0  0  0  0  0  0  0
   30.1209   16.8943   20.3751 C   0  0  0  0  0  0  0  0  0  0  0  0
   30.4002   16.5615   21.8355 C   0  0  0  0  0  0  0  0  0  0  0  0
   31.8947   16.5690   22.1119 C   0  0  0  0  0  0  0  0  0  0  0  0
   32.5026   17.9414   21.9868 N   0  0  0  0  0  0  0  0  0  0  0  0
   26.9823   15.2027   22.1933 O   0  0  0  0  0  0  0  0  0  0  0  0
  2  1  1  6  0  0  0
  2  3  1  0  0  0  0
  2  5  1  0  0  0  0
  3  4  1  0  0  0  0
  3 10  1  0  0  0  0
  5  6  1  0  0  0  0
  6  7  1  0  0  0  0
  7  8  1  0  0  0  0
  8  9  1  0  0  0  0
M  END
>  <CHROM.1>
132.98319015,-158.26301945,-67.08373457,173.41224038,66.71154567,29.22028937
15.91103618,21.18390799,3.08925544,0.51004162,2.11150192

>  <Name>
ligand

>  <RI>
0

>  <Rbt.Current_Directory>
/home/itssahil/PROJECTS/Mol_Feturizer/New_Systems/rnas/3DIZ

>  <Rbt.Executable>
rbdock ($Id: //depot/dev/client3/rdock/2013.1/src/exe/rbdock.cxx#4 $)

>  <Rbt.Library>
libRbt.so (2013.1, Build901 2013/11/27)

>  <Rbt.Parameter_File>
/export/apps/rDock/src/rDock_2013.1_src/data/scripts/dock_solv.prm

>  <Rbt.Receptor>
prm/pocket_docking_8.prm

>  <SCORE>
-7.50793

>  <SCORE.INTER>
-7.29301

>  <SCORE.INTER.CONST>
1

>  <SCORE.INTER.POLAR>
0

>  <SCORE.INTER.ROT>
5

>  <SCORE.INTER.SOLV>
14.806

>  <SCORE.INTER.VDW>
-16.7307

>  <SCORE.INTER.norm>
-0.729301

>  <SCORE.INTRA>
-0.214925

>  <SCORE.INTRA.DIHEDRAL>
-0.0142966

>  <SCORE.INTRA.DIHEDRAL.0>
3.67053

>  <SCORE.INTRA.POLAR>
0

>  <SCORE.INTRA.POLAR.0>
0

>  <SCORE.INTRA.REPUL>
0

>  <SCORE.INTRA.REPUL.0>
0

>  <SCORE.INTRA.SOLV>
-0.712534

>  <SCORE.INTRA.SOLV.lig_0>
-32.0553

>  <SCORE.INTRA.VDW>
0.14849

>  <SCORE.INTRA.VDW.0>
-0.571921

>  <SCORE.INTRA.norm>
-0.0214925

>  <SCORE.RESTR>
0

>  <SCORE.RESTR.CAVITY>
0

>  <SCORE.RESTR.norm>
0

>  <SCORE.SYSTEM>
0

>  <SCORE.SYSTEM.CONST>
0

>  <SCORE.SYSTEM.DIHEDRAL>
0

>  <SCORE.SYSTEM.SOLV>
0

>  <SCORE.SYSTEM.norm>
0

>  <SCORE.heavy>
10

>  <SCORE.norm>
-0.750793

>  <RMSD>
4.881

$$$$
ligand
 OpenBabel11021811473D
libRbt.so/2013.1/901 2013/11/27
 10  9  0  0  0  0  0  0  0  0999 V2000
   27.8320   14.2019   18.5360 N   0  0  0  0  0  0  0  0  0  0  0  0
   28.1721   14.3879   19.9786 C   0  0  2  0  0  0  0  0  0  0  0  0
   27.1863   15.3190   20.6718 C   0  0  0  0  0  0  0  0  0  0  0  0
   26.7883   16.3449   20.1309 O   0  0  0  0  0  0  0  0  0  0  0  0
   29.6080   14.8925   20.1420 C   0  0  0  0  0  0  0  0  0  0  0  0
   30.0974   14.8882   21.5801 C   0  0  0  0  0  0  0  0  0  0  0  0
   29.6742   16.1499   22.3221 C   0  0  0  0  0  0  0  0  0  0  0  0
   30.3994   17.3664   21.7706 C   0  0  0  0  0  0  0  0  0  0  0  0
   31.8887   17.3032   21.9866 N   0  0  0  0  0  0  0  0  0  0  0  0
   26.7265   15.0736   21.7788 O   0  0  0  0  0  0  0  0  0  0  0  0
  2  1  1  6  0  0  0
  2  3  1  0  0  0  0
  2  5  1  0  0  0  0
  3  4  1  0  0  0  0
  3 10  1  0  0  0  0
  5  6  1  0  0  0  0
  6  7  1  0  0  0  0
  7  8  1  0  0  0  0
  8  9  1  0  0  0  0
M  END
>  <CHROM.1>
-42.22886937,-170.55894178,-84.31899637,-68.22473877,-64.15715042,28.80719025
15.60847369,20.90139050,-2.51712858,0.04314649,0.86628379

>  <Name>
ligand

>  <RI>
0

>  <Rbt.Current_Directory>
/home/itssahil/PROJECTS/Mol_Feturizer/New_Systems/rnas/3DIZ

>  <Rbt.Executable>
rbdock ($Id: //depot/dev/client3/rdock/2013.1/src/exe/rbdock.cxx#4 $)

>  <Rbt.Library>
libRbt.so (2013.1, Build901 2013/11/27)

>  <Rbt.Parameter_File>
/export/apps/rDock/src/rDock_2013.1_src/data/scripts/dock_solv.prm

>  <Rbt.Receptor>
prm/pocket_docking_5.prm

>  <SCORE>
-6.92349

>  <SCORE.INTER>
-7.5117

>  <SCORE.INTER.CONST>
1

>  <SCORE.INTER.POLAR>
0

>  <SCORE.INTER.ROT>
5

>  <SCORE.INTER.SOLV>
13.2928

>  <SCORE.INTER.VDW>
-16.3721

>  <SCORE.INTER.norm>
-0.75117

>  <SCORE.INTRA>
0.588213

>  <SCORE.INTRA.DIHEDRAL>
0.709411

>  <SCORE.INTRA.DIHEDRAL.0>
3.67053

>  <SCORE.INTRA.POLAR>
0

>  <SCORE.INTRA.POLAR.0>
0

>  <SCORE.INTRA.REPUL>
0

>  <SCORE.INTRA.REPUL.0>
0

>  <SCORE.INTRA.SOLV>
-0.213517

>  <SCORE.INTRA.SOLV.lig_0>
-32.0553

>  <SCORE.INTRA.VDW>
0.340265

>  <SCORE.INTRA.VDW.0>
-0.571921

>  <SCORE.INTRA.norm>
0.0588213

>  <SCORE.RESTR>
0

>  <SCORE.RESTR.CAVITY>
0

>  <SCORE.RESTR.norm>
0

>  <SCORE.SYSTEM>
0

>  <SCORE.SYSTEM.CONST>
0

>  <SCORE.SYSTEM.DIHEDRAL>
0

>  <SCORE.SYSTEM.SOLV>
0

>  <SCORE.SYSTEM.norm>
0

>  <SCORE.heavy>
10

>  <SCORE.norm>
-0.692349

>  <RMSD>
4.901

$$$$
ligand
 OpenBabel11021811473D
libRbt.so/2013.1/901 2013/11/27
 10  9  0  0  0  0  0  0  0  0999 V2000
   25.9327   15.1029   20.7066 N   0  0  0  0  0  0  0  0  0  0  0  0
   27.3554   15.5579   20.7220 C   0  0  2  0  0  0  0  0  0  0  0  0
   27.8464   15.9113   19.3244 C   0  0  0  0  0  0  0  0  0  0  0  0
   28.4805   16.9389   19.1111 O   0  0  0  0  0  0  0  0  0  0  0  0
   28.2597   14.5061   21.3694 C   0  0  0  0  0  0  0  0  0  0  0  0
   29.7297   14.8888   21.3830 C   0  0  0  0  0  0  0  0  0  0  0  0
   29.9851   16.1097   22.2581 C   0  0  0  0  0  0  0  0  0  0  0  0
   31.4624   16.4666   22.2644 C   0  0  0  0  0  0  0  0  0  0  0  0
   31.9629   16.8963   20.9103 N   0  0  0  0  0  0  0  0  0  0  0  0
   27.6587   15.1780   18.3631 O   0  0  0  0  0  0  0  0  0  0  0  0
  2  1  1  6  0  0  0
  2  3  1  0  0  0  0
  2  5  1  0  0  0  0
  3  4  1  0  0  0  0
  3 10  1  0  0  0  0
  5  6  1  0  0  0  0
  6  7  1  0  0  0  0
  7  8  1  0  0  0  0
  8  9  1  0  0  0  0
M  END
>  <CHROM.1>
134.28778693,178.38665553,65.17252757,179.57022432,64.70928204,28.87040702
15.76324034,20.60620408,2.81166422,-0.38861520,-1.18403640

>  <Name>
ligand

>  <RI>
0

>  <Rbt.Current_Directory>
/home/itssahil/PROJECTS/Mol_Feturizer/New_Systems/rnas/3DIZ

>  <Rbt.Executable>
rbdock ($Id: //depot/dev/client3/rdock/2013.1/src/exe/rbdock.cxx#4 $)

>  <Rbt.Library>
libRbt.so (2013.1, Build901 2013/11/27)

>  <Rbt.Parameter_File>
/export/apps/rDock/src/rDock_2013.1_src/data/scripts/dock_solv.prm

>  <Rbt.Receptor>
prm/pocket_docking_8.prm

>  <SCORE>
-8.77798

>  <SCORE.INTER>
-7.51246

>  <SCORE.INTER.CONST>
1

>  <SCORE.INTER.POLAR>
0

>  <SCORE.INTER.ROT>
5

>  <SCORE.INTER.SOLV>
17.2482

>  <SCORE.INTER.VDW>
-17.691

>  <SCORE.INTER.norm>
-0.751246

>  <SCORE.INTRA>
-1.26552

>  <SCORE.INTRA.DIHEDRAL>
-1.99669

>  <SCORE.INTRA.DIHEDRAL.0>
3.67053

>  <SCORE.INTRA.POLAR>
0

>  <SCORE.INTRA.POLAR.0>
0

>  <SCORE.INTRA.REPUL>
0

>  <SCORE.INTRA.REPUL.0>
0

>  <SCORE.INTRA.SOLV>
-0.552614

>  <SCORE.INTRA.SOLV.lig_0>
-32.0553

>  <SCORE.INTRA.VDW>
0.00913401

>  <SCORE.INTRA.VDW.0>
-0.571921

>  <SCORE.INTRA.norm>
-0.126552

>  <SCORE.RESTR>
0

>  <SCORE.RESTR.CAVITY>
0

>  <SCORE.RESTR.norm>
0

>  <SCORE.SYSTEM>
0

>  <SCORE.SYSTEM.CONST>
0

>  <SCORE.SYSTEM.DIHEDRAL>
0

>  <SCORE.SYSTEM.SOLV>
0

>  <SCORE.SYSTEM.norm>
0

>  <SCORE.heavy>
10

>  <SCORE.norm>
-0.877798

>  <RMSD>
4.982

$$$$
ligand
 OpenBabel11021811473D
libRbt.so/2013.1/901 2013/11/27
 10  9  0  0  0  0  0  0  0  0999 V2000
   25.9656   15.0999   20.7227 N   0  0  0  0  0  0  0  0  0  0  0  0
   27.3915   15.5448   20.7113 C   0  0  2  0  0  0  0  0  0  0  0  0
   27.8559   15.9039   19.3062 C   0  0  0  0  0  0  0  0  0  0  0  0
   27.6500   15.1576   18.3553 O   0  0  0  0  0  0  0  0  0  0  0  0
   28.3015   14.4823   21.3329 C   0  0  0  0  0  0  0  0  0  0  0  0
   29.7734   14.8577   21.3249 C   0  0  0  0  0  0  0  0  0  0  0  0
   30.0587   16.0352   22.2488 C   0  0  0  0  0  0  0  0  0  0  0  0
   31.5363   16.3904   22.2259 C   0  0  0  0  0  0  0  0  0  0  0  0
   31.9940   16.8890   20.8802 N   0  0  0  0  0  0  0  0  0  0  0  0
   28.4246   16.9583   19.0575 O   0  0  0  0  0  0  0  0  0  0  0  0
  2  1  1  6  0  0  0
  2  3  1  0  0  0  0
  2  5  1  0  0  0  0
  3  4  1  0  0  0  0
  3 10  1  0  0  0  0
  5  6  1  0  0  0  0
  6  7  1  0  0  0  0
  7  8  1  0  0  0  0
  8  9  1  0  0  0  0
M  END
>  <CHROM.1>
-48.34582835,178.68990872,67.36269348,179.90307997,64.93533371,28.89674638
15.73983357,20.58116038,2.81641020,-0.38230691,-1.15712374

>  <Name>
ligand

>  <RI>
0

>  <Rbt.Current_Directory>
/home/itssahil/PROJECTS/Mol_Feturizer/New_Systems/rnas/3DIZ

>  <Rbt.Executable>
rbdock ($Id: //depot/dev/client3/rdock/2013.1/src/exe/rbdock.cxx#4 $)

>  <Rbt.Library>
libRbt.so (2013.1, Build901 2013/11/27)

>  <Rbt.Parameter_File>
/export/apps/rDock/src/rDock_2013.1_src/data/scripts/dock_solv.prm

>  <Rbt.Receptor>
prm/pocket_docking_4.prm

>  <SCORE>
-8.78587

>  <SCORE.INTER>
-7.55464

>  <SCORE.INTER.CONST>
1

>  <SCORE.INTER.POLAR>
0

>  <SCORE.INTER.ROT>
5

>  <SCORE.INTER.SOLV>
17.3346

>  <SCORE.INTER.VDW>
-17.748

>  <SCORE.INTER.norm>
-0.755464

>  <SCORE.INTRA>
-1.23123

>  <SCORE.INTRA.DIHEDRAL>
-1.81128

>  <SCORE.INTRA.DIHEDRAL.0>
3.67053

>  <SCORE.INTRA.POLAR>
0

>  <SCORE.INTRA.POLAR.0>
0

>  <SCORE.INTRA.REPUL>
0

>  <SCORE.INTRA.REPUL.0>
0

>  <SCORE.INTRA.SOLV>
-0.599822

>  <SCORE.INTRA.SOLV.lig_0>
-32.0553

>  <SCORE.INTRA.VDW>
-0.0256795

>  <SCORE.INTRA.VDW.0>
-0.571921

>  <SCORE.INTRA.norm>
-0.123123

>  <SCORE.RESTR>
0

>  <SCORE.RESTR.CAVITY>
0

>  <SCORE.RESTR.norm>
0

>  <SCORE.SYSTEM>
0

>  <SCORE.SYSTEM.CONST>
0

>  <SCORE.SYSTEM.DIHEDRAL>
0

>  <SCORE.SYSTEM.SOLV>
0

>  <SCORE.SYSTEM.norm>
0

>  <SCORE.heavy>
10

>  <SCORE.norm>
-0.878587

>  <RMSD>
4.989

$$$$
ligand
 OpenBabel11021811473D
libRbt.so/2013.1/901 2013/11/27
 10  9  0  0  0  0  0  0  0  0999 V2000
   25.8726   15.6219   19.8858 N   0  0  0  0  0  0  0  0  0  0  0  0
   27.3268   15.3652   20.1115 C   0  0  2  0  0  0  0  0  0  0  0  0
   27.9155   14.4787   19.0221 C   0  0  0  0  0  0  0  0  0  0  0  0
   27.2105   13.7201   18.3656 O   0  0  0  0  0  0  0  0  0  0  0  0
   27.5676   14.7613   21.4972 C   0  0  0  0  0  0  0  0  0  0  0  0
   29.0365   14.6461   21.8669 C   0  0  0  0  0  0  0  0  0  0  0  0
   29.5912   15.9668   22.3860 C   0  0  0  0  0  0  0  0  0  0  0  0
   29.8439   16.9314   21.2390 C   0  0  0  0  0  0  0  0  0  0  0  0
   30.9513   16.4729   20.3266 N   0  0  0  0  0  0  0  0  0  0  0  0
   29.1042   14.5037   18.7333 O   0  0  0  0  0  0  0  0  0  0  0  0
  2  1  1  6  0  0  0
  2  3  1  0  0  0  0
  2  5  1  0  0  0  0
  3  4  1  0  0  0  0
  3 10  1  0  0  0  0
  5  6  1  0  0  0  0
  6  7  1  0  0  0  0
  7  8  1  0  0  0  0
  8  9  1  0  0  0  0
M  END
>  <CHROM.1>
-23.80503147,-172.29075051,81.56187024,-76.59518359,-66.85896868,28.44956227
15.22496847,20.31386433,2.37250221,-0.25288786,-1.93739369

>  <Name>
ligand

>  <RI>
0

>  <Rbt.Current_Directory>
/home/itssahil/PROJECTS/Mol_Feturizer/New_Systems/rnas/3DIZ

>  <Rbt.Executable>
rbdock ($Id: //depot/dev/client3/rdock/2013.1/src/exe/rbdock.cxx#4 $)

>  <Rbt.Library>
libRbt.so (2013.1, Build901 2013/11/27)

>  <Rbt.Parameter_File>
/export/apps/rDock/src/rDock_2013.1_src/data/scripts/dock_solv.prm

>  <Rbt.Receptor>
prm/pocket_docking_3.prm

>  <SCORE>
-6.65706

>  <SCORE.INTER>
-7.84654

>  <SCORE.INTER.CONST>
1

>  <SCORE.INTER.POLAR>
0

>  <SCORE.INTER.ROT>
5

>  <SCORE.INTER.SOLV>
16.5861

>  <SCORE.INTER.VDW>
-17.6931

>  <SCORE.INTER.norm>
-0.784654

>  <SCORE.INTRA>
1.18948

>  <SCORE.INTRA.DIHEDRAL>
1.11759

>  <SCORE.INTRA.DIHEDRAL.0>
3.67053

>  <SCORE.INTRA.POLAR>
0

>  <SCORE.INTRA.POLAR.0>
0

>  <SCORE.INTRA.REPUL>
0

>  <SCORE.INTRA.REPUL.0>
0

>  <SCORE.INTRA.SOLV>
1.20435

>  <SCORE.INTRA.SOLV.lig_0>
-32.0553

>  <SCORE.INTRA.VDW>
0.0285156

>  <SCORE.INTRA.VDW.0>
-0.571921

>  <SCORE.INTRA.norm>
0.118948

>  <SCORE.RESTR>
0

>  <SCORE.RESTR.CAVITY>
0

>  <SCORE.RESTR.norm>
0

>  <SCORE.SYSTEM>
0

>  <SCORE.SYSTEM.CONST>
0

>  <SCORE.SYSTEM.DIHEDRAL>
0

>  <SCORE.SYSTEM.SOLV>
0

>  <SCORE.SYSTEM.norm>
0

>  <SCORE.heavy>
10

>  <SCORE.norm>
-0.665706

>  <RMSD>
4.996

$$$$
ligand
 OpenBabel11021811473D
libRbt.so/2013.1/901 2013/11/27
 10  9  0  0  0  0  0  0  0  0999 V2000
   25.8827   14.8988   20.6936 N   0  0  0  0  0  0  0  0  0  0  0  0
   27.2017   15.5691   20.8991 C   0  0  2  0  0  0  0  0  0  0  0  0
   27.8280   15.9922   19.5770 C   0  0  0  0  0  0  0  0  0  0  0  0
   28.3833   17.0783   19.4520 O   0  0  0  0  0  0  0  0  0  0  0  0
   28.1544   14.6712   21.6926 C   0  0  0  0  0  0  0  0  0  0  0  0
   29.3379   15.4129   22.2900 C   0  0  0  0  0  0  0  0  0  0  0  0
   30.4074   15.7012   21.2439 C   0  0  0  0  0  0  0  0  0  0  0  0
   31.5732   16.4561   21.8612 C   0  0  0  0  0  0  0  0  0  0  0  0
   32.6519   16.7796   20.8610 N   0  0  0  0  0  0  0  0  0  0  0  0
   27.8324   15.2624   18.5951 O   0  0  0  0  0  0  0  0  0  0  0  0
  2  1  1  6  0  0  0
  2  3  1  0  0  0  0
  2  5  1  0  0  0  0
  3  4  1  0  0  0  0
  3 10  1  0  0  0  0
  5  6  1  0  0  0  0
  6  7  1  0  0  0  0
  7  8  1  0  0  0  0
  8  9  1  0  0  0  0
M  END
>  <CHROM.1>
138.18362667,-162.91821004,-77.88186438,179.38521517,-179.32488978,28.93031120
15.79153810,20.68418150,2.98342814,-0.30311262,-1.17725938

>  <Name>
ligand

>  <RI>
0

>  <Rbt.Current_Directory>
/home/itssahil/PROJECTS/Mol_Feturizer/New_Systems/rnas/3DIZ

>  <Rbt.Executable>
rbdock ($Id: //depot/dev/client3/rdock/2013.1/src/exe/rbdock.cxx#4 $)

>  <Rbt.Library>
libRbt.so (2013.1, Build901 2013/11/27)

>  <Rbt.Parameter_File>
/export/apps/rDock/src/rDock_2013.1_src/data/scripts/dock_solv.prm

>  <Rbt.Receptor>
prm/blind_docking_60.prm

>  <SCORE>
-8.69124

>  <SCORE.INTER>
-7.61724

>  <SCORE.INTER.CONST>
1

>  <SCORE.INTER.POLAR>
0

>  <SCORE.INTER.ROT>
5

>  <SCORE.INTER.SOLV>
18.6042

>  <SCORE.INTER.VDW>
-18.2129

>  <SCORE.INTER.norm>
-0.761724

>  <SCORE.INTRA>
-1.074

>  <SCORE.INTRA.DIHEDRAL>
0.0764171

>  <SCORE.INTRA.DIHEDRAL.0>
3.67053

>  <SCORE.INTRA.POLAR>
0

>  <SCORE.INTRA.POLAR.0>
0

>  <SCORE.INTRA.REPUL>
0

>  <SCORE.INTRA.REPUL.0>
0

>  <SCORE.INTRA.SOLV>
-1.63299

>  <SCORE.INTRA.SOLV.lig_0>
-32.0553

>  <SCORE.INTRA.VDW>
-0.295714

>  <SCORE.INTRA.VDW.0>
-0.571921

>  <SCORE.INTRA.norm>
-0.1074

>  <SCORE.RESTR>
0

>  <SCORE.RESTR.CAVITY>
0

>  <SCORE.RESTR.norm>
0

>  <SCORE.SYSTEM>
0

>  <SCORE.SYSTEM.CONST>
0

>  <SCORE.SYSTEM.DIHEDRAL>
0

>  <SCORE.SYSTEM.SOLV>
0

>  <SCORE.SYSTEM.norm>
0

>  <SCORE.heavy>
10

>  <SCORE.norm>
-0.869124

>  <RMSD>
5.002

$$$$
ligand
 OpenBabel11021811473D
libRbt.so/2013.1/901 2013/11/27
 10  9  0  0  0  0  0  0  0  0999 V2000
   25.8758   14.9144   20.6959 N   0  0  0  0  0  0  0  0  0  0  0  0
   27.1935   15.5875   20.9011 C   0  0  2  0  0  0  0  0  0  0  0  0
   27.8215   16.0063   19.5784 C   0  0  0  0  0  0  0  0  0  0  0  0
   28.3785   17.0912   19.4510 O   0  0  0  0  0  0  0  0  0  0  0  0
   28.1461   14.6943   21.6998 C   0  0  0  0  0  0  0  0  0  0  0  0
   29.3319   15.4386   22.2892 C   0  0  0  0  0  0  0  0  0  0  0  0
   30.4032   15.7105   21.2404 C   0  0  0  0  0  0  0  0  0  0  0  0
   31.5690   16.4729   21.8483 C   0  0  0  0  0  0  0  0  0  0  0  0
   32.6461   16.7868   20.8433 N   0  0  0  0  0  0  0  0  0  0  0  0
   27.8257   15.2738   18.5984 O   0  0  0  0  0  0  0  0  0  0  0  0
  2  1  1  6  0  0  0
  2  3  1  0  0  0  0
  2  5  1  0  0  0  0
  3  4  1  0  0  0  0
  3 10  1  0  0  0  0
  5  6  1  0  0  0  0
  6  7  1  0  0  0  0
  7  8  1  0  0  0  0
  8  9  1  0  0  0  0
M  END
>  <CHROM.1>
138.37692444,-163.27718349,-78.17354856,179.17527313,-179.02292140,28.92419813
15.80688865,20.68222189,2.98555208,-0.30058722,-1.18117111

>  <Name>
ligand

>  <RI>
0

>  <Rbt.Current_Directory>
/home/itssahil/PROJECTS/Mol_Feturizer/New_Systems/rnas/3DIZ

>  <Rbt.Executable>
rbdock ($Id: //depot/dev/client3/rdock/2013.1/src/exe/rbdock.cxx#4 $)

>  <Rbt.Library>
libRbt.so (2013.1, Build901 2013/11/27)

>  <Rbt.Parameter_File>
/export/apps/rDock/src/rDock_2013.1_src/data/scripts/dock_solv.prm

>  <Rbt.Receptor>
prm/pocket_docking_4.prm

>  <SCORE>
-8.69158

>  <SCORE.INTER>
-7.61535

>  <SCORE.INTER.CONST>
1

>  <SCORE.INTER.POLAR>
0

>  <SCORE.INTER.ROT>
5

>  <SCORE.INTER.SOLV>
18.6305

>  <SCORE.INTER.VDW>
-18.2204

>  <SCORE.INTER.norm>
-0.761535

>  <SCORE.INTRA>
-1.07623

>  <SCORE.INTRA.DIHEDRAL>
0.0756768

>  <SCORE.INTRA.DIHEDRAL.0>
3.67053

>  <SCORE.INTRA.POLAR>
0

>  <SCORE.INTRA.POLAR.0>
0

>  <SCORE.INTRA.REPUL>
0

>  <SCORE.INTRA.REPUL.0>
0

>  <SCORE.INTRA.SOLV>
-1.63428

>  <SCORE.INTRA.SOLV.lig_0>
-32.0553

>  <SCORE.INTRA.VDW>
-0.296924

>  <SCORE.INTRA.VDW.0>
-0.571921

>  <SCORE.INTRA.norm>
-0.107623

>  <SCORE.RESTR>
0

>  <SCORE.RESTR.CAVITY>
0

>  <SCORE.RESTR.norm>
0

>  <SCORE.SYSTEM>
0

>  <SCORE.SYSTEM.CONST>
0

>  <SCORE.SYSTEM.DIHEDRAL>
0

>  <SCORE.SYSTEM.SOLV>
0

>  <SCORE.SYSTEM.norm>
0

>  <SCORE.heavy>
10

>  <SCORE.norm>
-0.869158

>  <RMSD>
5.002

$$$$
ligand
 OpenBabel11021811473D
libRbt.so/2013.1/901 2013/11/27
 10  9  0  0  0  0  0  0  0  0999 V2000
   25.9277   15.1120   20.8129 N   0  0  0  0  0  0  0  0  0  0  0  0
   27.3578   15.5425   20.7825 C   0  0  2  0  0  0  0  0  0  0  0  0
   27.8227   15.8443   19.3640 C   0  0  0  0  0  0  0  0  0  0  0  0
   27.5704   15.0857   18.4343 O   0  0  0  0  0  0  0  0  0  0  0  0
   28.2589   14.4956   21.4419 C   0  0  0  0  0  0  0  0  0  0  0  0
   29.7357   14.8497   21.4049 C   0  0  0  0  0  0  0  0  0  0  0  0
   30.0363   16.0953   22.2292 C   0  0  0  0  0  0  0  0  0  0  0  0
   31.5252   16.4008   22.2177 C   0  0  0  0  0  0  0  0  0  0  0  0
   32.0507   16.6820   20.8344 N   0  0  0  0  0  0  0  0  0  0  0  0
   28.4384   16.8636   19.0832 O   0  0  0  0  0  0  0  0  0  0  0  0
  2  1  1  6  0  0  0
  2  3  1  0  0  0  0
  2  5  1  0  0  0  0
  3  4  1  0  0  0  0
  3 10  1  0  0  0  0
  5  6  1  0  0  0  0
  6  7  1  0  0  0  0
  7  8  1  0  0  0  0
  8  9  1  0  0  0  0
M  END
>  <CHROM.1>
-45.95650539,178.10088668,65.07763054,177.97280624,61.48728942,28.87389253
15.70384066,20.62493763,2.81876725,-0.34883137,-1.21213573

>  <Name>
ligand

>  <RI>
0

>  <Rbt.Current_Directory>
/home/itssahil/PROJECTS/Mol_Feturizer/New_Systems/rnas/3DIZ

>  <Rbt.Executable>
rbdock ($Id: //depot/dev/client3/rdock/2013.1/src/exe/rbdock.cxx#4 $)

>  <Rbt.Library>
libRbt.so (2013.1, Build901 2013/11/27)

>  <Rbt.Parameter_File>
/export/apps/rDock/src/rDock_2013.1_src/data/scripts/dock_solv.prm

>  <Rbt.Receptor>
prm/pocket_docking_8.prm

>  <SCORE>
-8.71227

>  <SCORE.INTER>
-7.51452

>  <SCORE.INTER.CONST>
1

>  <SCORE.INTER.POLAR>
0

>  <SCORE.INTER.ROT>
5

>  <SCORE.INTER.SOLV>
17.4471

>  <SCORE.INTER.VDW>
-17.7587

>  <SCORE.INTER.norm>
-0.751452

>  <SCORE.INTRA>
-1.19775

>  <SCORE.INTRA.DIHEDRAL>
-1.97927

>  <SCORE.INTRA.DIHEDRAL.0>
3.67053

>  <SCORE.INTRA.POLAR>
0

>  <SCORE.INTRA.POLAR.0>
0

>  <SCORE.INTRA.REPUL>
0

>  <SCORE.INTRA.REPUL.0>
0

>  <SCORE.INTRA.SOLV>
-0.549836

>  <SCORE.INTRA.SOLV.lig_0>
-32.0553

>  <SCORE.INTRA.VDW>
0.0668085

>  <SCORE.INTRA.VDW.0>
-0.571921

>  <SCORE.INTRA.norm>
-0.119775

>  <SCORE.RESTR>
0

>  <SCORE.RESTR.CAVITY>
0

>  <SCORE.RESTR.norm>
0

>  <SCORE.SYSTEM>
0

>  <SCORE.SYSTEM.CONST>
0

>  <SCORE.SYSTEM.DIHEDRAL>
0

>  <SCORE.SYSTEM.SOLV>
0

>  <SCORE.SYSTEM.norm>
0

>  <SCORE.heavy>
10

>  <SCORE.norm>
-0.871227

>  <RMSD>
5.003

$$$$
ligand
 OpenBabel11021811473D
libRbt.so/2013.1/901 2013/11/27
 10  9  0  0  0  0  0  0  0  0999 V2000
   25.8071   14.9059   20.6558 N   0  0  0  0  0  0  0  0  0  0  0  0
   27.1215   15.5694   20.9077 C   0  0  2  0  0  0  0  0  0  0  0  0
   27.8027   15.9763   19.6079 C   0  0  0  0  0  0  0  0  0  0  0  0
   27.8070   15.2363   18.6302 O   0  0  0  0  0  0  0  0  0  0  0  0
   28.0356   14.6726   21.7464 C   0  0  0  0  0  0  0  0  0  0  0  0
   29.2188   15.4051   22.3557 C   0  0  0  0  0  0  0  0  0  0  0  0
   30.3200   15.6457   21.3306 C   0  0  0  0  0  0  0  0  0  0  0  0
   31.4753   16.4124   21.9531 C   0  0  0  0  0  0  0  0  0  0  0  0
   32.5613   16.7352   20.9604 N   0  0  0  0  0  0  0  0  0  0  0  0
   28.3468   17.0635   19.4701 O   0  0  0  0  0  0  0  0  0  0  0  0
  2  1  1  6  0  0  0
  2  3  1  0  0  0  0
  2  5  1  0  0  0  0
  3  4  1  0  0  0  0
  3 10  1  0  0  0  0
  5  6  1  0  0  0  0
  6  7  1  0  0  0  0
  7  8  1  0  0  0  0
  8  9  1  0  0  0  0
M  END
>  <CHROM.1>
-41.83807415,-164.35317186,-77.91844857,178.45569050,-177.15164991,28.85519421
15.77137188,20.72936019,2.96018174,-0.30287871,-1.18942747

>  <Name>
ligand

>  <RI>
0

>  <Rbt.Current_Directory>
/home/itssahil/PROJECTS/Mol_Feturizer/New_Systems/rnas/3DIZ

>  <Rbt.Executable>
rbdock ($Id: //depot/dev/client3/rdock/2013.1/src/exe/rbdock.cxx#4 $)

>  <Rbt.Library>
libRbt.so (2013.1, Build901 2013/11/27)

>  <Rbt.Parameter_File>
/export/apps/rDock/src/rDock_2013.1_src/data/scripts/dock_solv.prm

>  <Rbt.Receptor>
prm/pocket_docking_7.prm

>  <SCORE>
-8.63521

>  <SCORE.INTER>
-7.57645

>  <SCORE.INTER.CONST>
1

>  <SCORE.INTER.POLAR>
0

>  <SCORE.INTER.ROT>
5

>  <SCORE.INTER.SOLV>
18.458

>  <SCORE.INTER.VDW>
-18.137

>  <SCORE.INTER.norm>
-0.757645

>  <SCORE.INTRA>
-1.05876

>  <SCORE.INTRA.DIHEDRAL>
0.0513412

>  <SCORE.INTRA.DIHEDRAL.0>
3.67053

>  <SCORE.INTRA.POLAR>
0

>  <SCORE.INTRA.POLAR.0>
0

>  <SCORE.INTRA.REPUL>
0

>  <SCORE.INTRA.REPUL.0>
0

>  <SCORE.INTRA.SOLV>
-1.61516

>  <SCORE.INTRA.SOLV.lig_0>
-32.0553

>  <SCORE.INTRA.VDW>
-0.276849

>  <SCORE.INTRA.VDW.0>
-0.571921

>  <SCORE.INTRA.norm>
-0.105876

>  <SCORE.RESTR>
0

>  <SCORE.RESTR.CAVITY>
0

>  <SCORE.RESTR.norm>
0

>  <SCORE.SYSTEM>
0

>  <SCORE.SYSTEM.CONST>
0

>  <SCORE.SYSTEM.DIHEDRAL>
0

>  <SCORE.SYSTEM.SOLV>
0

>  <SCORE.SYSTEM.norm>
0

>  <SCORE.heavy>
10

>  <SCORE.norm>
-0.863521

>  <RMSD>
5.014

$$$$
ligand
 OpenBabel11021811473D
libRbt.so/2013.1/901 2013/11/27
 10  9  0  0  0  0  0  0  0  0999 V2000
   26.0080   14.8166   20.9898 N   0  0  0  0  0  0  0  0  0  0  0  0
   27.3500   15.4713   21.0334 C   0  0  2  0  0  0  0  0  0  0  0  0
   27.7712   15.9793   19.6609 C   0  0  0  0  0  0  0  0  0  0  0  0
   28.2439   17.1009   19.5125 O   0  0  0  0  0  0  0  0  0  0  0  0
   28.4032   14.5233   21.6123 C   0  0  0  0  0  0  0  0  0  0  0  0
   29.6838   15.2198   22.0394 C   0  0  0  0  0  0  0  0  0  0  0  0
   30.5224   15.6409   20.8390 C   0  0  0  0  0  0  0  0  0  0  0  0
   31.8191   16.2922   21.2914 C   0  0  0  0  0  0  0  0  0  0  0  0
   31.5906   17.5309   22.1173 N   0  0  0  0  0  0  0  0  0  0  0  0
   27.6861   15.2870   18.6557 O   0  0  0  0  0  0  0  0  0  0  0  0
  2  1  1  6  0  0  0
  2  3  1  0  0  0  0
  2  5  1  0  0  0  0
  3  4  1  0  0  0  0
  3 10  1  0  0  0  0
  5  6  1  0  0  0  0
  6  7  1  0  0  0  0
  7  8  1  0  0  0  0
  8  9  1  0  0  0  0
M  END
>  <CHROM.1>
134.06008480,-164.19855560,-73.68867093,-178.06390350,-60.51305596,28.90886849
15.79700372,20.74173172,2.99654509,-0.40882817,-1.02121245

>  <Name>
ligand

>  <RI>
0

>  <Rbt.Current_Directory>
/home/itssahil/PROJECTS/Mol_Feturizer/New_Systems/rnas/3DIZ

>  <Rbt.Executable>
rbdock ($Id: //depot/dev/client3/rdock/2013.1/src/exe/rbdock.cxx#4 $)

>  <Rbt.Library>
libRbt.so (2013.1, Build901 2013/11/27)

>  <Rbt.Parameter_File>
/export/apps/rDock/src/rDock_2013.1_src/data/scripts/dock_solv.prm

>  <Rbt.Receptor>
prm/pocket_docking_2.prm

>  <SCORE>
-8.52853

>  <SCORE.INTER>
-7.94702

>  <SCORE.INTER.CONST>
1

>  <SCORE.INTER.POLAR>
0

>  <SCORE.INTER.ROT>
5

>  <SCORE.INTER.SOLV>
17.6126

>  <SCORE.INTER.VDW>
-18.1022

>  <SCORE.INTER.norm>
-0.794702

>  <SCORE.INTRA>
-0.582405

>  <SCORE.INTRA.DIHEDRAL>
-0.538185

>  <SCORE.INTRA.DIHEDRAL.0>
3.67053

>  <SCORE.INTRA.POLAR>
0

>  <SCORE.INTRA.POLAR.0>
0

>  <SCORE.INTRA.REPUL>
0

>  <SCORE.INTRA.REPUL.0>
0

>  <SCORE.INTRA.SOLV>
-0.645658

>  <SCORE.INTRA.SOLV.lig_0>
-32.0553

>  <SCORE.INTRA.VDW>
0.00951695

>  <SCORE.INTRA.VDW.0>
-0.571921

>  <SCORE.INTRA.norm>
-0.0582405

>  <SCORE.RESTR>
0.000893336

>  <SCORE.RESTR.CAVITY>
0.000893336

>  <SCORE.RESTR.norm>
8.93336e-05

>  <SCORE.SYSTEM>
0

>  <SCORE.SYSTEM.CONST>
0

>  <SCORE.SYSTEM.DIHEDRAL>
0

>  <SCORE.SYSTEM.SOLV>
0

>  <SCORE.SYSTEM.norm>
0

>  <SCORE.heavy>
10

>  <SCORE.norm>
-0.852853

>  <RMSD>
5.015

$$$$
ligand
 OpenBabel11021811473D
libRbt.so/2013.1/901 2013/11/27
 10  9  0  0  0  0  0  0  0  0999 V2000
   25.9423   14.9177   20.7307 N   0  0  0  0  0  0  0  0  0  0  0  0
   27.2781   15.5801   20.8226 C   0  0  2  0  0  0  0  0  0  0  0  0
   27.8104   15.9623   19.4480 C   0  0  0  0  0  0  0  0  0  0  0  0
   27.6657   15.2246   18.4793 O   0  0  0  0  0  0  0  0  0  0  0  0
   28.2784   14.6941   21.5692 C   0  0  0  0  0  0  0  0  0  0  0  0
   29.5017   15.4420   22.0710 C   0  0  0  0  0  0  0  0  0  0  0  0
   30.4915   15.7202   20.9466 C   0  0  0  0  0  0  0  0  0  0  0  0
   31.6816   16.5125   21.4622 C   0  0  0  0  0  0  0  0  0  0  0  0
   32.6668   16.8556   20.3757 N   0  0  0  0  0  0  0  0  0  0  0  0
   28.3761   17.0274   19.2414 O   0  0  0  0  0  0  0  0  0  0  0  0
  2  1  1  6  0  0  0
  2  3  1  0  0  0  0
  2  5  1  0  0  0  0
  3  4  1  0  0  0  0
  3 10  1  0  0  0  0
  5  6  1  0  0  0  0
  6  7  1  0  0  0  0
  7  8  1  0  0  0  0
  8  9  1  0  0  0  0
M  END
>  <CHROM.1>
-39.45226687,-162.38013857,-77.11846921,177.93868859,-177.95450087,28.97128130
15.80202472,20.48143046,3.05032387,-0.28700454,-1.17988164

>  <Name>
ligand

>  <RI>
0

>  <Rbt.Current_Directory>
/home/itssahil/PROJECTS/Mol_Feturizer/New_Systems/rnas/3DIZ

>  <Rbt.Executable>
rbdock ($Id: //depot/dev/client3/rdock/2013.1/src/exe/rbdock.cxx#4 $)

>  <Rbt.Library>
libRbt.so (2013.1, Build901 2013/11/27)

>  <Rbt.Parameter_File>
/export/apps/rDock/src/rDock_2013.1_src/data/scripts/dock_solv.prm

>  <Rbt.Receptor>
prm/pocket_docking_2.prm

>  <SCORE>
-8.29063

>  <SCORE.INTER>
-7.3301

>  <SCORE.INTER.CONST>
1

>  <SCORE.INTER.POLAR>
0

>  <SCORE.INTER.ROT>
5

>  <SCORE.INTER.SOLV>
19.3989

>  <SCORE.INTER.VDW>
-18.2864

>  <SCORE.INTER.norm>
-0.73301

>  <SCORE.INTRA>
-0.960536

>  <SCORE.INTRA.DIHEDRAL>
0.17157

>  <SCORE.INTRA.DIHEDRAL.0>
3.67053

>  <SCORE.INTRA.POLAR>
0

>  <SCORE.INTRA.POLAR.0>
0

>  <SCORE.INTRA.REPUL>
0

>  <SCORE.INTRA.REPUL.0>
0

>  <SCORE.INTRA.SOLV>
-1.61053

>  <SCORE.INTRA.SOLV.lig_0>
-32.0553

>  <SCORE.INTRA.VDW>
-0.241054

>  <SCORE.INTRA.VDW.0>
-0.571921

>  <SCORE.INTRA.norm>
-0.0960536

>  <SCORE.RESTR>
0

>  <SCORE.RESTR.CAVITY>
0

>  <SCORE.RESTR.norm>
0

>  <SCORE.SYSTEM>
0

>  <SCORE.SYSTEM.CONST>
0

>  <SCORE.SYSTEM.DIHEDRAL>
0

>  <SCORE.SYSTEM.SOLV>
0

>  <SCORE.SYSTEM.norm>
0

>  <SCORE.heavy>
10

>  <SCORE.norm>
-0.829063

>  <RMSD>
5.015

$$$$
ligand
 OpenBabel11021811473D
libRbt.so/2013.1/901 2013/11/27
 10  9  0  0  0  0  0  0  0  0999 V2000
   25.9544   14.8051   21.0103 N   0  0  0  0  0  0  0  0  0  0  0  0
   27.2892   15.4755   21.0292 C   0  0  2  0  0  0  0  0  0  0  0  0
   27.6915   15.9635   19.6439 C   0  0  0  0  0  0  0  0  0  0  0  0
   28.1642   17.0820   19.4732 O   0  0  0  0  0  0  0  0  0  0  0  0
   28.3586   14.5497   21.6145 C   0  0  0  0  0  0  0  0  0  0  0  0
   29.6565   15.2582   21.9623 C   0  0  0  0  0  0  0  0  0  0  0  0
   30.4570   15.6105   20.7147 C   0  0  0  0  0  0  0  0  0  0  0  0
   31.7562   16.3052   21.0883 C   0  0  0  0  0  0  0  0  0  0  0  0
   31.5331   17.5859   21.8491 N   0  0  0  0  0  0  0  0  0  0  0  0
   27.5906   15.2577   18.6497 O   0  0  0  0  0  0  0  0  0  0  0  0
  2  1  1  6  0  0  0
  2  3  1  0  0  0  0
  2  5  1  0  0  0  0
  3  4  1  0  0  0  0
  3 10  1  0  0  0  0
  5  6  1  0  0  0  0
  6  7  1  0  0  0  0
  7  8  1  0  0  0  0
  8  9  1  0  0  0  0
M  END
>  <CHROM.1>
134.90049726,-166.63549329,-74.00712846,-179.43365940,-60.00315140,28.84570874
15.79960266,20.67021657,3.04624408,-0.39127376,-1.02137149

>  <Name>
ligand

>  <RI>
0

>  <Rbt.Current_Directory>
/home/itssahil/PROJECTS/Mol_Feturizer/New_Systems/rnas/3DIZ

>  <Rbt.Executable>
rbdock ($Id: //depot/dev/client3/rdock/2013.1/src/exe/rbdock.cxx#4 $)

>  <Rbt.Library>
libRbt.so (2013.1, Build901 2013/11/27)

>  <Rbt.Parameter_File>
/export/apps/rDock/src/rDock_2013.1_src/data/scripts/dock_solv.prm

>  <Rbt.Receptor>
prm/pocket_docking_5.prm

>  <SCORE>
-8.49021

>  <SCORE.INTER>
-7.89533

>  <SCORE.INTER.CONST>
1

>  <SCORE.INTER.POLAR>
0

>  <SCORE.INTER.ROT>
5

>  <SCORE.INTER.SOLV>
17.8806

>  <SCORE.INTER.VDW>
-18.1571

>  <SCORE.INTER.norm>
-0.789533

>  <SCORE.INTRA>
-0.594877

>  <SCORE.INTRA.DIHEDRAL>
-0.771563

>  <SCORE.INTRA.DIHEDRAL.0>
3.67053

>  <SCORE.INTRA.POLAR>
0

>  <SCORE.INTRA.POLAR.0>
0

>  <SCORE.INTRA.REPUL>
0

>  <SCORE.INTRA.REPUL.0>
0

>  <SCORE.INTRA.SOLV>
-0.629529

>  <SCORE.INTRA.SOLV.lig_0>
-32.0553

>  <SCORE.INTRA.VDW>
0.105669

>  <SCORE.INTRA.VDW.0>
-0.571921

>  <SCORE.INTRA.norm>
-0.0594877

>  <SCORE.RESTR>
0

>  <SCORE.RESTR.CAVITY>
0

>  <SCORE.RESTR.norm>
0

>  <SCORE.SYSTEM>
0

>  <SCORE.SYSTEM.CONST>
0

>  <SCORE.SYSTEM.DIHEDRAL>
0

>  <SCORE.SYSTEM.SOLV>
0

>  <SCORE.SYSTEM.norm>
0

>  <SCORE.heavy>
10

>  <SCORE.norm>
-0.849021

>  <RMSD>
5.026

$$$$
ligand
 OpenBabel11021811473D
libRbt.so/2013.1/901 2013/11/27
 10  9  0  0  0  0  0  0  0  0999 V2000
   25.7943   14.9271   20.6190 N   0  0  0  0  0  0  0  0  0  0  0  0
   27.1097   15.5968   20.8485 C   0  0  2  0  0  0  0  0  0  0  0  0
   27.7639   16.0124   19.5377 C   0  0  0  0  0  0  0  0  0  0  0  0
   28.3165   17.1003   19.4163 O   0  0  0  0  0  0  0  0  0  0  0  0
   28.0444   14.7019   21.6663 C   0  0  0  0  0  0  0  0  0  0  0  0
   29.2098   15.4472   22.2940 C   0  0  0  0  0  0  0  0  0  0  0  0
   30.2970   15.7547   21.2719 C   0  0  0  0  0  0  0  0  0  0  0  0
   31.4507   16.5003   21.9224 C   0  0  0  0  0  0  0  0  0  0  0  0
   32.5480   16.8388   20.9477 N   0  0  0  0  0  0  0  0  0  0  0  0
   27.7946   15.2745   18.5622 O   0  0  0  0  0  0  0  0  0  0  0  0
  2  1  1  6  0  0  0
  2  3  1  0  0  0  0
  2  5  1  0  0  0  0
  3  4  1  0  0  0  0
  3 10  1  0  0  0  0
  5  6  1  0  0  0  0
  6  7  1  0  0  0  0
  7  8  1  0  0  0  0
  8  9  1  0  0  0  0
M  END
>  <CHROM.1>
137.75641065,-162.43812304,-77.15088732,179.97286456,-179.48380781,28.83863411
15.82452094,20.67623543,2.95938139,-0.31745928,-1.18897220

>  <Name>
ligand

>  <RI>
0

>  <Rbt.Current_Directory>
/home/itssahil/PROJECTS/Mol_Feturizer/New_Systems/rnas/3DIZ

>  <Rbt.Executable>
rbdock ($Id: //depot/dev/client3/rdock/2013.1/src/exe/rbdock.cxx#4 $)

>  <Rbt.Library>
libRbt.so (2013.1, Build901 2013/11/27)

>  <Rbt.Parameter_File>
/export/apps/rDock/src/rDock_2013.1_src/data/scripts/dock_solv.prm

>  <Rbt.Receptor>
prm/pocket_docking_3.prm

>  <SCORE>
-8.72891

>  <SCORE.INTER>
-7.65428

>  <SCORE.INTER.CONST>
1

>  <SCORE.INTER.POLAR>
0

>  <SCORE.INTER.ROT>
5

>  <SCORE.INTER.SOLV>
18.439

>  <SCORE.INTER.VDW>
-18.1825

>  <SCORE.INTER.norm>
-0.765428

>  <SCORE.INTRA>
-1.07463

>  <SCORE.INTRA.DIHEDRAL>
0.0383495

>  <SCORE.INTRA.DIHEDRAL.0>
3.67053

>  <SCORE.INTRA.POLAR>
0

>  <SCORE.INTRA.POLAR.0>
0

>  <SCORE.INTRA.REPUL>
0

>  <SCORE.INTRA.REPUL.0>
0

>  <SCORE.INTRA.SOLV>
-1.62931

>  <SCORE.INTRA.SOLV.lig_0>
-32.0553

>  <SCORE.INTRA.VDW>
-0.279152

>  <SCORE.INTRA.VDW.0>
-0.571921

>  <SCORE.INTRA.norm>
-0.107463

>  <SCORE.RESTR>
0

>  <SCORE.RESTR.CAVITY>
0

>  <SCORE.RESTR.norm>
0

>  <SCORE.SYSTEM>
0

>  <SCORE.SYSTEM.CONST>
0

>  <SCORE.SYSTEM.DIHEDRAL>
0

>  <SCORE.SYSTEM.SOLV>
0

>  <SCORE.SYSTEM.norm>
0

>  <SCORE.heavy>
10

>  <SCORE.norm>
-0.872891

>  <RMSD>
5.028

$$$$
ligand
 OpenBabel11021811473D
libRbt.so/2013.1/901 2013/11/27
 10  9  0  0  0  0  0  0  0  0999 V2000
   25.9298   14.9819   20.7601 N   0  0  0  0  0  0  0  0  0  0  0  0
   27.2869   15.6032   20.8225 C   0  0  2  0  0  0  0  0  0  0  0  0
   27.8089   15.9507   19.4347 C   0  0  0  0  0  0  0  0  0  0  0  0
   27.7075   15.1649   18.4989 O   0  0  0  0  0  0  0  0  0  0  0  0
   28.2709   14.6959   21.5652 C   0  0  0  0  0  0  0  0  0  0  0  0
   29.5500   15.3979   21.9879 C   0  0  0  0  0  0  0  0  0  0  0  0
   30.4670   15.6598   20.7997 C   0  0  0  0  0  0  0  0  0  0  0  0
   31.7573   16.3229   21.2527 C   0  0  0  0  0  0  0  0  0  0  0  0
   31.5213   17.6295   21.9640 N   0  0  0  0  0  0  0  0  0  0  0  0
   28.3224   17.0326   19.1839 O   0  0  0  0  0  0  0  0  0  0  0  0
  2  1  1  6  0  0  0
  2  3  1  0  0  0  0
  2  5  1  0  0  0  0
  3  4  1  0  0  0  0
  3 10  1  0  0  0  0
  5  6  1  0  0  0  0
  6  7  1  0  0  0  0
  7  8  1  0  0  0  0
  8  9  1  0  0  0  0
M  END
>  <CHROM.1>
-44.57197125,-164.75544852,-73.47891203,-178.23662438,-58.56471679,28.86484437
15.85112037,20.59246330,2.91835830,-0.40809203,-1.15709985

>  <Name>
ligand

>  <RI>
0

>  <Rbt.Current_Directory>
/home/itssahil/PROJECTS/Mol_Feturizer/New_Systems/rnas/3DIZ

>  <Rbt.Executable>
rbdock ($Id: //depot/dev/client3/rdock/2013.1/src/exe/rbdock.cxx#4 $)

>  <Rbt.Library>
libRbt.so (2013.1, Build901 2013/11/27)

>  <Rbt.Parameter_File>
/export/apps/rDock/src/rDock_2013.1_src/data/scripts/dock_solv.prm

>  <Rbt.Receptor>
prm/pocket_docking_3.prm

>  <SCORE>
-8.32457

>  <SCORE.INTER>
-7.82678

>  <SCORE.INTER.CONST>
1

>  <SCORE.INTER.POLAR>
0

>  <SCORE.INTER.ROT>
5

>  <SCORE.INTER.SOLV>
17.4304

>  <SCORE.INTER.VDW>
-17.9613

>  <SCORE.INTER.norm>
-0.782678

>  <SCORE.INTRA>
-0.49779

>  <SCORE.INTRA.DIHEDRAL>
-0.537692

>  <SCORE.INTRA.DIHEDRAL.0>
3.67053

>  <SCORE.INTRA.POLAR>
0

>  <SCORE.INTRA.POLAR.0>
0

>  <SCORE.INTRA.REPUL>
0

>  <SCORE.INTRA.REPUL.0>
0

>  <SCORE.INTRA.SOLV>
-0.598274

>  <SCORE.INTRA.SOLV.lig_0>
-32.0553

>  <SCORE.INTRA.VDW>
0.0701932

>  <SCORE.INTRA.VDW.0>
-0.571921

>  <SCORE.INTRA.norm>
-0.049779

>  <SCORE.RESTR>
0

>  <SCORE.RESTR.CAVITY>
0

>  <SCORE.RESTR.norm>
0

>  <SCORE.SYSTEM>
0

>  <SCORE.SYSTEM.CONST>
0

>  <SCORE.SYSTEM.DIHEDRAL>
0

>  <SCORE.SYSTEM.SOLV>
0

>  <SCORE.SYSTEM.norm>
0

>  <SCORE.heavy>
10

>  <SCORE.norm>
-0.832457

>  <RMSD>
5.028

$$$$
ligand
 OpenBabel11021811473D
libRbt.so/2013.1/901 2013/11/27
 10  9  0  0  0  0  0  0  0  0999 V2000
   25.9150   14.8340   20.9829 N   0  0  0  0  0  0  0  0  0  0  0  0
   27.2618   15.4794   21.0154 C   0  0  2  0  0  0  0  0  0  0  0  0
   27.6852   15.9638   19.6351 C   0  0  0  0  0  0  0  0  0  0  0  0
   28.1590   17.0824   19.4684 O   0  0  0  0  0  0  0  0  0  0  0  0
   28.3087   14.5323   21.6072 C   0  0  0  0  0  0  0  0  0  0  0  0
   29.6087   15.2195   21.9884 C   0  0  0  0  0  0  0  0  0  0  0  0
   30.4423   15.5669   20.7613 C   0  0  0  0  0  0  0  0  0  0  0  0
   31.7375   16.2505   21.1675 C   0  0  0  0  0  0  0  0  0  0  0  0
   31.5072   17.5626   21.8705 N   0  0  0  0  0  0  0  0  0  0  0  0
   27.6009   15.2547   18.6416 O   0  0  0  0  0  0  0  0  0  0  0  0
  2  1  1  6  0  0  0
  2  3  1  0  0  0  0
  2  5  1  0  0  0  0
  3  4  1  0  0  0  0
  3 10  1  0  0  0  0
  5  6  1  0  0  0  0
  6  7  1  0  0  0  0
  7  8  1  0  0  0  0
  8  9  1  0  0  0  0
M  END
>  <CHROM.1>
133.63971749,-165.73715608,-74.53688201,-179.89916928,-62.57252605,28.82371204
15.78490744,20.68051725,3.03108905,-0.38958774,-1.01451174

>  <Name>
ligand

>  <RI>
0

>  <Rbt.Current_Directory>
/home/itssahil/PROJECTS/Mol_Feturizer/New_Systems/rnas/3DIZ

>  <Rbt.Executable>
rbdock ($Id: //depot/dev/client3/rdock/2013.1/src/exe/rbdock.cxx#4 $)

>  <Rbt.Library>
libRbt.so (2013.1, Build901 2013/11/27)

>  <Rbt.Parameter_File>
/export/apps/rDock/src/rDock_2013.1_src/data/scripts/dock_solv.prm

>  <Rbt.Receptor>
prm/pocket_docking_4.prm

>  <SCORE>
-8.48257

>  <SCORE.INTER>
-7.82411

>  <SCORE.INTER.CONST>
1

>  <SCORE.INTER.POLAR>
0

>  <SCORE.INTER.ROT>
5

>  <SCORE.INTER.SOLV>
17.8903

>  <SCORE.INTER.VDW>
-18.1128

>  <SCORE.INTER.norm>
-0.782411

>  <SCORE.INTRA>
-0.658454

>  <SCORE.INTRA.DIHEDRAL>
-0.598937

>  <SCORE.INTRA.DIHEDRAL.0>
3.67053

>  <SCORE.INTRA.POLAR>
0

>  <SCORE.INTRA.POLAR.0>
0

>  <SCORE.INTRA.REPUL>
0

>  <SCORE.INTRA.REPUL.0>
0

>  <SCORE.INTRA.SOLV>
-0.668904

>  <SCORE.INTRA.SOLV.lig_0>
-32.0553

>  <SCORE.INTRA.VDW>
-0.0245335

>  <SCORE.INTRA.VDW.0>
-0.571921

>  <SCORE.INTRA.norm>
-0.0658454

>  <SCORE.RESTR>
0

>  <SCORE.RESTR.CAVITY>
0

>  <SCORE.RESTR.norm>
0

>  <SCORE.SYSTEM>
0

>  <SCORE.SYSTEM.CONST>
0

>  <SCORE.SYSTEM.DIHEDRAL>
0

>  <SCORE.SYSTEM.SOLV>
0

>  <SCORE.SYSTEM.norm>
0

>  <SCORE.heavy>
10

>  <SCORE.norm>
-0.848257

>  <RMSD>
5.031

$$$$
ligand
 OpenBabel11021811473D
libRbt.so/2013.1/901 2013/11/27
 10  9  0  0  0  0  0  0  0  0999 V2000
   25.7885   14.9248   20.6492 N   0  0  0  0  0  0  0  0  0  0  0  0
   27.1185   15.5692   20.8671 C   0  0  2  0  0  0  0  0  0  0  0  0
   27.7657   15.9788   19.5509 C   0  0  0  0  0  0  0  0  0  0  0  0
   27.7479   15.2392   18.5731 O   0  0  0  0  0  0  0  0  0  0  0  0
   28.0455   14.6535   21.6704 C   0  0  0  0  0  0  0  0  0  0  0  0
   29.2203   15.3779   22.3051 C   0  0  0  0  0  0  0  0  0  0  0  0
   30.2930   15.7180   21.2779 C   0  0  0  0  0  0  0  0  0  0  0  0
   31.4701   16.4143   21.9409 C   0  0  0  0  0  0  0  0  0  0  0  0
   32.5521   16.7873   20.9616 N   0  0  0  0  0  0  0  0  0  0  0  0
   28.3027   17.0678   19.4000 O   0  0  0  0  0  0  0  0  0  0  0  0
  2  1  1  6  0  0  0
  2  3  1  0  0  0  0
  2  5  1  0  0  0  0
  3  4  1  0  0  0  0
  3 10  1  0  0  0  0
  5  6  1  0  0  0  0
  6  7  1  0  0  0  0
  7  8  1  0  0  0  0
  8  9  1  0  0  0  0
M  END
>  <CHROM.1>
-42.91182601,-161.60324081,-75.74475985,-178.76499986,-179.28498768,28.83526245
15.78221014,20.68679853,2.95553588,-0.31105031,-1.17882249

>  <Name>
ligand

>  <RI>
0

>  <Rbt.Current_Directory>
/home/itssahil/PROJECTS/Mol_Feturizer/New_Systems/rnas/3DIZ

>  <Rbt.Executable>
rbdock ($Id: //depot/dev/client3/rdock/2013.1/src/exe/rbdock.cxx#4 $)

>  <Rbt.Library>
libRbt.so (2013.1, Build901 2013/11/27)

>  <Rbt.Parameter_File>
/export/apps/rDock/src/rDock_2013.1_src/data/scripts/dock_solv.prm

>  <Rbt.Receptor>
prm/pocket_docking_5.prm

>  <SCORE>
-8.66057

>  <SCORE.INTER>
-7.64658

>  <SCORE.INTER.CONST>
1

>  <SCORE.INTER.POLAR>
0

>  <SCORE.INTER.ROT>
5

>  <SCORE.INTER.SOLV>
18.4758

>  <SCORE.INTER.VDW>
-18.1896

>  <SCORE.INTER.norm>
-0.764658

>  <SCORE.INTRA>
-1.014

>  <SCORE.INTRA.DIHEDRAL>
0.0662708

>  <SCORE.INTRA.DIHEDRAL.0>
3.67053

>  <SCORE.INTRA.POLAR>
0

>  <SCORE.INTRA.POLAR.0>
0

>  <SCORE.INTRA.REPUL>
0

>  <SCORE.INTRA.REPUL.0>
0

>  <SCORE.INTRA.SOLV>
-1.60575

>  <SCORE.INTRA.SOLV.lig_0>
-32.0553

>  <SCORE.INTRA.VDW>
-0.244261

>  <SCORE.INTRA.VDW.0>
-0.571921

>  <SCORE.INTRA.norm>
-0.1014

>  <SCORE.RESTR>
0

>  <SCORE.RESTR.CAVITY>
0

>  <SCORE.RESTR.norm>
0

>  <SCORE.SYSTEM>
0

>  <SCORE.SYSTEM.CONST>
0

>  <SCORE.SYSTEM.DIHEDRAL>
0

>  <SCORE.SYSTEM.SOLV>
0

>  <SCORE.SYSTEM.norm>
0

>  <SCORE.heavy>
10

>  <SCORE.norm>
-0.866057

>  <RMSD>
5.038

$$$$
ligand
 OpenBabel11021811473D
libRbt.so/2013.1/901 2013/11/27
 10  9  0  0  0  0  0  0  0  0999 V2000
   27.1755   15.9360   19.5752 N   0  0  0  0  0  0  0  0  0  0  0  0
   28.3726   15.5949   20.4011 C   0  0  2  0  0  0  0  0  0  0  0  0
   27.9815   14.8785   21.6867 C   0  0  0  0  0  0  0  0  0  0  0  0
   26.8678   15.0159   22.1810 O   0  0  0  0  0  0  0  0  0  0  0  0
   29.2037   16.8445   20.7028 C   0  0  0  0  0  0  0  0  0  0  0  0
   30.5544   16.5436   21.3294 C   0  0  0  0  0  0  0  0  0  0  0  0
   31.2664   17.8166   21.7697 C   0  0  0  0  0  0  0  0  0  0  0  0
   32.7152   17.5262   22.1258 C   0  0  0  0  0  0  0  0  0  0  0  0
   33.5183   17.0428   20.9468 N   0  0  0  0  0  0  0  0  0  0  0  0
   28.7433   14.1155   22.2651 O   0  0  0  0  0  0  0  0  0  0  0  0
  2  1  1  1  0  0  0
  2  3  1  0  0  0  0
  2  5  1  0  0  0  0
  3  4  1  0  0  0  0
  3 10  1  0  0  0  0
  5  6  1  0  0  0  0
  6  7  1  0  0  0  0
  7  8  1  0  0  0  0
  8  9  1  0  0  0  0
M  END
>  <CHROM.1>
-24.45344493,-169.99469013,-172.85106471,-168.38263206,63.74665603,29.62112237
16.10931855,21.32535071,2.91240801,0.35908679,2.26609857

>  <Name>
ligand

>  <RI>
0

>  <Rbt.Current_Directory>
/home/itssahil/PROJECTS/Mol_Feturizer/New_Systems/rnas/3DIZ

>  <Rbt.Executable>
rbdock ($Id: //depot/dev/client3/rdock/2013.1/src/exe/rbdock.cxx#4 $)

>  <Rbt.Library>
libRbt.so (2013.1, Build901 2013/11/27)

>  <Rbt.Parameter_File>
/export/apps/rDock/src/rDock_2013.1_src/data/scripts/dock_solv.prm

>  <Rbt.Receptor>
prm/blind_docking_60.prm

>  <SCORE>
-7.93733

>  <SCORE.INTER>
-6.9818

>  <SCORE.INTER.CONST>
1

>  <SCORE.INTER.POLAR>
0

>  <SCORE.INTER.ROT>
5

>  <SCORE.INTER.SOLV>
16.2572

>  <SCORE.INTER.VDW>
-17.0069

>  <SCORE.INTER.norm>
-0.69818

>  <SCORE.INTRA>
-0.955531

>  <SCORE.INTRA.DIHEDRAL>
-0.93024

>  <SCORE.INTRA.DIHEDRAL.0>
3.67053

>  <SCORE.INTRA.POLAR>
0

>  <SCORE.INTRA.POLAR.0>
0

>  <SCORE.INTRA.REPUL>
0

>  <SCORE.INTRA.REPUL.0>
0

>  <SCORE.INTRA.SOLV>
-0.697613

>  <SCORE.INTRA.SOLV.lig_0>
-32.0553

>  <SCORE.INTRA.VDW>
-0.141605

>  <SCORE.INTRA.VDW.0>
-0.571921

>  <SCORE.INTRA.norm>
-0.0955531

>  <SCORE.RESTR>
0

>  <SCORE.RESTR.CAVITY>
0

>  <SCORE.RESTR.norm>
0

>  <SCORE.SYSTEM>
0

>  <SCORE.SYSTEM.CONST>
0

>  <SCORE.SYSTEM.DIHEDRAL>
0

>  <SCORE.SYSTEM.SOLV>
0

>  <SCORE.SYSTEM.norm>
0

>  <SCORE.heavy>
10

>  <SCORE.norm>
-0.793733

>  <RMSD>
5.052

$$$$
ligand
 OpenBabel11021811473D
libRbt.so/2013.1/901 2013/11/27
 10  9  0  0  0  0  0  0  0  0999 V2000
   26.9397   16.2088   19.8980 N   0  0  0  0  0  0  0  0  0  0  0  0
   28.1642   15.3534   19.8785 C   0  0  2  0  0  0  0  0  0  0  0  0
   28.1780   14.4210   18.6746 C   0  0  0  0  0  0  0  0  0  0  0  0
   27.1618   13.8457   18.3006 O   0  0  0  0  0  0  0  0  0  0  0  0
   28.3014   14.5640   21.1828 C   0  0  0  0  0  0  0  0  0  0  0  0
   28.6269   15.4281   22.3890 C   0  0  0  0  0  0  0  0  0  0  0  0
   30.1089   15.7767   22.4478 C   0  0  0  0  0  0  0  0  0  0  0  0
   30.4408   16.8813   21.4579 C   0  0  0  0  0  0  0  0  0  0  0  0
   31.8936   17.2773   21.4936 N   0  0  0  0  0  0  0  0  0  0  0  0
   29.1882   14.2275   18.0119 O   0  0  0  0  0  0  0  0  0  0  0  0
  2  1  1  1  0  0  0
  2  3  1  0  0  0  0
  2  5  1  0  0  0  0
  3  4  1  0  0  0  0
  3 10  1  0  0  0  0
  5  6  1  0  0  0  0
  6  7  1  0  0  0  0
  7  8  1  0  0  0  0
  8  9  1  0  0  0  0
M  END
>  <CHROM.1>
-41.04632029,-69.14417395,-80.08277119,77.55051372,179.10050994,28.89549843
15.37420587,20.33919677,2.23793277,-0.34466751,-1.89559810

>  <Name>
ligand

>  <RI>
0

>  <Rbt.Current_Directory>
/home/itssahil/PROJECTS/Mol_Feturizer/New_Systems/rnas/3DIZ

>  <Rbt.Executable>
rbdock ($Id: //depot/dev/client3/rdock/2013.1/src/exe/rbdock.cxx#4 $)

>  <Rbt.Library>
libRbt.so (2013.1, Build901 2013/11/27)

>  <Rbt.Parameter_File>
/export/apps/rDock/src/rDock_2013.1_src/data/scripts/dock_solv.prm

>  <Rbt.Receptor>
prm/pocket_docking_4.prm

>  <SCORE>
-7.484

>  <SCORE.INTER>
-8.20351

>  <SCORE.INTER.CONST>
1

>  <SCORE.INTER.POLAR>
0

>  <SCORE.INTER.ROT>
5

>  <SCORE.INTER.SOLV>
14.2622

>  <SCORE.INTER.VDW>
-17.1564

>  <SCORE.INTER.norm>
-0.820351

>  <SCORE.INTRA>
0.719512

>  <SCORE.INTRA.DIHEDRAL>
0.972095

>  <SCORE.INTRA.DIHEDRAL.0>
3.67053

>  <SCORE.INTRA.POLAR>
0

>  <SCORE.INTRA.POLAR.0>
0

>  <SCORE.INTRA.REPUL>
0

>  <SCORE.INTRA.REPUL.0>
0

>  <SCORE.INTRA.SOLV>
0.242834

>  <SCORE.INTRA.SOLV.lig_0>
-32.0553

>  <SCORE.INTRA.VDW>
0.112048

>  <SCORE.INTRA.VDW.0>
-0.571921

>  <SCORE.INTRA.norm>
0.0719512

>  <SCORE.RESTR>
0

>  <SCORE.RESTR.CAVITY>
0

>  <SCORE.RESTR.norm>
0

>  <SCORE.SYSTEM>
0

>  <SCORE.SYSTEM.CONST>
0

>  <SCORE.SYSTEM.DIHEDRAL>
0

>  <SCORE.SYSTEM.SOLV>
0

>  <SCORE.SYSTEM.norm>
0

>  <SCORE.heavy>
10

>  <SCORE.norm>
-0.7484

>  <RMSD>
5.052

$$$$
ligand
 OpenBabel11021811473D
libRbt.so/2013.1/901 2013/11/27
 10  9  0  0  0  0  0  0  0  0999 V2000
   28.0295   14.6574   18.8476 N   0  0  0  0  0  0  0  0  0  0  0  0
   28.2699   14.8464   20.3098 C   0  0  2  0  0  0  0  0  0  0  0  0
   26.9709   15.0969   21.0641 C   0  0  0  0  0  0  0  0  0  0  0  0
   26.9465   15.1676   22.2880 O   0  0  0  0  0  0  0  0  0  0  0  0
   29.2727   15.9760   20.5582 C   0  0  0  0  0  0  0  0  0  0  0  0
   29.7352   16.0762   22.0016 C   0  0  0  0  0  0  0  0  0  0  0  0
   30.7305   17.2134   22.1958 C   0  0  0  0  0  0  0  0  0  0  0  0
   32.1002   16.8253   21.6634 C   0  0  0  0  0  0  0  0  0  0  0  0
   32.1252   16.6932   20.1631 N   0  0  0  0  0  0  0  0  0  0  0  0
   25.9052   15.2676   20.4876 O   0  0  0  0  0  0  0  0  0  0  0  0
  2  1  1  6  0  0  0
  2  3  1  0  0  0  0
  2  5  1  0  0  0  0
  3  4  1  0  0  0  0
  3 10  1  0  0  0  0
  5  6  1  0  0  0  0
  6  7  1  0  0  0  0
  7  8  1  0  0  0  0
  8  9  1  0  0  0  0
M  END
>  <CHROM.1>
173.96767003,-170.64416073,179.98446799,-76.30287510,68.37250377,28.97043403
15.78271017,20.97345599,-2.92406886,0.30260315,1.26629247

>  <Name>
ligand

>  <RI>
0

>  <Rbt.Current_Directory>
/home/itssahil/PROJECTS/Mol_Feturizer/New_Systems/rnas/3DIZ

>  <Rbt.Executable>
rbdock ($Id: //depot/dev/client3/rdock/2013.1/src/exe/rbdock.cxx#4 $)

>  <Rbt.Library>
libRbt.so (2013.1, Build901 2013/11/27)

>  <Rbt.Parameter_File>
/export/apps/rDock/src/rDock_2013.1_src/data/scripts/dock_solv.prm

>  <Rbt.Receptor>
prm/pocket_docking_5.prm

>  <SCORE>
-8.32703

>  <SCORE.INTER>
-9.04082

>  <SCORE.INTER.CONST>
1

>  <SCORE.INTER.POLAR>
0

>  <SCORE.INTER.ROT>
5

>  <SCORE.INTER.SOLV>
12.611

>  <SCORE.INTER.VDW>
-17.1642

>  <SCORE.INTER.norm>
-0.904082

>  <SCORE.INTRA>
0.713789

>  <SCORE.INTRA.DIHEDRAL>
-0.564397

>  <SCORE.INTRA.DIHEDRAL.0>
3.67053

>  <SCORE.INTRA.POLAR>
0

>  <SCORE.INTRA.POLAR.0>
0

>  <SCORE.INTRA.REPUL>
0

>  <SCORE.INTRA.REPUL.0>
0

>  <SCORE.INTRA.SOLV>
0.57383

>  <SCORE.INTRA.SOLV.lig_0>
-32.0553

>  <SCORE.INTRA.VDW>
0.709073

>  <SCORE.INTRA.VDW.0>
-0.571921

>  <SCORE.INTRA.norm>
0.0713789

>  <SCORE.RESTR>
0

>  <SCORE.RESTR.CAVITY>
0

>  <SCORE.RESTR.norm>
0

>  <SCORE.SYSTEM>
0

>  <SCORE.SYSTEM.CONST>
0

>  <SCORE.SYSTEM.DIHEDRAL>
0

>  <SCORE.SYSTEM.SOLV>
0

>  <SCORE.SYSTEM.norm>
0

>  <SCORE.heavy>
10

>  <SCORE.norm>
-0.832703

>  <RMSD>
5.054

$$$$
ligand
 OpenBabel11021811473D
libRbt.so/2013.1/901 2013/11/27
 10  9  0  0  0  0  0  0  0  0999 V2000
   28.0081   14.6750   18.8370 N   0  0  0  0  0  0  0  0  0  0  0  0
   28.2494   14.8536   20.3003 C   0  0  2  0  0  0  0  0  0  0  0  0
   26.9488   15.0777   21.0600 C   0  0  0  0  0  0  0  0  0  0  0  0
   26.9292   15.1561   22.2836 O   0  0  0  0  0  0  0  0  0  0  0  0
   29.2361   15.9954   20.5572 C   0  0  0  0  0  0  0  0  0  0  0  0
   29.7088   16.0821   21.9982 C   0  0  0  0  0  0  0  0  0  0  0  0
   30.7168   17.2081   22.1928 C   0  0  0  0  0  0  0  0  0  0  0  0
   32.0729   16.8188   21.6276 C   0  0  0  0  0  0  0  0  0  0  0  0
   32.0648   16.6992   20.1262 N   0  0  0  0  0  0  0  0  0  0  0  0
   25.8762   15.2186   20.4883 O   0  0  0  0  0  0  0  0  0  0  0  0
  2  1  1  6  0  0  0
  2  3  1  0  0  0  0
  2  5  1  0  0  0  0
  3  4  1  0  0  0  0
  3 10  1  0  0  0  0
  5  6  1  0  0  0  0
  6  7  1  0  0  0  0
  7  8  1  0  0  0  0
  8  9  1  0  0  0  0
M  END
>  <CHROM.1>
175.06347903,-170.20552765,178.41543219,-75.32595260,67.79827084,28.94299079
15.77857587,20.96280247,-2.92945064,0.30994606,1.27586748

>  <Name>
ligand

>  <RI>
0

>  <Rbt.Current_Directory>
/home/itssahil/PROJECTS/Mol_Feturizer/New_Systems/rnas/3DIZ

>  <Rbt.Executable>
rbdock ($Id: //depot/dev/client3/rdock/2013.1/src/exe/rbdock.cxx#4 $)

>  <Rbt.Library>
libRbt.so (2013.1, Build901 2013/11/27)

>  <Rbt.Parameter_File>
/export/apps/rDock/src/rDock_2013.1_src/data/scripts/dock_solv.prm

>  <Rbt.Receptor>
prm/blind_docking_60.prm

>  <SCORE>
-8.3085

>  <SCORE.INTER>
-9.06746

>  <SCORE.INTER.CONST>
1

>  <SCORE.INTER.POLAR>
0

>  <SCORE.INTER.ROT>
5

>  <SCORE.INTER.SOLV>
12.6202

>  <SCORE.INTER.VDW>
-17.185

>  <SCORE.INTER.norm>
-0.906746

>  <SCORE.INTRA>
0.758959

>  <SCORE.INTRA.DIHEDRAL>
-0.669063

>  <SCORE.INTRA.DIHEDRAL.0>
3.67053

>  <SCORE.INTRA.POLAR>
0

>  <SCORE.INTRA.POLAR.0>
0

>  <SCORE.INTRA.REPUL>
0

>  <SCORE.INTRA.REPUL.0>
0

>  <SCORE.INTRA.SOLV>
0.622622

>  <SCORE.INTRA.SOLV.lig_0>
-32.0553

>  <SCORE.INTRA.VDW>
0.782179

>  <SCORE.INTRA.VDW.0>
-0.571921

>  <SCORE.INTRA.norm>
0.0758959

>  <SCORE.RESTR>
0

>  <SCORE.RESTR.CAVITY>
0

>  <SCORE.RESTR.norm>
0

>  <SCORE.SYSTEM>
0

>  <SCORE.SYSTEM.CONST>
0

>  <SCORE.SYSTEM.DIHEDRAL>
0

>  <SCORE.SYSTEM.SOLV>
0

>  <SCORE.SYSTEM.norm>
0

>  <SCORE.heavy>
10

>  <SCORE.norm>
-0.83085

>  <RMSD>
5.058

$$$$
ligand
 OpenBabel11021811473D
libRbt.so/2013.1/901 2013/11/27
 10  9  0  0  0  0  0  0  0  0999 V2000
   28.0314   14.6540   18.8556 N   0  0  0  0  0  0  0  0  0  0  0  0
   28.2682   14.8453   20.3180 C   0  0  2  0  0  0  0  0  0  0  0  0
   26.9662   15.0855   21.0704 C   0  0  0  0  0  0  0  0  0  0  0  0
   25.8950   15.1758   20.4806 O   0  0  0  0  0  0  0  0  0  0  0  0
   29.2615   15.9829   20.5676 C   0  0  0  0  0  0  0  0  0  0  0  0
   29.7169   16.0907   22.0128 C   0  0  0  0  0  0  0  0  0  0  0  0
   30.7123   17.2280   22.2056 C   0  0  0  0  0  0  0  0  0  0  0  0
   32.0789   16.8438   21.6627 C   0  0  0  0  0  0  0  0  0  0  0  0
   32.0967   16.7282   20.1610 N   0  0  0  0  0  0  0  0  0  0  0  0
   26.9245   15.1689   22.2904 O   0  0  0  0  0  0  0  0  0  0  0  0
  2  1  1  6  0  0  0
  2  3  1  0  0  0  0
  2  5  1  0  0  0  0
  3  4  1  0  0  0  0
  3 10  1  0  0  0  0
  5  6  1  0  0  0  0
  6  7  1  0  0  0  0
  7  8  1  0  0  0  0
  8  9  1  0  0  0  0
M  END
>  <CHROM.1>
-3.79455072,-170.87547263,179.48619705,-75.42349753,68.78311010,28.95674493
15.77993572,20.97776190,-2.92040092,0.31353820,1.26509731

>  <Name>
ligand

>  <RI>
0

>  <Rbt.Current_Directory>
/home/itssahil/PROJECTS/Mol_Feturizer/New_Systems/rnas/3DIZ

>  <Rbt.Executable>
rbdock ($Id: //depot/dev/client3/rdock/2013.1/src/exe/rbdock.cxx#4 $)

>  <Rbt.Library>
libRbt.so (2013.1, Build901 2013/11/27)

>  <Rbt.Parameter_File>
/export/apps/rDock/src/rDock_2013.1_src/data/scripts/dock_solv.prm

>  <Rbt.Receptor>
prm/pocket_docking_6.prm

>  <SCORE>
-8.30379

>  <SCORE.INTER>
-9.03851

>  <SCORE.INTER.CONST>
1

>  <SCORE.INTER.POLAR>
0

>  <SCORE.INTER.ROT>
5

>  <SCORE.INTER.SOLV>
12.6139

>  <SCORE.INTER.VDW>
-17.1636

>  <SCORE.INTER.norm>
-0.903851

>  <SCORE.INTRA>
0.734715

>  <SCORE.INTRA.DIHEDRAL>
-0.616477

>  <SCORE.INTRA.DIHEDRAL.0>
3.67053

>  <SCORE.INTRA.POLAR>
0

>  <SCORE.INTRA.POLAR.0>
0

>  <SCORE.INTRA.REPUL>
0

>  <SCORE.INTRA.REPUL.0>
0

>  <SCORE.INTRA.SOLV>
0.591635

>  <SCORE.INTRA.SOLV.lig_0>
-32.0553

>  <SCORE.INTRA.VDW>
0.747136

>  <SCORE.INTRA.VDW.0>
-0.571921

>  <SCORE.INTRA.norm>
0.0734715

>  <SCORE.RESTR>
0

>  <SCORE.RESTR.CAVITY>
0

>  <SCORE.RESTR.norm>
0

>  <SCORE.SYSTEM>
0

>  <SCORE.SYSTEM.CONST>
0

>  <SCORE.SYSTEM.DIHEDRAL>
0

>  <SCORE.SYSTEM.SOLV>
0

>  <SCORE.SYSTEM.norm>
0

>  <SCORE.heavy>
10

>  <SCORE.norm>
-0.830379

>  <RMSD>
5.060

$$$$
ligand
 OpenBabel11021811473D
libRbt.so/2013.1/901 2013/11/27
 10  9  0  0  0  0  0  0  0  0999 V2000
   27.9936   14.6976   18.8238 N   0  0  0  0  0  0  0  0  0  0  0  0
   28.2474   14.8590   20.2870 C   0  0  2  0  0  0  0  0  0  0  0  0
   26.9553   15.0948   21.0578 C   0  0  0  0  0  0  0  0  0  0  0  0
   25.8778   15.1979   20.4817 O   0  0  0  0  0  0  0  0  0  0  0  0
   29.2524   15.9838   20.5476 C   0  0  0  0  0  0  0  0  0  0  0  0
   29.7082   16.0732   21.9939 C   0  0  0  0  0  0  0  0  0  0  0  0
   30.7043   17.2074   22.2007 C   0  0  0  0  0  0  0  0  0  0  0  0
   32.0725   16.8262   21.6595 C   0  0  0  0  0  0  0  0  0  0  0  0
   32.0910   16.7048   20.1582 N   0  0  0  0  0  0  0  0  0  0  0  0
   26.9282   15.1619   22.2791 O   0  0  0  0  0  0  0  0  0  0  0  0
  2  1  1  6  0  0  0
  2  3  1  0  0  0  0
  2  5  1  0  0  0  0
  3  4  1  0  0  0  0
  3 10  1  0  0  0  0
  5  6  1  0  0  0  0
  6  7  1  0  0  0  0
  7  8  1  0  0  0  0
  8  9  1  0  0  0  0
M  END
>  <CHROM.1>
-3.41020154,-171.73192322,-179.92476593,-75.73263327,67.96192728,28.94486237
15.78027969,20.96458804,-2.92463952,0.30903318,1.27996283

>  <Name>
ligand

>  <RI>
0

>  <Rbt.Current_Directory>
/home/itssahil/PROJECTS/Mol_Feturizer/New_Systems/rnas/3DIZ

>  <Rbt.Executable>
rbdock ($Id: //depot/dev/client3/rdock/2013.1/src/exe/rbdock.cxx#4 $)

>  <Rbt.Library>
libRbt.so (2013.1, Build901 2013/11/27)

>  <Rbt.Parameter_File>
/export/apps/rDock/src/rDock_2013.1_src/data/scripts/dock_solv.prm

>  <Rbt.Receptor>
prm/pocket_docking_8.prm

>  <SCORE>
-8.31147

>  <SCORE.INTER>
-9.06165

>  <SCORE.INTER.CONST>
1

>  <SCORE.INTER.POLAR>
0

>  <SCORE.INTER.ROT>
5

>  <SCORE.INTER.SOLV>
12.5899

>  <SCORE.INTER.VDW>
-17.1711

>  <SCORE.INTER.norm>
-0.906165

>  <SCORE.INTRA>
0.750184

>  <SCORE.INTRA.DIHEDRAL>
-0.688054

>  <SCORE.INTRA.DIHEDRAL.0>
3.67053

>  <SCORE.INTRA.POLAR>
0

>  <SCORE.INTRA.POLAR.0>
0

>  <SCORE.INTRA.REPUL>
0

>  <SCORE.INTRA.REPUL.0>
0

>  <SCORE.INTRA.SOLV>
0.603864

>  <SCORE.INTRA.SOLV.lig_0>
-32.0553

>  <SCORE.INTRA.VDW>
0.792279

>  <SCORE.INTRA.VDW.0>
-0.571921

>  <SCORE.INTRA.norm>
0.0750184

>  <SCORE.RESTR>
0

>  <SCORE.RESTR.CAVITY>
0

>  <SCORE.RESTR.norm>
0

>  <SCORE.SYSTEM>
0

>  <SCORE.SYSTEM.CONST>
0

>  <SCORE.SYSTEM.DIHEDRAL>
0

>  <SCORE.SYSTEM.SOLV>
0

>  <SCORE.SYSTEM.norm>
0

>  <SCORE.heavy>
10

>  <SCORE.norm>
-0.831147

>  <RMSD>
5.062

$$$$
ligand
 OpenBabel11021811473D
libRbt.so/2013.1/901 2013/11/27
 10  9  0  0  0  0  0  0  0  0999 V2000
   28.6123   15.8035   19.3790 N   0  0  0  0  0  0  0  0  0  0  0  0
   29.3381   14.8745   20.2964 C   0  0  2  0  0  0  0  0  0  0  0  0
   28.5619   14.6388   21.5852 C   0  0  0  0  0  0  0  0  0  0  0  0
   27.3559   14.8502   21.6522 O   0  0  0  0  0  0  0  0  0  0  0  0
   30.7484   15.3899   20.5941 C   0  0  0  0  0  0  0  0  0  0  0  0
   30.7712   16.7350   21.2996 C   0  0  0  0  0  0  0  0  0  0  0  0
   32.1893   17.1528   21.6685 C   0  0  0  0  0  0  0  0  0  0  0  0
   32.1813   18.4696   22.4273 C   0  0  0  0  0  0  0  0  0  0  0  0
   33.5606   18.9106   22.8418 N   0  0  0  0  0  0  0  0  0  0  0  0
   29.0951   14.2028   22.5964 O   0  0  0  0  0  0  0  0  0  0  0  0
  2  1  1  6  0  0  0
  2  3  1  0  0  0  0
  2  5  1  0  0  0  0
  3  4  1  0  0  0  0
  3 10  1  0  0  0  0
  5  6  1  0  0  0  0
  6  7  1  0  0  0  0
  7  8  1  0  0  0  0
  8  9  1  0  0  0  0
M  END
>  <CHROM.1>
20.49631647,61.94561999,175.61741246,-177.46151413,178.73264762,30.21525601
16.08803516,21.45940241,-3.03433427,0.69723956,1.73093088

>  <Name>
ligand

>  <RI>
0

>  <Rbt.Current_Directory>
/home/itssahil/PROJECTS/Mol_Feturizer/New_Systems/rnas/3DIZ

>  <Rbt.Executable>
rbdock ($Id: //depot/dev/client3/rdock/2013.1/src/exe/rbdock.cxx#4 $)

>  <Rbt.Library>
libRbt.so (2013.1, Build901 2013/11/27)

>  <Rbt.Parameter_File>
/export/apps/rDock/src/rDock_2013.1_src/data/scripts/dock_solv.prm

>  <Rbt.Receptor>
prm/pocket_docking_4.prm

>  <SCORE>
-7.47861

>  <SCORE.INTER>
-6.24208

>  <SCORE.INTER.CONST>
1

>  <SCORE.INTER.POLAR>
0

>  <SCORE.INTER.ROT>
5

>  <SCORE.INTER.SOLV>
13.4941

>  <SCORE.INTER.VDW>
-15.5927

>  <SCORE.INTER.norm>
-0.624208

>  <SCORE.INTRA>
-1.23653

>  <SCORE.INTRA.DIHEDRAL>
-2.0961

>  <SCORE.INTRA.DIHEDRAL.0>
3.67053

>  <SCORE.INTRA.POLAR>
0

>  <SCORE.INTRA.POLAR.0>
0

>  <SCORE.INTRA.REPUL>
0

>  <SCORE.INTRA.REPUL.0>
0

>  <SCORE.INTRA.SOLV>
-0.860237

>  <SCORE.INTRA.SOLV.lig_0>
-32.0553

>  <SCORE.INTRA.VDW>
0.241642

>  <SCORE.INTRA.VDW.0>
-0.571921

>  <SCORE.INTRA.norm>
-0.123653

>  <SCORE.RESTR>
0

>  <SCORE.RESTR.CAVITY>
0

>  <SCORE.RESTR.norm>
0

>  <SCORE.SYSTEM>
0

>  <SCORE.SYSTEM.CONST>
0

>  <SCORE.SYSTEM.DIHEDRAL>
0

>  <SCORE.SYSTEM.SOLV>
0

>  <SCORE.SYSTEM.norm>
0

>  <SCORE.heavy>
10

>  <SCORE.norm>
-0.747861

>  <RMSD>
5.085

$$$$
ligand
 OpenBabel11021811473D
libRbt.so/2013.1/901 2013/11/27
 10  9  0  0  0  0  0  0  0  0999 V2000
   28.7864   14.4164   19.1668 N   0  0  0  0  0  0  0  0  0  0  0  0
   28.2393   14.4649   20.5559 C   0  0  2  0  0  0  0  0  0  0  0  0
   26.8690   15.1282   20.5963 C   0  0  0  0  0  0  0  0  0  0  0  0
   26.6039   16.0901   19.8836 O   0  0  0  0  0  0  0  0  0  0  0  0
   29.2145   15.1669   21.5043 C   0  0  0  0  0  0  0  0  0  0  0  0
   29.5789   16.5769   21.0724 C   0  0  0  0  0  0  0  0  0  0  0  0
   30.5591   17.2264   22.0413 C   0  0  0  0  0  0  0  0  0  0  0  0
   31.9241   16.5642   21.9492 C   0  0  0  0  0  0  0  0  0  0  0  0
   32.5823   16.7721   20.6105 N   0  0  0  0  0  0  0  0  0  0  0  0
   25.9671   14.7172   21.3136 O   0  0  0  0  0  0  0  0  0  0  0  0
  2  1  1  6  0  0  0
  2  3  1  0  0  0  0
  2  5  1  0  0  0  0
  3  4  1  0  0  0  0
  3 10  1  0  0  0  0
  5  6  1  0  0  0  0
  6  7  1  0  0  0  0
  7  8  1  0  0  0  0
  8  9  1  0  0  0  0
M  END
>  <CHROM.1>
-37.73038043,56.96688711,-179.51488617,69.65285410,65.21486646,28.99176690
15.72099174,20.86824631,-2.80625680,0.16196420,0.91397512

>  <Name>
ligand

>  <RI>
0

>  <Rbt.Current_Directory>
/home/itssahil/PROJECTS/Mol_Feturizer/New_Systems/rnas/3DIZ

>  <Rbt.Executable>
rbdock ($Id: //depot/dev/client3/rdock/2013.1/src/exe/rbdock.cxx#4 $)

>  <Rbt.Library>
libRbt.so (2013.1, Build901 2013/11/27)

>  <Rbt.Parameter_File>
/export/apps/rDock/src/rDock_2013.1_src/data/scripts/dock_solv.prm

>  <Rbt.Receptor>
prm/pocket_docking_8.prm

>  <SCORE>
-8.84893

>  <SCORE.INTER>
-8.82887

>  <SCORE.INTER.CONST>
1

>  <SCORE.INTER.POLAR>
0

>  <SCORE.INTER.ROT>
5

>  <SCORE.INTER.SOLV>
13.1809

>  <SCORE.INTER.VDW>
-17.2129

>  <SCORE.INTER.norm>
-0.882887

>  <SCORE.INTRA>
-0.0200679

>  <SCORE.INTRA.DIHEDRAL>
-1.58501

>  <SCORE.INTRA.DIHEDRAL.0>
3.67053

>  <SCORE.INTRA.POLAR>
0

>  <SCORE.INTRA.POLAR.0>
0

>  <SCORE.INTRA.REPUL>
0

>  <SCORE.INTRA.REPUL.0>
0

>  <SCORE.INTRA.SOLV>
0.609358

>  <SCORE.INTRA.SOLV.lig_0>
-32.0553

>  <SCORE.INTRA.VDW>
0.467756

>  <SCORE.INTRA.VDW.0>
-0.571921

>  <SCORE.INTRA.norm>
-0.00200679

>  <SCORE.RESTR>
0

>  <SCORE.RESTR.CAVITY>
0

>  <SCORE.RESTR.norm>
0

>  <SCORE.SYSTEM>
0

>  <SCORE.SYSTEM.CONST>
0

>  <SCORE.SYSTEM.DIHEDRAL>
0

>  <SCORE.SYSTEM.SOLV>
0

>  <SCORE.SYSTEM.norm>
0

>  <SCORE.heavy>
10

>  <SCORE.norm>
-0.884893

>  <RMSD>
5.102

$$$$
ligand
 OpenBabel11021811473D
libRbt.so/2013.1/901 2013/11/27
 10  9  0  0  0  0  0  0  0  0999 V2000
   28.9870   15.0190   19.4194 N   0  0  0  0  0  0  0  0  0  0  0  0
   28.1586   14.4002   20.4975 C   0  0  2  0  0  0  0  0  0  0  0  0
   26.7701   15.0220   20.5647 C   0  0  0  0  0  0  0  0  0  0  0  0
   25.9441   14.6521   21.3921 O   0  0  0  0  0  0  0  0  0  0  0  0
   28.8652   14.4929   21.8523 C   0  0  0  0  0  0  0  0  0  0  0  0
   28.9869   15.9112   22.3824 C   0  0  0  0  0  0  0  0  0  0  0  0
   30.0232   16.7147   21.6065 C   0  0  0  0  0  0  0  0  0  0  0  0
   31.4306   16.2804   21.9814 C   0  0  0  0  0  0  0  0  0  0  0  0
   32.4937   17.0735   21.2675 N   0  0  0  0  0  0  0  0  0  0  0  0
   26.4272   15.9322   19.8225 O   0  0  0  0  0  0  0  0  0  0  0  0
  2  1  1  6  0  0  0
  2  3  1  0  0  0  0
  2  5  1  0  0  0  0
  3  4  1  0  0  0  0
  3 10  1  0  0  0  0
  5  6  1  0  0  0  0
  6  7  1  0  0  0  0
  7  8  1  0  0  0  0
  8  9  1  0  0  0  0
M  END
>  <CHROM.1>
-179.58602987,67.77784558,-72.67357627,-74.17411172,-178.40745218,28.76854236
15.55822491,21.07714643,-2.98247688,0.33522477,1.67985597

>  <Name>
ligand

>  <RI>
0

>  <Rbt.Current_Directory>
/home/itssahil/PROJECTS/Mol_Feturizer/New_Systems/rnas/3DIZ

>  <Rbt.Executable>
rbdock ($Id: //depot/dev/client3/rdock/2013.1/src/exe/rbdock.cxx#4 $)

>  <Rbt.Library>
libRbt.so (2013.1, Build901 2013/11/27)

>  <Rbt.Parameter_File>
/export/apps/rDock/src/rDock_2013.1_src/data/scripts/dock_solv.prm

>  <Rbt.Receptor>
prm/pocket_docking_4.prm

>  <SCORE>
-8.79126

>  <SCORE.INTER>
-9.80474

>  <SCORE.INTER.CONST>
1

>  <SCORE.INTER.POLAR>
0

>  <SCORE.INTER.ROT>
5

>  <SCORE.INTER.SOLV>
11.5768

>  <SCORE.INTER.VDW>
-17.3288

>  <SCORE.INTER.norm>
-0.980474

>  <SCORE.INTRA>
1.01348

>  <SCORE.INTRA.DIHEDRAL>
-0.490179

>  <SCORE.INTRA.DIHEDRAL.0>
3.67053

>  <SCORE.INTRA.POLAR>
0

>  <SCORE.INTRA.POLAR.0>
0

>  <SCORE.INTRA.REPUL>
0

>  <SCORE.INTRA.REPUL.0>
0

>  <SCORE.INTRA.SOLV>
1.05905

>  <SCORE.INTRA.SOLV.lig_0>
-32.0553

>  <SCORE.INTRA.VDW>
0.729042

>  <SCORE.INTRA.VDW.0>
-0.571921

>  <SCORE.INTRA.norm>
0.101348

>  <SCORE.RESTR>
0

>  <SCORE.RESTR.CAVITY>
0

>  <SCORE.RESTR.norm>
0

>  <SCORE.SYSTEM>
0

>  <SCORE.SYSTEM.CONST>
0

>  <SCORE.SYSTEM.DIHEDRAL>
0

>  <SCORE.SYSTEM.SOLV>
0

>  <SCORE.SYSTEM.norm>
0

>  <SCORE.heavy>
10

>  <SCORE.norm>
-0.879126

>  <RMSD>
5.120

$$$$
ligand
 OpenBabel11021811473D
libRbt.so/2013.1/901 2013/11/27
 10  9  0  0  0  0  0  0  0  0999 V2000
   28.9274   15.1680   19.4212 N   0  0  0  0  0  0  0  0  0  0  0  0
   28.1220   14.4435   20.4498 C   0  0  2  0  0  0  0  0  0  0  0  0
   26.7275   15.0387   20.5917 C   0  0  0  0  0  0  0  0  0  0  0  0
   26.3340   15.9286   19.8456 O   0  0  0  0  0  0  0  0  0  0  0  0
   28.8471   14.4224   21.7978 C   0  0  0  0  0  0  0  0  0  0  0  0
   28.9667   15.7896   22.4489 C   0  0  0  0  0  0  0  0  0  0  0  0
   29.9449   16.6859   21.6997 C   0  0  0  0  0  0  0  0  0  0  0  0
   31.3755   16.2222   21.9201 C   0  0  0  0  0  0  0  0  0  0  0  0
   32.3860   17.1128   21.2461 N   0  0  0  0  0  0  0  0  0  0  0  0
   25.9309   14.6393   21.4301 O   0  0  0  0  0  0  0  0  0  0  0  0
  2  1  1  6  0  0  0
  2  3  1  0  0  0  0
  2  5  1  0  0  0  0
  3  4  1  0  0  0  0
  3 10  1  0  0  0  0
  5  6  1  0  0  0  0
  6  7  1  0  0  0  0
  7  8  1  0  0  0  0
  8  9  1  0  0  0  0
M  END
>  <CHROM.1>
5.64660945,67.45948158,-70.38506705,-71.98822289,-177.56027554,28.71581406
15.55274192,21.08438046,-3.01673519,0.34309230,1.77219880

>  <Name>
ligand

>  <RI>
0

>  <Rbt.Current_Directory>
/home/itssahil/PROJECTS/Mol_Feturizer/New_Systems/rnas/3DIZ

>  <Rbt.Executable>
rbdock ($Id: //depot/dev/client3/rdock/2013.1/src/exe/rbdock.cxx#4 $)

>  <Rbt.Library>
libRbt.so (2013.1, Build901 2013/11/27)

>  <Rbt.Parameter_File>
/export/apps/rDock/src/rDock_2013.1_src/data/scripts/dock_solv.prm

>  <Rbt.Receptor>
prm/pocket_docking_5.prm

>  <SCORE>
-8.91059

>  <SCORE.INTER>
-9.96972

>  <SCORE.INTER.CONST>
1

>  <SCORE.INTER.POLAR>
0

>  <SCORE.INTER.ROT>
5

>  <SCORE.INTER.SOLV>
11.0585

>  <SCORE.INTER.VDW>
-17.266

>  <SCORE.INTER.norm>
-0.996972

>  <SCORE.INTRA>
1.05913

>  <SCORE.INTRA.DIHEDRAL>
-0.934132

>  <SCORE.INTRA.DIHEDRAL.0>
3.67053

>  <SCORE.INTRA.POLAR>
0

>  <SCORE.INTRA.POLAR.0>
0

>  <SCORE.INTRA.REPUL>
0

>  <SCORE.INTRA.REPUL.0>
0

>  <SCORE.INTRA.SOLV>
1.21978

>  <SCORE.INTRA.SOLV.lig_0>
-32.0553

>  <SCORE.INTRA.VDW>
0.916305

>  <SCORE.INTRA.VDW.0>
-0.571921

>  <SCORE.INTRA.norm>
0.105913

>  <SCORE.RESTR>
0

>  <SCORE.RESTR.CAVITY>
0

>  <SCORE.RESTR.norm>
0

>  <SCORE.SYSTEM>
0

>  <SCORE.SYSTEM.CONST>
0

>  <SCORE.SYSTEM.DIHEDRAL>
0

>  <SCORE.SYSTEM.SOLV>
0

>  <SCORE.SYSTEM.norm>
0

>  <SCORE.heavy>
10

>  <SCORE.norm>
-0.891059

>  <RMSD>
5.123

$$$$
ligand
 OpenBabel11021811473D
libRbt.so/2013.1/901 2013/11/27
 10  9  0  0  0  0  0  0  0  0999 V2000
   28.7130   14.2154   19.0708 N   0  0  0  0  0  0  0  0  0  0  0  0
   28.0344   14.3163   20.3977 C   0  0  2  0  0  0  0  0  0  0  0  0
   26.9162   15.3500   20.3788 C   0  0  0  0  0  0  0  0  0  0  0  0
   27.0707   16.4484   19.8561 O   0  0  0  0  0  0  0  0  0  0  0  0
   29.0436   14.6231   21.5070 C   0  0  0  0  0  0  0  0  0  0  0  0
   29.9248   15.8257   21.2160 C   0  0  0  0  0  0  0  0  0  0  0  0
   30.9213   16.0782   22.3406 C   0  0  0  0  0  0  0  0  0  0  0  0
   31.8783   17.1990   21.9690 C   0  0  0  0  0  0  0  0  0  0  0  0
   32.7546   16.8502   20.7945 N   0  0  0  0  0  0  0  0  0  0  0  0
   25.8115   15.1236   20.8535 O   0  0  0  0  0  0  0  0  0  0  0  0
  2  1  1  6  0  0  0
  2  3  1  0  0  0  0
  2  5  1  0  0  0  0
  3  4  1  0  0  0  0
  3 10  1  0  0  0  0
  5  6  1  0  0  0  0
  6  7  1  0  0  0  0
  7  8  1  0  0  0  0
  8  9  1  0  0  0  0
M  END
>  <CHROM.1>
-44.37927674,52.18392528,-179.30769426,174.52784417,-64.61498336,29.07080797
15.62092798,20.83486317,-2.76608112,0.02219538,0.75368168

>  <Name>
ligand

>  <RI>
0

>  <Rbt.Current_Directory>
/home/itssahil/PROJECTS/Mol_Feturizer/New_Systems/rnas/3DIZ

>  <Rbt.Executable>
rbdock ($Id: //depot/dev/client3/rdock/2013.1/src/exe/rbdock.cxx#4 $)

>  <Rbt.Library>
libRbt.so (2013.1, Build901 2013/11/27)

>  <Rbt.Parameter_File>
/export/apps/rDock/src/rDock_2013.1_src/data/scripts/dock_solv.prm

>  <Rbt.Receptor>
prm/pocket_docking_5.prm

>  <SCORE>
-9.26468

>  <SCORE.INTER>
-8.46715

>  <SCORE.INTER.CONST>
1

>  <SCORE.INTER.POLAR>
0

>  <SCORE.INTER.ROT>
5

>  <SCORE.INTER.SOLV>
13.9611

>  <SCORE.INTER.VDW>
-17.2318

>  <SCORE.INTER.norm>
-0.846715

>  <SCORE.INTRA>
-0.797535

>  <SCORE.INTRA.DIHEDRAL>
-1.6651

>  <SCORE.INTRA.DIHEDRAL.0>
3.67053

>  <SCORE.INTRA.POLAR>
0

>  <SCORE.INTRA.POLAR.0>
0

>  <SCORE.INTRA.REPUL>
0

>  <SCORE.INTRA.REPUL.0>
0

>  <SCORE.INTRA.SOLV>
0.227545

>  <SCORE.INTRA.SOLV.lig_0>
-32.0553

>  <SCORE.INTRA.VDW>
-0.0787546

>  <SCORE.INTRA.VDW.0>
-0.571921

>  <SCORE.INTRA.norm>
-0.0797535

>  <SCORE.RESTR>
0

>  <SCORE.RESTR.CAVITY>
0

>  <SCORE.RESTR.norm>
0

>  <SCORE.SYSTEM>
0

>  <SCORE.SYSTEM.CONST>
0

>  <SCORE.SYSTEM.DIHEDRAL>
0

>  <SCORE.SYSTEM.SOLV>
0

>  <SCORE.SYSTEM.norm>
0

>  <SCORE.heavy>
10

>  <SCORE.norm>
-0.926468

>  <RMSD>
5.126

$$$$
ligand
 OpenBabel11021811473D
libRbt.so/2013.1/901 2013/11/27
 10  9  0  0  0  0  0  0  0  0999 V2000
   27.8240   16.6536   19.6010 N   0  0  0  0  0  0  0  0  0  0  0  0
   27.5386   15.2152   19.8854 C   0  0  2  0  0  0  0  0  0  0  0  0
   26.7203   15.0467   21.1587 C   0  0  0  0  0  0  0  0  0  0  0  0
   27.1965   15.2936   22.2613 O   0  0  0  0  0  0  0  0  0  0  0  0
   28.8345   14.4037   19.9573 C   0  0  0  0  0  0  0  0  0  0  0  0
   29.8663   14.9828   20.9099 C   0  0  0  0  0  0  0  0  0  0  0  0
   30.6275   16.1417   20.2781 C   0  0  0  0  0  0  0  0  0  0  0  0
   31.6856   16.6727   21.2312 C   0  0  0  0  0  0  0  0  0  0  0  0
   31.0932   17.3498   22.4393 N   0  0  0  0  0  0  0  0  0  0  0  0
   25.5504   14.6891   21.1387 O   0  0  0  0  0  0  0  0  0  0  0  0
  2  1  1  1  0  0  0
  2  3  1  0  0  0  0
  2  5  1  0  0  0  0
  3  4  1  0  0  0  0
  3 10  1  0  0  0  0
  5  6  1  0  0  0  0
  6  7  1  0  0  0  0
  7  8  1  0  0  0  0
  8  9  1  0  0  0  0
M  END
>  <CHROM.1>
-68.66567400,52.41915716,-79.96126229,-178.04037584,-67.96979938,28.66503674
15.63786290,20.91205847,-2.97267967,0.29855841,1.26176714

>  <Name>
ligand

>  <RI>
0

>  <Rbt.Current_Directory>
/home/itssahil/PROJECTS/Mol_Feturizer/New_Systems/rnas/3DIZ

>  <Rbt.Executable>
rbdock ($Id: //depot/dev/client3/rdock/2013.1/src/exe/rbdock.cxx#4 $)

>  <Rbt.Library>
libRbt.so (2013.1, Build901 2013/11/27)

>  <Rbt.Parameter_File>
/export/apps/rDock/src/rDock_2013.1_src/data/scripts/dock_solv.prm

>  <Rbt.Receptor>
prm/pocket_docking_4.prm

>  <SCORE>
-7.52785

>  <SCORE.INTER>
-8.50318

>  <SCORE.INTER.CONST>
1

>  <SCORE.INTER.POLAR>
0

>  <SCORE.INTER.ROT>
5

>  <SCORE.INTER.SOLV>
14.1735

>  <SCORE.INTER.VDW>
-17.3266

>  <SCORE.INTER.norm>
-0.850318

>  <SCORE.INTRA>
0.975334

>  <SCORE.INTRA.DIHEDRAL>
-0.181615

>  <SCORE.INTRA.DIHEDRAL.0>
3.67053

>  <SCORE.INTRA.POLAR>
0

>  <SCORE.INTRA.POLAR.0>
0

>  <SCORE.INTRA.REPUL>
0

>  <SCORE.INTRA.REPUL.0>
0

>  <SCORE.INTRA.SOLV>
1.57104

>  <SCORE.INTRA.SOLV.lig_0>
-32.0553

>  <SCORE.INTRA.VDW>
0.280619

>  <SCORE.INTRA.VDW.0>
-0.571921

>  <SCORE.INTRA.norm>
0.0975334

>  <SCORE.RESTR>
0

>  <SCORE.RESTR.CAVITY>
0

>  <SCORE.RESTR.norm>
0

>  <SCORE.SYSTEM>
0

>  <SCORE.SYSTEM.CONST>
0

>  <SCORE.SYSTEM.DIHEDRAL>
0

>  <SCORE.SYSTEM.SOLV>
0

>  <SCORE.SYSTEM.norm>
0

>  <SCORE.heavy>
10

>  <SCORE.norm>
-0.752785

>  <RMSD>
5.142

$$$$
ligand
 OpenBabel11021811473D
libRbt.so/2013.1/901 2013/11/27
 10  9  0  0  0  0  0  0  0  0999 V2000
   29.1824   14.8382   19.5256 N   0  0  0  0  0  0  0  0  0  0  0  0
   28.1822   14.4168   20.5520 C   0  0  2  0  0  0  0  0  0  0  0  0
   26.8964   15.2262   20.4476 C   0  0  0  0  0  0  0  0  0  0  0  0
   25.8882   14.9062   21.0679 O   0  0  0  0  0  0  0  0  0  0  0  0
   28.7724   14.5076   21.9614 C   0  0  0  0  0  0  0  0  0  0  0  0
   29.2613   15.8976   22.3309 C   0  0  0  0  0  0  0  0  0  0  0  0
   30.6387   16.1835   21.7455 C   0  0  0  0  0  0  0  0  0  0  0  0
   31.1178   17.5678   22.1505 C   0  0  0  0  0  0  0  0  0  0  0  0
   32.5365   17.8402   21.7241 N   0  0  0  0  0  0  0  0  0  0  0  0
   26.8190   16.2416   19.7694 O   0  0  0  0  0  0  0  0  0  0  0  0
  2  1  1  6  0  0  0
  2  3  1  0  0  0  0
  2  5  1  0  0  0  0
  3  4  1  0  0  0  0
  3 10  1  0  0  0  0
  5  6  1  0  0  0  0
  6  7  1  0  0  0  0
  7  8  1  0  0  0  0
  8  9  1  0  0  0  0
M  END
>  <CHROM.1>
169.31244040,58.20187633,-80.34922729,-178.90393482,173.68707156,28.89131796
15.77440935,21.12164939,3.09959800,0.49574202,2.23631171

>  <Name>
ligand

>  <RI>
0

>  <Rbt.Current_Directory>
/home/itssahil/PROJECTS/Mol_Feturizer/New_Systems/rnas/3DIZ

>  <Rbt.Executable>
rbdock ($Id: //depot/dev/client3/rdock/2013.1/src/exe/rbdock.cxx#4 $)

>  <Rbt.Library>
libRbt.so (2013.1, Build901 2013/11/27)

>  <Rbt.Parameter_File>
/export/apps/rDock/src/rDock_2013.1_src/data/scripts/dock_solv.prm

>  <Rbt.Receptor>
prm/pocket_docking_4.prm

>  <SCORE>
-9.31706

>  <SCORE.INTER>
-9.40788

>  <SCORE.INTER.CONST>
1

>  <SCORE.INTER.POLAR>
0

>  <SCORE.INTER.ROT>
5

>  <SCORE.INTER.SOLV>
12.9596

>  <SCORE.INTER.VDW>
-17.5251

>  <SCORE.INTER.norm>
-0.940788

>  <SCORE.INTRA>
0.090818

>  <SCORE.INTRA.DIHEDRAL>
-0.455162

>  <SCORE.INTRA.DIHEDRAL.0>
3.67053

>  <SCORE.INTRA.POLAR>
0

>  <SCORE.INTRA.POLAR.0>
0

>  <SCORE.INTRA.REPUL>
0

>  <SCORE.INTRA.REPUL.0>
0

>  <SCORE.INTRA.SOLV>
0.58957

>  <SCORE.INTRA.SOLV.lig_0>
-32.0553

>  <SCORE.INTRA.VDW>
0.0236139

>  <SCORE.INTRA.VDW.0>
-0.571921

>  <SCORE.INTRA.norm>
0.0090818

>  <SCORE.RESTR>
0

>  <SCORE.RESTR.CAVITY>
0

>  <SCORE.RESTR.norm>
0

>  <SCORE.SYSTEM>
0

>  <SCORE.SYSTEM.CONST>
0

>  <SCORE.SYSTEM.DIHEDRAL>
0

>  <SCORE.SYSTEM.SOLV>
0

>  <SCORE.SYSTEM.norm>
0

>  <SCORE.heavy>
10

>  <SCORE.norm>
-0.931706

>  <RMSD>
5.156

$$$$
ligand
 OpenBabel11021811473D
libRbt.so/2013.1/901 2013/11/27
 10  9  0  0  0  0  0  0  0  0999 V2000
   29.1509   14.8684   19.5176 N   0  0  0  0  0  0  0  0  0  0  0  0
   28.1613   14.4259   20.5453 C   0  0  2  0  0  0  0  0  0  0  0  0
   26.8726   15.2336   20.4676 C   0  0  0  0  0  0  0  0  0  0  0  0
   26.7929   16.2442   19.7777 O   0  0  0  0  0  0  0  0  0  0  0  0
   28.7643   14.4927   21.9507 C   0  0  0  0  0  0  0  0  0  0  0  0
   29.2425   15.8795   22.3453 C   0  0  0  0  0  0  0  0  0  0  0  0
   30.6133   16.1904   21.7573 C   0  0  0  0  0  0  0  0  0  0  0  0
   31.0760   17.5761   22.1764 C   0  0  0  0  0  0  0  0  0  0  0  0
   32.4738   17.8885   21.7102 N   0  0  0  0  0  0  0  0  0  0  0  0
   25.8566   14.8983   21.0612 O   0  0  0  0  0  0  0  0  0  0  0  0
  2  1  1  6  0  0  0
  2  3  1  0  0  0  0
  2  5  1  0  0  0  0
  3  4  1  0  0  0  0
  3 10  1  0  0  0  0
  5  6  1  0  0  0  0
  6  7  1  0  0  0  0
  7  8  1  0  0  0  0
  8  9  1  0  0  0  0
M  END
>  <CHROM.1>
-10.60864156,58.69469846,-80.56436039,-179.45100604,175.46600665,28.86213688
15.78129780,21.12483677,3.08281323,0.49948654,2.26681168

>  <Name>
ligand

>  <RI>
0

>  <Rbt.Current_Directory>
/home/itssahil/PROJECTS/Mol_Feturizer/New_Systems/rnas/3DIZ

>  <Rbt.Executable>
rbdock ($Id: //depot/dev/client3/rdock/2013.1/src/exe/rbdock.cxx#4 $)

>  <Rbt.Library>
libRbt.so (2013.1, Build901 2013/11/27)

>  <Rbt.Parameter_File>
/export/apps/rDock/src/rDock_2013.1_src/data/scripts/dock_solv.prm

>  <Rbt.Receptor>
prm/pocket_docking_3.prm

>  <SCORE>
-9.34748

>  <SCORE.INTER>
-9.43439

>  <SCORE.INTER.CONST>
1

>  <SCORE.INTER.POLAR>
0

>  <SCORE.INTER.ROT>
5

>  <SCORE.INTER.SOLV>
12.9112

>  <SCORE.INTER.VDW>
-17.5267

>  <SCORE.INTER.norm>
-0.943439

>  <SCORE.INTRA>
0.0869049

>  <SCORE.INTRA.DIHEDRAL>
-0.434425

>  <SCORE.INTRA.DIHEDRAL.0>
3.67053

>  <SCORE.INTRA.POLAR>
0

>  <SCORE.INTRA.POLAR.0>
0

>  <SCORE.INTRA.REPUL>
0

>  <SCORE.INTRA.REPUL.0>
0

>  <SCORE.INTRA.SOLV>
0.586199

>  <SCORE.INTRA.SOLV.lig_0>
-32.0553

>  <SCORE.INTRA.VDW>
0.0110183

>  <SCORE.INTRA.VDW.0>
-0.571921

>  <SCORE.INTRA.norm>
0.00869049

>  <SCORE.RESTR>
0

>  <SCORE.RESTR.CAVITY>
0

>  <SCORE.RESTR.norm>
0

>  <SCORE.SYSTEM>
0

>  <SCORE.SYSTEM.CONST>
0

>  <SCORE.SYSTEM.DIHEDRAL>
0

>  <SCORE.SYSTEM.SOLV>
0

>  <SCORE.SYSTEM.norm>
0

>  <SCORE.heavy>
10

>  <SCORE.norm>
-0.934748

>  <RMSD>
5.162

$$$$
ligand
 OpenBabel11021811473D
libRbt.so/2013.1/901 2013/11/27
 10  9  0  0  0  0  0  0  0  0999 V2000
   27.6067   14.9838   18.8283 N   0  0  0  0  0  0  0  0  0  0  0  0
   27.9893   14.9438   20.2717 C   0  0  2  0  0  0  0  0  0  0  0  0
   26.7663   14.9927   21.1778 C   0  0  0  0  0  0  0  0  0  0  0  0
   26.8734   15.1728   22.3859 O   0  0  0  0  0  0  0  0  0  0  0  0
   28.9662   16.0725   20.6106 C   0  0  0  0  0  0  0  0  0  0  0  0
   29.7536   15.8363   21.8881 C   0  0  0  0  0  0  0  0  0  0  0  0
   30.6641   17.0138   22.2135 C   0  0  0  0  0  0  0  0  0  0  0  0
   31.6649   17.2448   21.0932 C   0  0  0  0  0  0  0  0  0  0  0  0
   32.5003   16.0264   20.7991 N   0  0  0  0  0  0  0  0  0  0  0  0
   25.6280   14.8856   20.7421 O   0  0  0  0  0  0  0  0  0  0  0  0
  2  1  1  6  0  0  0
  2  3  1  0  0  0  0
  2  5  1  0  0  0  0
  3  4  1  0  0  0  0
  3 10  1  0  0  0  0
  5  6  1  0  0  0  0
  6  7  1  0  0  0  0
  7  8  1  0  0  0  0
  8  9  1  0  0  0  0
M  END
>  <CHROM.1>
-168.84426757,-160.44093664,-177.45767312,-60.14969960,-56.84328123,28.80425156
15.71395115,21.01978270,-2.97655663,0.29266990,1.33797445

>  <Name>
ligand

>  <RI>
0

>  <Rbt.Current_Directory>
/home/itssahil/PROJECTS/Mol_Feturizer/New_Systems/rnas/3DIZ

>  <Rbt.Executable>
rbdock ($Id: //depot/dev/client3/rdock/2013.1/src/exe/rbdock.cxx#4 $)

>  <Rbt.Library>
libRbt.so (2013.1, Build901 2013/11/27)

>  <Rbt.Parameter_File>
/export/apps/rDock/src/rDock_2013.1_src/data/scripts/dock_solv.prm

>  <Rbt.Receptor>
prm/pocket_docking_5.prm

>  <SCORE>
-7.44797

>  <SCORE.INTER>
-8.38357

>  <SCORE.INTER.CONST>
1

>  <SCORE.INTER.POLAR>
0

>  <SCORE.INTER.ROT>
5

>  <SCORE.INTER.SOLV>
13.3913

>  <SCORE.INTER.VDW>
-16.9861

>  <SCORE.INTER.norm>
-0.838357

>  <SCORE.INTRA>
0.935606

>  <SCORE.INTRA.DIHEDRAL>
-0.72929

>  <SCORE.INTRA.DIHEDRAL.0>
3.67053

>  <SCORE.INTRA.POLAR>
0

>  <SCORE.INTRA.POLAR.0>
0

>  <SCORE.INTRA.REPUL>
0

>  <SCORE.INTRA.REPUL.0>
0

>  <SCORE.INTRA.SOLV>
0.0060751

>  <SCORE.INTRA.SOLV.lig_0>
-32.0553

>  <SCORE.INTRA.VDW>
1.29721

>  <SCORE.INTRA.VDW.0>
-0.571921

>  <SCORE.INTRA.norm>
0.0935606

>  <SCORE.RESTR>
0

>  <SCORE.RESTR.CAVITY>
0

>  <SCORE.RESTR.norm>
0

>  <SCORE.SYSTEM>
0

>  <SCORE.SYSTEM.CONST>
0

>  <SCORE.SYSTEM.DIHEDRAL>
0

>  <SCORE.SYSTEM.SOLV>
0

>  <SCORE.SYSTEM.norm>
0

>  <SCORE.heavy>
10

>  <SCORE.norm>
-0.744797

>  <RMSD>
5.173

$$$$
ligand
 OpenBabel11021811473D
libRbt.so/2013.1/901 2013/11/27
 10  9  0  0  0  0  0  0  0  0999 V2000
   29.1617   14.9419   19.5368 N   0  0  0  0  0  0  0  0  0  0  0  0
   28.1732   14.4454   20.5407 C   0  0  2  0  0  0  0  0  0  0  0  0
   26.8631   15.2184   20.4677 C   0  0  0  0  0  0  0  0  0  0  0  0
   26.7560   16.2305   19.7838 O   0  0  0  0  0  0  0  0  0  0  0  0
   28.7578   14.4930   21.9546 C   0  0  0  0  0  0  0  0  0  0  0  0
   29.2248   15.8755   22.3767 C   0  0  0  0  0  0  0  0  0  0  0  0
   30.5828   16.2181   21.7767 C   0  0  0  0  0  0  0  0  0  0  0  0
   31.0365   17.5971   22.2267 C   0  0  0  0  0  0  0  0  0  0  0  0
   32.4503   17.9087   21.8111 N   0  0  0  0  0  0  0  0  0  0  0  0
   25.8566   14.8520   21.0590 O   0  0  0  0  0  0  0  0  0  0  0  0
  2  1  1  6  0  0  0
  2  3  1  0  0  0  0
  2  5  1  0  0  0  0
  3  4  1  0  0  0  0
  3 10  1  0  0  0  0
  5  6  1  0  0  0  0
  6  7  1  0  0  0  0
  7  8  1  0  0  0  0
  8  9  1  0  0  0  0
M  END
>  <CHROM.1>
-9.29466351,57.20131115,-78.82317331,-179.29217626,172.38560966,28.84758952
15.78876821,21.14721170,3.10958592,0.51293144,2.22414657

>  <Name>
ligand

>  <RI>
0

>  <Rbt.Current_Directory>
/home/itssahil/PROJECTS/Mol_Feturizer/New_Systems/rnas/3DIZ

>  <Rbt.Executable>
rbdock ($Id: //depot/dev/client3/rdock/2013.1/src/exe/rbdock.cxx#4 $)

>  <Rbt.Library>
libRbt.so (2013.1, Build901 2013/11/27)

>  <Rbt.Parameter_File>
/export/apps/rDock/src/rDock_2013.1_src/data/scripts/dock_solv.prm

>  <Rbt.Receptor>
prm/pocket_docking_7.prm

>  <SCORE>
-9.37745

>  <SCORE.INTER>
-9.54682

>  <SCORE.INTER.CONST>
1

>  <SCORE.INTER.POLAR>
0

>  <SCORE.INTER.ROT>
5

>  <SCORE.INTER.SOLV>
12.6413

>  <SCORE.INTER.VDW>
-17.5116

>  <SCORE.INTER.norm>
-0.954682

>  <SCORE.INTRA>
0.169364

>  <SCORE.INTRA.DIHEDRAL>
-0.509768

>  <SCORE.INTRA.DIHEDRAL.0>
3.67053

>  <SCORE.INTRA.POLAR>
0

>  <SCORE.INTRA.POLAR.0>
0

>  <SCORE.INTRA.REPUL>
0

>  <SCORE.INTRA.REPUL.0>
0

>  <SCORE.INTRA.SOLV>
0.655209

>  <SCORE.INTRA.SOLV.lig_0>
-32.0553

>  <SCORE.INTRA.VDW>
0.0966431

>  <SCORE.INTRA.VDW.0>
-0.571921

>  <SCORE.INTRA.norm>
0.0169364

>  <SCORE.RESTR>
0

>  <SCORE.RESTR.CAVITY>
0

>  <SCORE.RESTR.norm>
0

>  <SCORE.SYSTEM>
0

>  <SCORE.SYSTEM.CONST>
0

>  <SCORE.SYSTEM.DIHEDRAL>
0

>  <SCORE.SYSTEM.SOLV>
0

>  <SCORE.SYSTEM.norm>
0

>  <SCORE.heavy>
10

>  <SCORE.norm>
-0.937745

>  <RMSD>
5.173

$$$$
ligand
 OpenBabel11021811473D
libRbt.so/2013.1/901 2013/11/27
 10  9  0  0  0  0  0  0  0  0999 V2000
   25.8982   15.4480   20.2295 N   0  0  0  0  0  0  0  0  0  0  0  0
   27.3823   15.4646   20.3982 C   0  0  2  0  0  0  0  0  0  0  0  0
   28.0820   14.6958   19.2853 C   0  0  0  0  0  0  0  0  0  0  0  0
   29.2574   14.9052   19.0057 O   0  0  0  0  0  0  0  0  0  0  0  0
   27.7832   14.9227   21.7725 C   0  0  0  0  0  0  0  0  0  0  0  0
   29.2846   14.8843   22.0002 C   0  0  0  0  0  0  0  0  0  0  0  0
   29.8909   16.2821   21.9915 C   0  0  0  0  0  0  0  0  0  0  0  0
   31.4042   16.2122   22.1147 C   0  0  0  0  0  0  0  0  0  0  0  0
   32.0574   17.5672   22.0369 N   0  0  0  0  0  0  0  0  0  0  0  0
   27.5176   13.8200   18.6439 O   0  0  0  0  0  0  0  0  0  0  0  0
  2  1  1  6  0  0  0
  2  3  1  0  0  0  0
  2  5  1  0  0  0  0
  3  4  1  0  0  0  0
  3 10  1  0  0  0  0
  5  6  1  0  0  0  0
  6  7  1  0  0  0  0
  7  8  1  0  0  0  0
  8  9  1  0  0  0  0
M  END
>  <CHROM.1>
158.16055744,178.78885382,63.90610138,-175.68061207,176.93523592,28.86423693
15.40035974,20.71734411,2.49465875,-0.21718282,-1.95986826

>  <Name>
ligand

>  <RI>
0

>  <Rbt.Current_Directory>
/home/itssahil/PROJECTS/Mol_Feturizer/New_Systems/rnas/3DIZ

>  <Rbt.Executable>
rbdock ($Id: //depot/dev/client3/rdock/2013.1/src/exe/rbdock.cxx#4 $)

>  <Rbt.Library>
libRbt.so (2013.1, Build901 2013/11/27)

>  <Rbt.Parameter_File>
/export/apps/rDock/src/rDock_2013.1_src/data/scripts/dock_solv.prm

>  <Rbt.Receptor>
prm/pocket_docking_2.prm

>  <SCORE>
-8.5948

>  <SCORE.INTER>
-7.07224

>  <SCORE.INTER.CONST>
1

>  <SCORE.INTER.POLAR>
0

>  <SCORE.INTER.ROT>
5

>  <SCORE.INTER.SOLV>
17.0851

>  <SCORE.INTER.VDW>
-17.3432

>  <SCORE.INTER.norm>
-0.707224

>  <SCORE.INTRA>
-1.52256

>  <SCORE.INTRA.DIHEDRAL>
-2.04055

>  <SCORE.INTRA.DIHEDRAL.0>
3.67053

>  <SCORE.INTRA.POLAR>
0

>  <SCORE.INTRA.POLAR.0>
0

>  <SCORE.INTRA.REPUL>
0

>  <SCORE.INTRA.REPUL.0>
0

>  <SCORE.INTRA.SOLV>
-1.48987

>  <SCORE.INTRA.SOLV.lig_0>
-32.0553

>  <SCORE.INTRA.VDW>
0.24265

>  <SCORE.INTRA.VDW.0>
-0.571921

>  <SCORE.INTRA.norm>
-0.152256

>  <SCORE.RESTR>
0

>  <SCORE.RESTR.CAVITY>
0

>  <SCORE.RESTR.norm>
0

>  <SCORE.SYSTEM>
0

>  <SCORE.SYSTEM.CONST>
0

>  <SCORE.SYSTEM.DIHEDRAL>
0

>  <SCORE.SYSTEM.SOLV>
0

>  <SCORE.SYSTEM.norm>
0

>  <SCORE.heavy>
10

>  <SCORE.norm>
-0.85948

>  <RMSD>
5.176

$$$$
ligand
 OpenBabel11021811473D
libRbt.so/2013.1/901 2013/11/27
 10  9  0  0  0  0  0  0  0  0999 V2000
   28.5964   14.4972   19.0114 N   0  0  0  0  0  0  0  0  0  0  0  0
   28.0373   14.2644   20.3770 C   0  0  2  0  0  0  0  0  0  0  0  0
   26.7808   15.0906   20.6170 C   0  0  0  0  0  0  0  0  0  0  0  0
   25.9787   14.7927   21.4953 O   0  0  0  0  0  0  0  0  0  0  0  0
   29.0888   14.5431   21.4539 C   0  0  0  0  0  0  0  0  0  0  0  0
   29.8997   15.8033   21.2049 C   0  0  0  0  0  0  0  0  0  0  0  0
   30.9868   15.9896   22.2560 C   0  0  0  0  0  0  0  0  0  0  0  0
   31.8829   17.1644   21.8997 C   0  0  0  0  0  0  0  0  0  0  0  0
   32.6303   16.9555   20.6088 N   0  0  0  0  0  0  0  0  0  0  0  0
   26.5303   16.0985   19.9702 O   0  0  0  0  0  0  0  0  0  0  0  0
  2  1  1  6  0  0  0
  2  3  1  0  0  0  0
  2  5  1  0  0  0  0
  3  4  1  0  0  0  0
  3 10  1  0  0  0  0
  5  6  1  0  0  0  0
  6  7  1  0  0  0  0
  7  8  1  0  0  0  0
  8  9  1  0  0  0  0
M  END
>  <CHROM.1>
159.96961847,43.22996867,-176.49682239,173.55443835,-63.07201177,29.00230470
15.53290090,20.89290336,-2.90666673,0.27040286,1.33361691

>  <Name>
ligand

>  <RI>
0

>  <Rbt.Current_Directory>
/home/itssahil/PROJECTS/Mol_Feturizer/New_Systems/rnas/3DIZ

>  <Rbt.Executable>
rbdock ($Id: //depot/dev/client3/rdock/2013.1/src/exe/rbdock.cxx#4 $)

>  <Rbt.Library>
libRbt.so (2013.1, Build901 2013/11/27)

>  <Rbt.Parameter_File>
/export/apps/rDock/src/rDock_2013.1_src/data/scripts/dock_solv.prm

>  <Rbt.Receptor>
prm/pocket_docking_2.prm

>  <SCORE>
-8.62908

>  <SCORE.INTER>
-8.43218

>  <SCORE.INTER.CONST>
1

>  <SCORE.INTER.POLAR>
0

>  <SCORE.INTER.ROT>
5

>  <SCORE.INTER.SOLV>
13.6285

>  <SCORE.INTER.VDW>
-17.0976

>  <SCORE.INTER.norm>
-0.843218

>  <SCORE.INTRA>
-0.1969

>  <SCORE.INTRA.DIHEDRAL>
-0.891036

>  <SCORE.INTRA.DIHEDRAL.0>
3.67053

>  <SCORE.INTRA.POLAR>
0

>  <SCORE.INTRA.POLAR.0>
0

>  <SCORE.INTRA.REPUL>
0

>  <SCORE.INTRA.REPUL.0>
0

>  <SCORE.INTRA.SOLV>
0.364846

>  <SCORE.INTRA.SOLV.lig_0>
-32.0553

>  <SCORE.INTRA.VDW>
0.0661948

>  <SCORE.INTRA.VDW.0>
-0.571921

>  <SCORE.INTRA.norm>
-0.01969

>  <SCORE.RESTR>
0

>  <SCORE.RESTR.CAVITY>
0

>  <SCORE.RESTR.norm>
0

>  <SCORE.SYSTEM>
0

>  <SCORE.SYSTEM.CONST>
0

>  <SCORE.SYSTEM.DIHEDRAL>
0

>  <SCORE.SYSTEM.SOLV>
0

>  <SCORE.SYSTEM.norm>
0

>  <SCORE.heavy>
10

>  <SCORE.norm>
-0.862908

>  <RMSD>
5.181

$$$$
ligand
 OpenBabel11021811473D
libRbt.so/2013.1/901 2013/11/27
 10  9  0  0  0  0  0  0  0  0999 V2000
   28.7630   14.7725   19.1636 N   0  0  0  0  0  0  0  0  0  0  0  0
   28.0305   14.3042   20.3783 C   0  0  2  0  0  0  0  0  0  0  0  0
   26.7501   15.0977   20.6019 C   0  0  0  0  0  0  0  0  0  0  0  0
   25.9476   14.7828   21.4740 O   0  0  0  0  0  0  0  0  0  0  0  0
   28.9304   14.3586   21.6153 C   0  0  0  0  0  0  0  0  0  0  0  0
   29.6464   15.6866   21.7924 C   0  0  0  0  0  0  0  0  0  0  0  0
   30.8912   15.7755   20.9183 C   0  0  0  0  0  0  0  0  0  0  0  0
   31.5109   17.1606   21.0053 C   0  0  0  0  0  0  0  0  0  0  0  0
   32.0099   17.4888   22.3880 N   0  0  0  0  0  0  0  0  0  0  0  0
   26.4792   16.0954   19.9476 O   0  0  0  0  0  0  0  0  0  0  0  0
  2  1  1  6  0  0  0
  2  3  1  0  0  0  0
  2  5  1  0  0  0  0
  3  4  1  0  0  0  0
  3 10  1  0  0  0  0
  5  6  1  0  0  0  0
  6  7  1  0  0  0  0
  7  8  1  0  0  0  0
  8  9  1  0  0  0  0
M  END
>  <CHROM.1>
173.10466298,49.57241484,-81.22569689,174.28270412,63.88696745,28.85733760
15.56435699,20.93101990,-2.81496729,0.25548726,1.15570165

>  <Name>
ligand

>  <RI>
0

>  <Rbt.Current_Directory>
/home/itssahil/PROJECTS/Mol_Feturizer/New_Systems/rnas/3DIZ

>  <Rbt.Executable>
rbdock ($Id: //depot/dev/client3/rdock/2013.1/src/exe/rbdock.cxx#4 $)

>  <Rbt.Library>
libRbt.so (2013.1, Build901 2013/11/27)

>  <Rbt.Parameter_File>
/export/apps/rDock/src/rDock_2013.1_src/data/scripts/dock_solv.prm

>  <Rbt.Receptor>
prm/pocket_docking_2.prm

>  <SCORE>
-7.68559

>  <SCORE.INTER>
-8.90326

>  <SCORE.INTER.CONST>
1

>  <SCORE.INTER.POLAR>
0

>  <SCORE.INTER.ROT>
5

>  <SCORE.INTER.SOLV>
11.6889

>  <SCORE.INTER.VDW>
-16.7651

>  <SCORE.INTER.norm>
-0.890326

>  <SCORE.INTRA>
1.19803

>  <SCORE.INTRA.DIHEDRAL>
0.142429

>  <SCORE.INTRA.DIHEDRAL.0>
3.67053

>  <SCORE.INTRA.POLAR>
0

>  <SCORE.INTRA.POLAR.0>
0

>  <SCORE.INTRA.REPUL>
0

>  <SCORE.INTRA.REPUL.0>
0

>  <SCORE.INTRA.SOLV>
1.69684

>  <SCORE.INTRA.SOLV.lig_0>
-32.0553

>  <SCORE.INTRA.VDW>
0.278399

>  <SCORE.INTRA.VDW.0>
-0.571921

>  <SCORE.INTRA.norm>
0.119803

>  <SCORE.RESTR>
0.0196458

>  <SCORE.RESTR.CAVITY>
0.0196458

>  <SCORE.RESTR.norm>
0.00196458

>  <SCORE.SYSTEM>
0

>  <SCORE.SYSTEM.CONST>
0

>  <SCORE.SYSTEM.DIHEDRAL>
0

>  <SCORE.SYSTEM.SOLV>
0

>  <SCORE.SYSTEM.norm>
0

>  <SCORE.heavy>
10

>  <SCORE.norm>
-0.768559

>  <RMSD>
5.182

$$$$
ligand
 OpenBabel11021811473D
libRbt.so/2013.1/901 2013/11/27
 10  9  0  0  0  0  0  0  0  0999 V2000
   28.5659   14.2496   18.9923 N   0  0  0  0  0  0  0  0  0  0  0  0
   27.8677   14.2831   20.3125 C   0  0  2  0  0  0  0  0  0  0  0  0
   26.7408   15.3074   20.3252 C   0  0  0  0  0  0  0  0  0  0  0  0
   26.8943   16.4315   19.8601 O   0  0  0  0  0  0  0  0  0  0  0  0
   28.8584   14.5462   21.4493 C   0  0  0  0  0  0  0  0  0  0  0  0
   29.7098   15.7873   21.2432 C   0  0  0  0  0  0  0  0  0  0  0  0
   30.6916   15.9928   22.3900 C   0  0  0  0  0  0  0  0  0  0  0  0
   31.5718   17.2049   22.1330 C   0  0  0  0  0  0  0  0  0  0  0  0
   32.4598   17.0341   20.9285 N   0  0  0  0  0  0  0  0  0  0  0  0
   25.6304   15.0489   20.7691 O   0  0  0  0  0  0  0  0  0  0  0  0
  2  1  1  6  0  0  0
  2  3  1  0  0  0  0
  2  5  1  0  0  0  0
  3  4  1  0  0  0  0
  3 10  1  0  0  0  0
  5  6  1  0  0  0  0
  6  7  1  0  0  0  0
  7  8  1  0  0  0  0
  8  9  1  0  0  0  0
M  END
>  <CHROM.1>
-44.60531633,53.58247195,-179.15581019,177.57509376,-64.32310414,28.86305704
15.60614214,20.83700653,-2.72293781,0.00191893,0.73741470

>  <Name>
ligand

>  <RI>
0

>  <Rbt.Current_Directory>
/home/itssahil/PROJECTS/Mol_Feturizer/New_Systems/rnas/3DIZ

>  <Rbt.Executable>
rbdock ($Id: //depot/dev/client3/rdock/2013.1/src/exe/rbdock.cxx#4 $)

>  <Rbt.Library>
libRbt.so (2013.1, Build901 2013/11/27)

>  <Rbt.Parameter_File>
/export/apps/rDock/src/rDock_2013.1_src/data/scripts/dock_solv.prm

>  <Rbt.Receptor>
prm/pocket_docking_4.prm

>  <SCORE>
-9.29063

>  <SCORE.INTER>
-8.38667

>  <SCORE.INTER.CONST>
1

>  <SCORE.INTER.POLAR>
0

>  <SCORE.INTER.ROT>
5

>  <SCORE.INTER.SOLV>
13.264

>  <SCORE.INTER.VDW>
-16.9458

>  <SCORE.INTER.norm>
-0.838667

>  <SCORE.INTRA>
-0.903967

>  <SCORE.INTRA.DIHEDRAL>
-1.85424

>  <SCORE.INTRA.DIHEDRAL.0>
3.67053

>  <SCORE.INTRA.POLAR>
0

>  <SCORE.INTRA.POLAR.0>
0

>  <SCORE.INTRA.REPUL>
0

>  <SCORE.INTRA.REPUL.0>
0

>  <SCORE.INTRA.SOLV>
0.197433

>  <SCORE.INTRA.SOLV.lig_0>
-32.0553

>  <SCORE.INTRA.VDW>
-0.0755654

>  <SCORE.INTRA.VDW.0>
-0.571921

>  <SCORE.INTRA.norm>
-0.0903967

>  <SCORE.RESTR>
0

>  <SCORE.RESTR.CAVITY>
0

>  <SCORE.RESTR.norm>
0

>  <SCORE.SYSTEM>
0

>  <SCORE.SYSTEM.CONST>
0

>  <SCORE.SYSTEM.DIHEDRAL>
0

>  <SCORE.SYSTEM.SOLV>
0

>  <SCORE.SYSTEM.norm>
0

>  <SCORE.heavy>
10

>  <SCORE.norm>
-0.929063

>  <RMSD>
5.184

$$$$
ligand
 OpenBabel11021811473D
libRbt.so/2013.1/901 2013/11/27
 10  9  0  0  0  0  0  0  0  0999 V2000
   25.8488   15.5500   19.9979 N   0  0  0  0  0  0  0  0  0  0  0  0
   27.3237   15.3366   20.1022 C   0  0  2  0  0  0  0  0  0  0  0  0
   27.8545   14.5100   18.9386 C   0  0  0  0  0  0  0  0  0  0  0  0
   27.1127   13.7993   18.2692 O   0  0  0  0  0  0  0  0  0  0  0  0
   27.6904   14.6933   21.4419 C   0  0  0  0  0  0  0  0  0  0  0  0
   29.1787   14.7187   21.7450 C   0  0  0  0  0  0  0  0  0  0  0  0
   29.6645   16.1277   22.0615 C   0  0  0  0  0  0  0  0  0  0  0  0
   31.1799   16.1612   22.1730 C   0  0  0  0  0  0  0  0  0  0  0  0
   31.8652   15.9707   20.8453 N   0  0  0  0  0  0  0  0  0  0  0  0
   29.0303   14.5393   18.6015 O   0  0  0  0  0  0  0  0  0  0  0  0
  2  1  1  6  0  0  0
  2  3  1  0  0  0  0
  2  5  1  0  0  0  0
  3  4  1  0  0  0  0
  3 10  1  0  0  0  0
  5  6  1  0  0  0  0
  6  7  1  0  0  0  0
  7  8  1  0  0  0  0
  8  9  1  0  0  0  0
M  END
>  <CHROM.1>
-20.26851140,-167.58183574,70.85048585,-172.22922444,70.25459025,28.67931317
15.12095194,20.38556846,2.49935237,-0.08737262,-1.93331301

>  <Name>
ligand

>  <RI>
0

>  <Rbt.Current_Directory>
/home/itssahil/PROJECTS/Mol_Feturizer/New_Systems/rnas/3DIZ

>  <Rbt.Executable>
rbdock ($Id: //depot/dev/client3/rdock/2013.1/src/exe/rbdock.cxx#4 $)

>  <Rbt.Library>
libRbt.so (2013.1, Build901 2013/11/27)

>  <Rbt.Parameter_File>
/export/apps/rDock/src/rDock_2013.1_src/data/scripts/dock_solv.prm

>  <Rbt.Receptor>
prm/pocket_docking_7.prm

>  <SCORE>
-8.49815

>  <SCORE.INTER>
-7.8122

>  <SCORE.INTER.CONST>
1

>  <SCORE.INTER.POLAR>
0

>  <SCORE.INTER.ROT>
5

>  <SCORE.INTER.SOLV>
17.6275

>  <SCORE.INTER.VDW>
-18.0173

>  <SCORE.INTER.norm>
-0.78122

>  <SCORE.INTRA>
-0.685948

>  <SCORE.INTRA.DIHEDRAL>
-0.432578

>  <SCORE.INTRA.DIHEDRAL.0>
3.67053

>  <SCORE.INTRA.POLAR>
0

>  <SCORE.INTRA.POLAR.0>
0

>  <SCORE.INTRA.REPUL>
0

>  <SCORE.INTRA.REPUL.0>
0

>  <SCORE.INTRA.SOLV>
-0.467978

>  <SCORE.INTRA.SOLV.lig_0>
-32.0553

>  <SCORE.INTRA.VDW>
-0.23567

>  <SCORE.INTRA.VDW.0>
-0.571921

>  <SCORE.INTRA.norm>
-0.0685948

>  <SCORE.RESTR>
0

>  <SCORE.RESTR.CAVITY>
0

>  <SCORE.RESTR.norm>
0

>  <SCORE.SYSTEM>
0

>  <SCORE.SYSTEM.CONST>
0

>  <SCORE.SYSTEM.DIHEDRAL>
0

>  <SCORE.SYSTEM.SOLV>
0

>  <SCORE.SYSTEM.norm>
0

>  <SCORE.heavy>
10

>  <SCORE.norm>
-0.849815

>  <RMSD>
5.188

$$$$
ligand
 OpenBabel11021811473D
libRbt.so/2013.1/901 2013/11/27
 10  9  0  0  0  0  0  0  0  0999 V2000
   28.6926   16.8083   20.1409 N   0  0  0  0  0  0  0  0  0  0  0  0
   28.6377   15.4174   20.6830 C   0  0  2  0  0  0  0  0  0  0  0  0
   27.2206   14.8604   20.6561 C   0  0  0  0  0  0  0  0  0  0  0  0
   26.8005   14.2296   19.6921 O   0  0  0  0  0  0  0  0  0  0  0  0
   29.2218   15.3573   22.0966 C   0  0  0  0  0  0  0  0  0  0  0  0
   30.6993   15.7042   22.1627 C   0  0  0  0  0  0  0  0  0  0  0  0
   30.9370   17.1947   21.9545 C   0  0  0  0  0  0  0  0  0  0  0  0
   32.4240   17.5089   21.9698 C   0  0  0  0  0  0  0  0  0  0  0  0
   33.1557   16.9168   20.7938 N   0  0  0  0  0  0  0  0  0  0  0  0
   26.4518   14.9894   21.5991 O   0  0  0  0  0  0  0  0  0  0  0  0
  2  1  1  1  0  0  0
  2  3  1  0  0  0  0
  2  5  1  0  0  0  0
  3  4  1  0  0  0  0
  3 10  1  0  0  0  0
  5  6  1  0  0  0  0
  6  7  1  0  0  0  0
  7  8  1  0  0  0  0
  8  9  1  0  0  0  0
M  END
>  <CHROM.1>
91.04517340,-63.87076943,72.65511818,-177.74974346,66.89922272,29.38254060
15.88066290,21.17118487,-3.00476160,0.41584702,1.64896434

>  <Name>
ligand

>  <RI>
0

>  <Rbt.Current_Directory>
/home/itssahil/PROJECTS/Mol_Feturizer/New_Systems/rnas/3DIZ

>  <Rbt.Executable>
rbdock ($Id: //depot/dev/client3/rdock/2013.1/src/exe/rbdock.cxx#4 $)

>  <Rbt.Library>
libRbt.so (2013.1, Build901 2013/11/27)

>  <Rbt.Parameter_File>
/export/apps/rDock/src/rDock_2013.1_src/data/scripts/dock_solv.prm

>  <Rbt.Receptor>
prm/pocket_docking_2.prm

>  <SCORE>
-7.9758

>  <SCORE.INTER>
-8.61732

>  <SCORE.INTER.CONST>
1

>  <SCORE.INTER.POLAR>
0

>  <SCORE.INTER.ROT>
5

>  <SCORE.INTER.SOLV>
14.6264

>  <SCORE.INTER.VDW>
-17.5537

>  <SCORE.INTER.norm>
-0.861732

>  <SCORE.INTRA>
0.641518

>  <SCORE.INTRA.DIHEDRAL>
-1.19227

>  <SCORE.INTRA.DIHEDRAL.0>
3.67053

>  <SCORE.INTRA.POLAR>
0

>  <SCORE.INTRA.POLAR.0>
0

>  <SCORE.INTRA.REPUL>
0

>  <SCORE.INTRA.REPUL.0>
0

>  <SCORE.INTRA.SOLV>
1.50142

>  <SCORE.INTRA.SOLV.lig_0>
-32.0553

>  <SCORE.INTRA.VDW>
0.48694

>  <SCORE.INTRA.VDW.0>
-0.571921

>  <SCORE.INTRA.norm>
0.0641518

>  <SCORE.RESTR>
0

>  <SCORE.RESTR.CAVITY>
0

>  <SCORE.RESTR.norm>
0

>  <SCORE.SYSTEM>
0

>  <SCORE.SYSTEM.CONST>
0

>  <SCORE.SYSTEM.DIHEDRAL>
0

>  <SCORE.SYSTEM.SOLV>
0

>  <SCORE.SYSTEM.norm>
0

>  <SCORE.heavy>
10

>  <SCORE.norm>
-0.79758

>  <RMSD>
5.193

$$$$
ligand
 OpenBabel11021811473D
libRbt.so/2013.1/901 2013/11/27
 10  9  0  0  0  0  0  0  0  0999 V2000
   29.0174   14.8486   19.4334 N   0  0  0  0  0  0  0  0  0  0  0  0
   28.1452   14.3750   20.5498 C   0  0  2  0  0  0  0  0  0  0  0  0
   26.8378   15.1536   20.6093 C   0  0  0  0  0  0  0  0  0  0  0  0
   26.6856   16.1951   19.9803 O   0  0  0  0  0  0  0  0  0  0  0  0
   28.8839   14.4439   21.8887 C   0  0  0  0  0  0  0  0  0  0  0  0
   29.2630   15.8546   22.3057 C   0  0  0  0  0  0  0  0  0  0  0  0
   30.5388   16.3214   21.6158 C   0  0  0  0  0  0  0  0  0  0  0  0
   31.0453   17.6118   22.2391 C   0  0  0  0  0  0  0  0  0  0  0  0
   32.4816   17.9018   21.8900 N   0  0  0  0  0  0  0  0  0  0  0  0
   25.8764   14.7640   21.2581 O   0  0  0  0  0  0  0  0  0  0  0  0
  2  1  1  6  0  0  0
  2  3  1  0  0  0  0
  2  5  1  0  0  0  0
  3  4  1  0  0  0  0
  3 10  1  0  0  0  0
  5  6  1  0  0  0  0
  6  7  1  0  0  0  0
  7  8  1  0  0  0  0
  8  9  1  0  0  0  0
M  END
>  <CHROM.1>
-13.39534332,63.68784867,-81.43231383,-169.08598505,163.15340717,28.83873813
15.75762098,21.17416231,-2.65016609,0.17210234,0.84175331

>  <Name>
ligand

>  <RI>
0

>  <Rbt.Current_Directory>
/home/itssahil/PROJECTS/Mol_Feturizer/New_Systems/rnas/3DIZ

>  <Rbt.Executable>
rbdock ($Id: //depot/dev/client3/rdock/2013.1/src/exe/rbdock.cxx#4 $)

>  <Rbt.Library>
libRbt.so (2013.1, Build901 2013/11/27)

>  <Rbt.Parameter_File>
/export/apps/rDock/src/rDock_2013.1_src/data/scripts/dock_solv.prm

>  <Rbt.Receptor>
prm/pocket_docking_6.prm

>  <SCORE>
-8.74139

>  <SCORE.INTER>
-9.46003

>  <SCORE.INTER.CONST>
1

>  <SCORE.INTER.POLAR>
0

>  <SCORE.INTER.ROT>
5

>  <SCORE.INTER.SOLV>
12.7712

>  <SCORE.INTER.VDW>
-17.4971

>  <SCORE.INTER.norm>
-0.946003

>  <SCORE.INTRA>
0.718643

>  <SCORE.INTRA.DIHEDRAL>
1.14515

>  <SCORE.INTRA.DIHEDRAL.0>
3.67053

>  <SCORE.INTRA.POLAR>
0

>  <SCORE.INTRA.POLAR.0>
0

>  <SCORE.INTRA.REPUL>
0

>  <SCORE.INTRA.REPUL.0>
0

>  <SCORE.INTRA.SOLV>
0.401673

>  <SCORE.INTRA.SOLV.lig_0>
-32.0553

>  <SCORE.INTRA.VDW>
-0.0547667

>  <SCORE.INTRA.VDW.0>
-0.571921

>  <SCORE.INTRA.norm>
0.0718643

>  <SCORE.RESTR>
0

>  <SCORE.RESTR.CAVITY>
0

>  <SCORE.RESTR.norm>
0

>  <SCORE.SYSTEM>
0

>  <SCORE.SYSTEM.CONST>
0

>  <SCORE.SYSTEM.DIHEDRAL>
0

>  <SCORE.SYSTEM.SOLV>
0

>  <SCORE.SYSTEM.norm>
0

>  <SCORE.heavy>
10

>  <SCORE.norm>
-0.874139

>  <RMSD>
5.194

$$$$
ligand
 OpenBabel11021811473D
libRbt.so/2013.1/901 2013/11/27
 10  9  0  0  0  0  0  0  0  0999 V2000
   28.5829   14.3547   19.0053 N   0  0  0  0  0  0  0  0  0  0  0  0
   27.8707   14.2800   20.3164 C   0  0  2  0  0  0  0  0  0  0  0  0
   26.6735   15.2202   20.3587 C   0  0  0  0  0  0  0  0  0  0  0  0
   25.6406   14.9130   20.9438 O   0  0  0  0  0  0  0  0  0  0  0  0
   28.8286   14.5621   21.4766 C   0  0  0  0  0  0  0  0  0  0  0  0
   29.6451   15.8309   21.3004 C   0  0  0  0  0  0  0  0  0  0  0  0
   30.6767   15.9946   22.4097 C   0  0  0  0  0  0  0  0  0  0  0  0
   31.6141   17.1516   22.1052 C   0  0  0  0  0  0  0  0  0  0  0  0
   32.4350   16.9238   20.8631 N   0  0  0  0  0  0  0  0  0  0  0  0
   26.6968   16.3286   19.8411 O   0  0  0  0  0  0  0  0  0  0  0  0
  2  1  1  6  0  0  0
  2  3  1  0  0  0  0
  2  5  1  0  0  0  0
  3  4  1  0  0  0  0
  3 10  1  0  0  0  0
  5  6  1  0  0  0  0
  6  7  1  0  0  0  0
  7  8  1  0  0  0  0
  8  9  1  0  0  0  0
M  END
>  <CHROM.1>
143.86914471,50.50802297,-174.38940879,171.61728865,-63.56803841,28.82894775
15.57163675,20.86023805,-2.76584137,0.14240164,1.05281909

>  <Name>
ligand

>  <RI>
0

>  <Rbt.Current_Directory>
/home/itssahil/PROJECTS/Mol_Feturizer/New_Systems/rnas/3DIZ

>  <Rbt.Executable>
rbdock ($Id: //depot/dev/client3/rdock/2013.1/src/exe/rbdock.cxx#4 $)

>  <Rbt.Library>
libRbt.so (2013.1, Build901 2013/11/27)

>  <Rbt.Parameter_File>
/export/apps/rDock/src/rDock_2013.1_src/data/scripts/dock_solv.prm

>  <Rbt.Receptor>
prm/pocket_docking_4.prm

>  <SCORE>
-9.35244

>  <SCORE.INTER>
-8.71438

>  <SCORE.INTER.CONST>
1

>  <SCORE.INTER.POLAR>
0

>  <SCORE.INTER.ROT>
5

>  <SCORE.INTER.SOLV>
13.0392

>  <SCORE.INTER.VDW>
-17.0893

>  <SCORE.INTER.norm>
-0.871438

>  <SCORE.INTRA>
-0.638056

>  <SCORE.INTRA.DIHEDRAL>
-1.38692

>  <SCORE.INTRA.DIHEDRAL.0>
3.67053

>  <SCORE.INTRA.POLAR>
0

>  <SCORE.INTRA.POLAR.0>
0

>  <SCORE.INTRA.REPUL>
0

>  <SCORE.INTRA.REPUL.0>
0

>  <SCORE.INTRA.SOLV>
0.294053

>  <SCORE.INTRA.SOLV.lig_0>
-32.0553

>  <SCORE.INTRA.VDW>
-0.091621

>  <SCORE.INTRA.VDW.0>
-0.571921

>  <SCORE.INTRA.norm>
-0.0638056

>  <SCORE.RESTR>
0

>  <SCORE.RESTR.CAVITY>
0

>  <SCORE.RESTR.norm>
0

>  <SCORE.SYSTEM>
0

>  <SCORE.SYSTEM.CONST>
0

>  <SCORE.SYSTEM.DIHEDRAL>
0

>  <SCORE.SYSTEM.SOLV>
0

>  <SCORE.SYSTEM.norm>
0

>  <SCORE.heavy>
10

>  <SCORE.norm>
-0.935244

>  <RMSD>
5.207

$$$$
ligand
 OpenBabel11021811473D
libRbt.so/2013.1/901 2013/11/27
 10  9  0  0  0  0  0  0  0  0999 V2000
   25.9914   14.7305   21.2318 N   0  0  0  0  0  0  0  0  0  0  0  0
   27.3079   15.3577   20.9077 C   0  0  2  0  0  0  0  0  0  0  0  0
   27.4944   15.5260   19.4057 C   0  0  0  0  0  0  0  0  0  0  0  0
   28.0947   16.4888   18.9406 O   0  0  0  0  0  0  0  0  0  0  0  0
   28.4611   14.5551   21.5152 C   0  0  0  0  0  0  0  0  0  0  0  0
   29.8303   15.1589   21.2539 C   0  0  0  0  0  0  0  0  0  0  0  0
   29.9815   16.5203   21.9211 C   0  0  0  0  0  0  0  0  0  0  0  0
   31.1816   17.2640   21.3585 C   0  0  0  0  0  0  0  0  0  0  0  0
   32.4759   16.5226   21.5678 N   0  0  0  0  0  0  0  0  0  0  0  0
   27.0838   14.7003   18.6016 O   0  0  0  0  0  0  0  0  0  0  0  0
  2  1  1  6  0  0  0
  2  3  1  0  0  0  0
  2  5  1  0  0  0  0
  3  4  1  0  0  0  0
  3 10  1  0  0  0  0
  5  6  1  0  0  0  0
  6  7  1  0  0  0  0
  7  8  1  0  0  0  0
  8  9  1  0  0  0  0
M  END
>  <CHROM.1>
145.17655400,-178.50043968,64.33110857,-164.91874500,-60.09210607,28.78565507
15.68453334,20.63345822,2.91296590,-0.42455729,-1.24489708

>  <Name>
ligand

>  <RI>
0

>  <Rbt.Current_Directory>
/home/itssahil/PROJECTS/Mol_Feturizer/New_Systems/rnas/3DIZ

>  <Rbt.Executable>
rbdock ($Id: //depot/dev/client3/rdock/2013.1/src/exe/rbdock.cxx#4 $)

>  <Rbt.Library>
libRbt.so (2013.1, Build901 2013/11/27)

>  <Rbt.Parameter_File>
/export/apps/rDock/src/rDock_2013.1_src/data/scripts/dock_solv.prm

>  <Rbt.Receptor>
prm/pocket_docking_2.prm

>  <SCORE>
-7.5704

>  <SCORE.INTER>
-6.77103

>  <SCORE.INTER.CONST>
1

>  <SCORE.INTER.POLAR>
0

>  <SCORE.INTER.ROT>
5

>  <SCORE.INTER.SOLV>
18.7401

>  <SCORE.INTER.VDW>
-17.694

>  <SCORE.INTER.norm>
-0.677103

>  <SCORE.INTRA>
-0.799363

>  <SCORE.INTRA.DIHEDRAL>
-1.23719

>  <SCORE.INTRA.DIHEDRAL.0>
3.67053

>  <SCORE.INTRA.POLAR>
0

>  <SCORE.INTRA.POLAR.0>
0

>  <SCORE.INTRA.REPUL>
0

>  <SCORE.INTRA.REPUL.0>
0

>  <SCORE.INTRA.SOLV>
-0.557788

>  <SCORE.INTRA.SOLV.lig_0>
-32.0553

>  <SCORE.INTRA.VDW>
0.0981271

>  <SCORE.INTRA.VDW.0>
-0.571921

>  <SCORE.INTRA.norm>
-0.0799363

>  <SCORE.RESTR>
0

>  <SCORE.RESTR.CAVITY>
0

>  <SCORE.RESTR.norm>
0

>  <SCORE.SYSTEM>
0

>  <SCORE.SYSTEM.CONST>
0

>  <SCORE.SYSTEM.DIHEDRAL>
0

>  <SCORE.SYSTEM.SOLV>
0

>  <SCORE.SYSTEM.norm>
0

>  <SCORE.heavy>
10

>  <SCORE.norm>
-0.75704

>  <RMSD>
5.211

$$$$
ligand
 OpenBabel11021811473D
libRbt.so/2013.1/901 2013/11/27
 10  9  0  0  0  0  0  0  0  0999 V2000
   25.8392   15.5862   19.8586 N   0  0  0  0  0  0  0  0  0  0  0  0
   27.2987   15.3827   20.1035 C   0  0  2  0  0  0  0  0  0  0  0  0
   27.9228   14.4754   19.0517 C   0  0  0  0  0  0  0  0  0  0  0  0
   27.2346   13.7366   18.3559 O   0  0  0  0  0  0  0  0  0  0  0  0
   27.5467   14.8375   21.5122 C   0  0  0  0  0  0  0  0  0  0  0  0
   28.6958   15.5170   22.2371 C   0  0  0  0  0  0  0  0  0  0  0  0
   30.0431   15.1400   21.6336 C   0  0  0  0  0  0  0  0  0  0  0  0
   31.1664   15.9183   22.2988 C   0  0  0  0  0  0  0  0  0  0  0  0
   31.0806   17.3996   22.0396 N   0  0  0  0  0  0  0  0  0  0  0  0
   29.1266   14.4634   18.8330 O   0  0  0  0  0  0  0  0  0  0  0  0
  2  1  1  6  0  0  0
  2  3  1  0  0  0  0
  2  5  1  0  0  0  0
  3  4  1  0  0  0  0
  3 10  1  0  0  0  0
  5  6  1  0  0  0  0
  6  7  1  0  0  0  0
  7  8  1  0  0  0  0
  8  9  1  0  0  0  0
M  END
>  <CHROM.1>
-18.82885310,-135.75583773,-70.66347337,175.32750375,-65.18914770,28.60275161
15.22332658,20.56195341,2.36288052,-0.02213579,-2.07073843

>  <Name>
ligand

>  <RI>
0

>  <Rbt.Current_Directory>
/home/itssahil/PROJECTS/Mol_Feturizer/New_Systems/rnas/3DIZ

>  <Rbt.Executable>
rbdock ($Id: //depot/dev/client3/rdock/2013.1/src/exe/rbdock.cxx#4 $)

>  <Rbt.Library>
libRbt.so (2013.1, Build901 2013/11/27)

>  <Rbt.Parameter_File>
/export/apps/rDock/src/rDock_2013.1_src/data/scripts/dock_solv.prm

>  <Rbt.Receptor>
prm/pocket_docking_4.prm

>  <SCORE>
-6.88855

>  <SCORE.INTER>
-8.0277

>  <SCORE.INTER.CONST>
1

>  <SCORE.INTER.POLAR>
0

>  <SCORE.INTER.ROT>
5

>  <SCORE.INTER.SOLV>
17.0775

>  <SCORE.INTER.VDW>
-17.9776

>  <SCORE.INTER.norm>
-0.80277

>  <SCORE.INTRA>
1.13915

>  <SCORE.INTRA.DIHEDRAL>
3.34134

>  <SCORE.INTRA.DIHEDRAL.0>
3.67053

>  <SCORE.INTRA.POLAR>
0

>  <SCORE.INTRA.POLAR.0>
0

>  <SCORE.INTRA.REPUL>
0

>  <SCORE.INTRA.REPUL.0>
0

>  <SCORE.INTRA.SOLV>
-0.537084

>  <SCORE.INTRA.SOLV.lig_0>
-32.0553

>  <SCORE.INTRA.VDW>
-0.262972

>  <SCORE.INTRA.VDW.0>
-0.571921

>  <SCORE.INTRA.norm>
0.113915

>  <SCORE.RESTR>
0

>  <SCORE.RESTR.CAVITY>
0

>  <SCORE.RESTR.norm>
0

>  <SCORE.SYSTEM>
0

>  <SCORE.SYSTEM.CONST>
0

>  <SCORE.SYSTEM.DIHEDRAL>
0

>  <SCORE.SYSTEM.SOLV>
0

>  <SCORE.SYSTEM.norm>
0

>  <SCORE.heavy>
10

>  <SCORE.norm>
-0.688855

>  <RMSD>
5.212

$$$$
ligand
 OpenBabel11021811473D
libRbt.so/2013.1/901 2013/11/27
 10  9  0  0  0  0  0  0  0  0999 V2000
   27.9697   15.0482   18.9411 N   0  0  0  0  0  0  0  0  0  0  0  0
   28.0999   14.5896   20.3568 C   0  0  2  0  0  0  0  0  0  0  0  0
   26.8981   15.0063   21.1941 C   0  0  0  0  0  0  0  0  0  0  0  0
   25.7750   15.0792   20.7075 O   0  0  0  0  0  0  0  0  0  0  0  0
   29.4026   15.0981   20.9794 C   0  0  0  0  0  0  0  0  0  0  0  0
   29.5402   16.6107   20.9588 C   0  0  0  0  0  0  0  0  0  0  0  0
   30.8857   17.0608   21.5143 C   0  0  0  0  0  0  0  0  0  0  0  0
   32.0116   16.6860   20.5645 C   0  0  0  0  0  0  0  0  0  0  0  0
   33.3569   17.1719   21.0366 N   0  0  0  0  0  0  0  0  0  0  0  0
   26.9912   15.2565   22.3882 O   0  0  0  0  0  0  0  0  0  0  0  0
  2  1  1  6  0  0  0
  2  3  1  0  0  0  0
  2  5  1  0  0  0  0
  3  4  1  0  0  0  0
  3 10  1  0  0  0  0
  5  6  1  0  0  0  0
  6  7  1  0  0  0  0
  7  8  1  0  0  0  0
  8  9  1  0  0  0  0
M  END
>  <CHROM.1>
32.93371917,57.88083969,-176.67337191,69.77950358,177.09654477,29.05530611
15.76318736,20.88239038,-3.02800891,0.32161738,1.26047816

>  <Name>
ligand

>  <RI>
0

>  <Rbt.Current_Directory>
/home/itssahil/PROJECTS/Mol_Feturizer/New_Systems/rnas/3DIZ

>  <Rbt.Executable>
rbdock ($Id: //depot/dev/client3/rdock/2013.1/src/exe/rbdock.cxx#4 $)

>  <Rbt.Library>
libRbt.so (2013.1, Build901 2013/11/27)

>  <Rbt.Parameter_File>
/export/apps/rDock/src/rDock_2013.1_src/data/scripts/dock_solv.prm

>  <Rbt.Receptor>
prm/pocket_docking_4.prm

>  <SCORE>
-9.53402

>  <SCORE.INTER>
-9.41125

>  <SCORE.INTER.CONST>
1

>  <SCORE.INTER.POLAR>
0

>  <SCORE.INTER.ROT>
5

>  <SCORE.INTER.SOLV>
13.3272

>  <SCORE.INTER.VDW>
-17.6499

>  <SCORE.INTER.norm>
-0.941125

>  <SCORE.INTRA>
-0.122768

>  <SCORE.INTRA.DIHEDRAL>
-1.73662

>  <SCORE.INTRA.DIHEDRAL.0>
3.67053

>  <SCORE.INTRA.POLAR>
0

>  <SCORE.INTRA.POLAR.0>
0

>  <SCORE.INTRA.REPUL>
0

>  <SCORE.INTRA.REPUL.0>
0

>  <SCORE.INTRA.SOLV>
-0.538085

>  <SCORE.INTRA.SOLV.lig_0>
-32.0553

>  <SCORE.INTRA.VDW>
1.01458

>  <SCORE.INTRA.VDW.0>
-0.571921

>  <SCORE.INTRA.norm>
-0.0122768

>  <SCORE.RESTR>
0

>  <SCORE.RESTR.CAVITY>
0

>  <SCORE.RESTR.norm>
0

>  <SCORE.SYSTEM>
0

>  <SCORE.SYSTEM.CONST>
0

>  <SCORE.SYSTEM.DIHEDRAL>
0

>  <SCORE.SYSTEM.SOLV>
0

>  <SCORE.SYSTEM.norm>
0

>  <SCORE.heavy>
10

>  <SCORE.norm>
-0.953402

>  <RMSD>
5.214

$$$$
ligand
 OpenBabel11021811473D
libRbt.so/2013.1/901 2013/11/27
 10  9  0  0  0  0  0  0  0  0999 V2000
   29.2536   14.4625   19.7866 N   0  0  0  0  0  0  0  0  0  0  0  0
   28.1931   14.7108   20.8088 C   0  0  2  0  0  0  0  0  0  0  0  0
   26.8100   14.7841   20.1758 C   0  0  0  0  0  0  0  0  0  0  0  0
   25.7940   14.8073   20.8619 O   0  0  0  0  0  0  0  0  0  0  0  0
   28.4939   15.9780   21.6132 C   0  0  0  0  0  0  0  0  0  0  0  0
   29.6318   15.8158   22.6064 C   0  0  0  0  0  0  0  0  0  0  0  0
   30.9801   15.7104   21.9048 C   0  0  0  0  0  0  0  0  0  0  0  0
   31.3974   17.0572   21.3375 C   0  0  0  0  0  0  0  0  0  0  0  0
   32.7536   17.0180   20.6834 N   0  0  0  0  0  0  0  0  0  0  0  0
   26.6506   14.8530   18.9646 O   0  0  0  0  0  0  0  0  0  0  0  0
  2  1  1  6  0  0  0
  2  3  1  0  0  0  0
  2  5  1  0  0  0  0
  3  4  1  0  0  0  0
  3 10  1  0  0  0  0
  5  6  1  0  0  0  0
  6  7  1  0  0  0  0
  7  8  1  0  0  0  0
  8  9  1  0  0  0  0
M  END
>  <CHROM.1>
170.37925323,-73.27356869,71.21972115,72.35080549,177.57343087,28.95464963
15.51665175,20.85805685,-2.84911995,0.29403078,1.36991261

>  <Name>
ligand

>  <RI>
0

>  <Rbt.Current_Directory>
/home/itssahil/PROJECTS/Mol_Feturizer/New_Systems/rnas/3DIZ

>  <Rbt.Executable>
rbdock ($Id: //depot/dev/client3/rdock/2013.1/src/exe/rbdock.cxx#4 $)

>  <Rbt.Library>
libRbt.so (2013.1, Build901 2013/11/27)

>  <Rbt.Parameter_File>
/export/apps/rDock/src/rDock_2013.1_src/data/scripts/dock_solv.prm

>  <Rbt.Receptor>
prm/pocket_docking_5.prm

>  <SCORE>
-7.30927

>  <SCORE.INTER>
-8.14678

>  <SCORE.INTER.CONST>
1

>  <SCORE.INTER.POLAR>
0

>  <SCORE.INTER.ROT>
5

>  <SCORE.INTER.SOLV>
13.4513

>  <SCORE.INTER.VDW>
-16.8483

>  <SCORE.INTER.norm>
-0.814678

>  <SCORE.INTRA>
0.837516

>  <SCORE.INTRA.DIHEDRAL>
-0.353875

>  <SCORE.INTRA.DIHEDRAL.0>
3.67053

>  <SCORE.INTRA.POLAR>
0

>  <SCORE.INTRA.POLAR.0>
0

>  <SCORE.INTRA.REPUL>
0

>  <SCORE.INTRA.REPUL.0>
0

>  <SCORE.INTRA.SOLV>
1.03525

>  <SCORE.INTRA.SOLV.lig_0>
-32.0553

>  <SCORE.INTRA.VDW>
0.49683

>  <SCORE.INTRA.VDW.0>
-0.571921

>  <SCORE.INTRA.norm>
0.0837516

>  <SCORE.RESTR>
0

>  <SCORE.RESTR.CAVITY>
0

>  <SCORE.RESTR.norm>
0

>  <SCORE.SYSTEM>
0

>  <SCORE.SYSTEM.CONST>
0

>  <SCORE.SYSTEM.DIHEDRAL>
0

>  <SCORE.SYSTEM.SOLV>
0

>  <SCORE.SYSTEM.norm>
0

>  <SCORE.heavy>
10

>  <SCORE.norm>
-0.730927

>  <RMSD>
5.214

$$$$
ligand
 OpenBabel11021811473D
libRbt.so/2013.1/901 2013/11/27
 10  9  0  0  0  0  0  0  0  0999 V2000
   27.9155   14.5284   18.6061 N   0  0  0  0  0  0  0  0  0  0  0  0
   28.2049   14.5306   20.0716 C   0  0  2  0  0  0  0  0  0  0  0  0
   27.0111   15.0239   20.8784 C   0  0  0  0  0  0  0  0  0  0  0  0
   25.9983   15.4431   20.3289 O   0  0  0  0  0  0  0  0  0  0  0  0
   29.4541   15.3591   20.3818 C   0  0  0  0  0  0  0  0  0  0  0  0
   29.9067   15.2642   21.8287 C   0  0  0  0  0  0  0  0  0  0  0  0
   31.2187   16.0044   22.0575 C   0  0  0  0  0  0  0  0  0  0  0  0
   31.0184   17.5054   21.9284 C   0  0  0  0  0  0  0  0  0  0  0  0
   32.2966   18.2808   22.1120 N   0  0  0  0  0  0  0  0  0  0  0  0
   26.9955   14.9971   22.1015 O   0  0  0  0  0  0  0  0  0  0  0  0
  2  1  1  6  0  0  0
  2  3  1  0  0  0  0
  2  5  1  0  0  0  0
  3  4  1  0  0  0  0
  3 10  1  0  0  0  0
  5  6  1  0  0  0  0
  6  7  1  0  0  0  0
  7  8  1  0  0  0  0
  8  9  1  0  0  0  0
M  END
>  <CHROM.1>
-4.68558491,-172.81469235,174.96433412,68.94307830,-178.54643282,28.96576862
15.69814456,21.04387990,-2.65520683,0.30753475,1.14766178

>  <Name>
ligand

>  <RI>
0

>  <Rbt.Current_Directory>
/home/itssahil/PROJECTS/Mol_Feturizer/New_Systems/rnas/3DIZ

>  <Rbt.Executable>
rbdock ($Id: //depot/dev/client3/rdock/2013.1/src/exe/rbdock.cxx#4 $)

>  <Rbt.Library>
libRbt.so (2013.1, Build901 2013/11/27)

>  <Rbt.Parameter_File>
/export/apps/rDock/src/rDock_2013.1_src/data/scripts/dock_solv.prm

>  <Rbt.Receptor>
prm/pocket_docking_2.prm

>  <SCORE>
-9.34874

>  <SCORE.INTER>
-8.63212

>  <SCORE.INTER.CONST>
1

>  <SCORE.INTER.POLAR>
0

>  <SCORE.INTER.ROT>
5

>  <SCORE.INTER.SOLV>
14.3092

>  <SCORE.INTER.VDW>
-17.4578

>  <SCORE.INTER.norm>
-0.863212

>  <SCORE.INTRA>
-0.724614

>  <SCORE.INTRA.DIHEDRAL>
-1.52017

>  <SCORE.INTRA.DIHEDRAL.0>
3.67053

>  <SCORE.INTRA.POLAR>
0

>  <SCORE.INTRA.POLAR.0>
0

>  <SCORE.INTRA.REPUL>
0

>  <SCORE.INTRA.REPUL.0>
0

>  <SCORE.INTRA.SOLV>
-1.46462

>  <SCORE.INTRA.SOLV.lig_0>
-32.0553

>  <SCORE.INTRA.VDW>
0.767781

>  <SCORE.INTRA.VDW.0>
-0.571921

>  <SCORE.INTRA.norm>
-0.0724614

>  <SCORE.RESTR>
0.00799276

>  <SCORE.RESTR.CAVITY>
0.00799276

>  <SCORE.RESTR.norm>
0.000799276

>  <SCORE.SYSTEM>
0

>  <SCORE.SYSTEM.CONST>
0

>  <SCORE.SYSTEM.DIHEDRAL>
0

>  <SCORE.SYSTEM.SOLV>
0

>  <SCORE.SYSTEM.norm>
0

>  <SCORE.heavy>
10

>  <SCORE.norm>
-0.934874

>  <RMSD>
5.218

$$$$
ligand
 OpenBabel11021811473D
libRbt.so/2013.1/901 2013/11/27
 10  9  0  0  0  0  0  0  0  0999 V2000
   27.7678   16.9415   19.7410 N   0  0  0  0  0  0  0  0  0  0  0  0
   28.0255   15.5888   20.3199 C   0  0  2  0  0  0  0  0  0  0  0  0
   26.9157   15.1659   21.2731 C   0  0  0  0  0  0  0  0  0  0  0  0
   25.8539   14.7152   20.8572 O   0  0  0  0  0  0  0  0  0  0  0  0
   29.3893   15.5407   21.0133 C   0  0  0  0  0  0  0  0  0  0  0  0
   30.5148   16.1444   20.1909 C   0  0  0  0  0  0  0  0  0  0  0  0
   31.8736   15.9102   20.8393 C   0  0  0  0  0  0  0  0  0  0  0  0
   31.9824   16.6731   22.1493 C   0  0  0  0  0  0  0  0  0  0  0  0
   31.9701   18.1667   21.9554 N   0  0  0  0  0  0  0  0  0  0  0  0
   27.0420   15.2275   22.4885 O   0  0  0  0  0  0  0  0  0  0  0  0
  2  1  1  1  0  0  0
  2  3  1  0  0  0  0
  2  5  1  0  0  0  0
  3  4  1  0  0  0  0
  3 10  1  0  0  0  0
  5  6  1  0  0  0  0
  6  7  1  0  0  0  0
  7  8  1  0  0  0  0
  8  9  1  0  0  0  0
M  END
>  <CHROM.1>
79.84953378,-46.74717430,-172.53486532,-66.63718722,-65.99788186,29.09782166
15.99300334,21.10208217,-3.13907381,0.32918729,1.77913854

>  <Name>
ligand

>  <RI>
0

>  <Rbt.Current_Directory>
/home/itssahil/PROJECTS/Mol_Feturizer/New_Systems/rnas/3DIZ

>  <Rbt.Executable>
rbdock ($Id: //depot/dev/client3/rdock/2013.1/src/exe/rbdock.cxx#4 $)

>  <Rbt.Library>
libRbt.so (2013.1, Build901 2013/11/27)

>  <Rbt.Parameter_File>
/export/apps/rDock/src/rDock_2013.1_src/data/scripts/dock_solv.prm

>  <Rbt.Receptor>
prm/pocket_docking_4.prm

>  <SCORE>
-4.88606

>  <SCORE.INTER>
-6.00441

>  <SCORE.INTER.CONST>
1

>  <SCORE.INTER.POLAR>
0

>  <SCORE.INTER.ROT>
5

>  <SCORE.INTER.SOLV>
16.6972

>  <SCORE.INTER.VDW>
-16.502

>  <SCORE.INTER.norm>
-0.600441

>  <SCORE.INTRA>
1.11834

>  <SCORE.INTRA.DIHEDRAL>
-0.931585

>  <SCORE.INTRA.DIHEDRAL.0>
3.67053

>  <SCORE.INTRA.POLAR>
0

>  <SCORE.INTRA.POLAR.0>
0

>  <SCORE.INTRA.REPUL>
0

>  <SCORE.INTRA.REPUL.0>
0

>  <SCORE.INTRA.SOLV>
0.697732

>  <SCORE.INTRA.SOLV.lig_0>
-32.0553

>  <SCORE.INTRA.VDW>
1.23527

>  <SCORE.INTRA.VDW.0>
-0.571921

>  <SCORE.INTRA.norm>
0.111834

>  <SCORE.RESTR>
0

>  <SCORE.RESTR.CAVITY>
0

>  <SCORE.RESTR.norm>
0

>  <SCORE.SYSTEM>
0

>  <SCORE.SYSTEM.CONST>
0

>  <SCORE.SYSTEM.DIHEDRAL>
0

>  <SCORE.SYSTEM.SOLV>
0

>  <SCORE.SYSTEM.norm>
0

>  <SCORE.heavy>
10

>  <SCORE.norm>
-0.488606

>  <RMSD>
5.218

$$$$
ligand
 OpenBabel11021811473D
libRbt.so/2013.1/901 2013/11/27
 10  9  0  0  0  0  0  0  0  0999 V2000
   27.8618   15.0280   18.8697 N   0  0  0  0  0  0  0  0  0  0  0  0
   28.0350   14.5621   20.2784 C   0  0  2  0  0  0  0  0  0  0  0  0
   26.8601   14.9759   21.1545 C   0  0  0  0  0  0  0  0  0  0  0  0
   27.0089   15.2274   22.3453 O   0  0  0  0  0  0  0  0  0  0  0  0
   29.3569   15.0658   20.8631 C   0  0  0  0  0  0  0  0  0  0  0  0
   29.4730   16.5801   20.8963 C   0  0  0  0  0  0  0  0  0  0  0  0
   30.8180   17.0291   21.4537 C   0  0  0  0  0  0  0  0  0  0  0  0
   31.9422   16.6767   20.4935 C   0  0  0  0  0  0  0  0  0  0  0  0
   33.2913   17.1319   20.9851 N   0  0  0  0  0  0  0  0  0  0  0  0
   25.7282   15.1047   20.7082 O   0  0  0  0  0  0  0  0  0  0  0  0
  2  1  1  6  0  0  0
  2  3  1  0  0  0  0
  2  5  1  0  0  0  0
  3  4  1  0  0  0  0
  3 10  1  0  0  0  0
  5  6  1  0  0  0  0
  6  7  1  0  0  0  0
  7  8  1  0  0  0  0
  8  9  1  0  0  0  0
M  END
>  <CHROM.1>
-148.14418531,60.16365952,-178.58523709,68.47448503,178.56546483,29.00074810
15.74136592,20.82397070,-3.03174891,0.32143509,1.26735897

>  <Name>
ligand

>  <RI>
0

>  <Rbt.Current_Directory>
/home/itssahil/PROJECTS/Mol_Feturizer/New_Systems/rnas/3DIZ

>  <Rbt.Executable>
rbdock ($Id: //depot/dev/client3/rdock/2013.1/src/exe/rbdock.cxx#4 $)

>  <Rbt.Library>
libRbt.so (2013.1, Build901 2013/11/27)

>  <Rbt.Parameter_File>
/export/apps/rDock/src/rDock_2013.1_src/data/scripts/dock_solv.prm

>  <Rbt.Receptor>
prm/pocket_docking_5.prm

>  <SCORE>
-9.33478

>  <SCORE.INTER>
-9.27823

>  <SCORE.INTER.CONST>
1

>  <SCORE.INTER.POLAR>
0

>  <SCORE.INTER.ROT>
5

>  <SCORE.INTER.SOLV>
13.5273

>  <SCORE.INTER.VDW>
-17.6279

>  <SCORE.INTER.norm>
-0.927823

>  <SCORE.INTRA>
-0.0565485

>  <SCORE.INTRA.DIHEDRAL>
-1.79457

>  <SCORE.INTRA.DIHEDRAL.0>
3.67053

>  <SCORE.INTRA.POLAR>
0

>  <SCORE.INTRA.POLAR.0>
0

>  <SCORE.INTRA.REPUL>
0

>  <SCORE.INTRA.REPUL.0>
0

>  <SCORE.INTRA.SOLV>
-0.585277

>  <SCORE.INTRA.SOLV.lig_0>
-32.0553

>  <SCORE.INTRA.VDW>
1.13337

>  <SCORE.INTRA.VDW.0>
-0.571921

>  <SCORE.INTRA.norm>
-0.00565485

>  <SCORE.RESTR>
0

>  <SCORE.RESTR.CAVITY>
0

>  <SCORE.RESTR.norm>
0

>  <SCORE.SYSTEM>
0

>  <SCORE.SYSTEM.CONST>
0

>  <SCORE.SYSTEM.DIHEDRAL>
0

>  <SCORE.SYSTEM.SOLV>
0

>  <SCORE.SYSTEM.norm>
0

>  <SCORE.heavy>
10

>  <SCORE.norm>
-0.933478

>  <RMSD>
5.218

$$$$
ligand
 OpenBabel11021811473D
libRbt.so/2013.1/901 2013/11/27
 10  9  0  0  0  0  0  0  0  0999 V2000
   27.8950   15.0367   18.9033 N   0  0  0  0  0  0  0  0  0  0  0  0
   28.0450   14.5639   20.3123 C   0  0  2  0  0  0  0  0  0  0  0  0
   26.8614   14.9836   21.1738 C   0  0  0  0  0  0  0  0  0  0  0  0
   25.7217   15.0136   20.7224 O   0  0  0  0  0  0  0  0  0  0  0  0
   29.3626   15.0547   20.9173 C   0  0  0  0  0  0  0  0  0  0  0  0
   29.4908   16.5679   20.9571 C   0  0  0  0  0  0  0  0  0  0  0  0
   30.8465   17.0036   21.4990 C   0  0  0  0  0  0  0  0  0  0  0  0
   31.9523   16.6706   20.5108 C   0  0  0  0  0  0  0  0  0  0  0  0
   33.3128   17.0998   20.9940 N   0  0  0  0  0  0  0  0  0  0  0  0
   26.9872   15.2790   22.3545 O   0  0  0  0  0  0  0  0  0  0  0  0
  2  1  1  6  0  0  0
  2  3  1  0  0  0  0
  2  5  1  0  0  0  0
  3  4  1  0  0  0  0
  3 10  1  0  0  0  0
  5  6  1  0  0  0  0
  6  7  1  0  0  0  0
  7  8  1  0  0  0  0
  8  9  1  0  0  0  0
M  END
>  <CHROM.1>
36.23403823,60.10942196,-177.00884359,69.50330800,179.21991381,29.01017486
15.72992218,20.85325685,-3.02927608,0.31829548,1.25610731

>  <Name>
ligand

>  <RI>
0

>  <Rbt.Current_Directory>
/home/itssahil/PROJECTS/Mol_Feturizer/New_Systems/rnas/3DIZ

>  <Rbt.Executable>
rbdock ($Id: //depot/dev/client3/rdock/2013.1/src/exe/rbdock.cxx#4 $)

>  <Rbt.Library>
libRbt.so (2013.1, Build901 2013/11/27)

>  <Rbt.Parameter_File>
/export/apps/rDock/src/rDock_2013.1_src/data/scripts/dock_solv.prm

>  <Rbt.Receptor>
prm/pocket_docking_5.prm

>  <SCORE>
-9.44811

>  <SCORE.INTER>
-9.35575

>  <SCORE.INTER.CONST>
1

>  <SCORE.INTER.POLAR>
0

>  <SCORE.INTER.ROT>
5

>  <SCORE.INTER.SOLV>
13.5016

>  <SCORE.INTER.VDW>
-17.671

>  <SCORE.INTER.norm>
-0.935575

>  <SCORE.INTRA>
-0.0923664

>  <SCORE.INTRA.DIHEDRAL>
-1.81744

>  <SCORE.INTRA.DIHEDRAL.0>
3.67053

>  <SCORE.INTRA.POLAR>
0

>  <SCORE.INTRA.POLAR.0>
0

>  <SCORE.INTRA.REPUL>
0

>  <SCORE.INTRA.REPUL.0>
0

>  <SCORE.INTRA.SOLV>
-0.561522

>  <SCORE.INTRA.SOLV.lig_0>
-32.0553

>  <SCORE.INTRA.VDW>
1.09711

>  <SCORE.INTRA.VDW.0>
-0.571921

>  <SCORE.INTRA.norm>
-0.00923664

>  <SCORE.RESTR>
0

>  <SCORE.RESTR.CAVITY>
0

>  <SCORE.RESTR.norm>
0

>  <SCORE.SYSTEM>
0

>  <SCORE.SYSTEM.CONST>
0

>  <SCORE.SYSTEM.DIHEDRAL>
0

>  <SCORE.SYSTEM.SOLV>
0

>  <SCORE.SYSTEM.norm>
0

>  <SCORE.heavy>
10

>  <SCORE.norm>
-0.944811

>  <RMSD>
5.220

$$$$
ligand
 OpenBabel11021811473D
libRbt.so/2013.1/901 2013/11/27
 10  9  0  0  0  0  0  0  0  0999 V2000
   29.1064   14.9128   19.4746 N   0  0  0  0  0  0  0  0  0  0  0  0
   28.2312   14.3550   20.5490 C   0  0  2  0  0  0  0  0  0  0  0  0
   26.8617   15.0209   20.5590 C   0  0  0  0  0  0  0  0  0  0  0  0
   26.5520   15.8573   19.7174 O   0  0  0  0  0  0  0  0  0  0  0  0
   28.9048   14.4699   21.9187 C   0  0  0  0  0  0  0  0  0  0  0  0
   29.2879   15.8911   22.2941 C   0  0  0  0  0  0  0  0  0  0  0  0
   30.6598   16.2669   21.7480 C   0  0  0  0  0  0  0  0  0  0  0  0
   31.0687   17.6499   22.2279 C   0  0  0  0  0  0  0  0  0  0  0  0
   32.5120   17.9645   21.9339 N   0  0  0  0  0  0  0  0  0  0  0  0
   26.0032   14.7332   21.3820 O   0  0  0  0  0  0  0  0  0  0  0  0
  2  1  1  6  0  0  0
  2  3  1  0  0  0  0
  2  5  1  0  0  0  0
  3  4  1  0  0  0  0
  3 10  1  0  0  0  0
  5  6  1  0  0  0  0
  6  7  1  0  0  0  0
  7  8  1  0  0  0  0
  8  9  1  0  0  0  0
M  END
>  <CHROM.1>
3.45624926,57.18789317,-86.32658493,-175.50137413,169.26822394,28.87868543
15.71985917,21.17633487,-2.91797721,0.49328572,1.67132570

>  <Name>
ligand

>  <RI>
0

>  <Rbt.Current_Directory>
/home/itssahil/PROJECTS/Mol_Feturizer/New_Systems/rnas/3DIZ

>  <Rbt.Executable>
rbdock ($Id: //depot/dev/client3/rdock/2013.1/src/exe/rbdock.cxx#4 $)

>  <Rbt.Library>
libRbt.so (2013.1, Build901 2013/11/27)

>  <Rbt.Parameter_File>
/export/apps/rDock/src/rDock_2013.1_src/data/scripts/dock_solv.prm

>  <Rbt.Receptor>
prm/pocket_docking_7.prm

>  <SCORE>
-8.95732

>  <SCORE.INTER>
-9.66093

>  <SCORE.INTER.CONST>
1

>  <SCORE.INTER.POLAR>
0

>  <SCORE.INTER.ROT>
5

>  <SCORE.INTER.SOLV>
12.9055

>  <SCORE.INTER.VDW>
-17.6758

>  <SCORE.INTER.norm>
-0.966093

>  <SCORE.INTRA>
0.703609

>  <SCORE.INTRA.DIHEDRAL>
0.846989

>  <SCORE.INTRA.DIHEDRAL.0>
3.67053

>  <SCORE.INTRA.POLAR>
0

>  <SCORE.INTRA.POLAR.0>
0

>  <SCORE.INTRA.REPUL>
0

>  <SCORE.INTRA.REPUL.0>
0

>  <SCORE.INTRA.SOLV>
0.471158

>  <SCORE.INTRA.SOLV.lig_0>
-32.0553

>  <SCORE.INTRA.VDW>
0.0445357

>  <SCORE.INTRA.VDW.0>
-0.571921

>  <SCORE.INTRA.norm>
0.0703609

>  <SCORE.RESTR>
0

>  <SCORE.RESTR.CAVITY>
0

>  <SCORE.RESTR.norm>
0

>  <SCORE.SYSTEM>
0

>  <SCORE.SYSTEM.CONST>
0

>  <SCORE.SYSTEM.DIHEDRAL>
0

>  <SCORE.SYSTEM.SOLV>
0

>  <SCORE.SYSTEM.norm>
0

>  <SCORE.heavy>
10

>  <SCORE.norm>
-0.895732

>  <RMSD>
5.220

$$$$
ligand
 OpenBabel11021811473D
libRbt.so/2013.1/901 2013/11/27
 10  9  0  0  0  0  0  0  0  0999 V2000
   28.9840   14.8485   19.3420 N   0  0  0  0  0  0  0  0  0  0  0  0
   28.0839   14.4216   20.4550 C   0  0  2  0  0  0  0  0  0  0  0  0
   26.7909   15.2261   20.4708 C   0  0  0  0  0  0  0  0  0  0  0  0
   26.6620   16.2412   19.7951 O   0  0  0  0  0  0  0  0  0  0  0  0
   28.8007   14.5126   21.8045 C   0  0  0  0  0  0  0  0  0  0  0  0
   29.2025   15.9262   22.1891 C   0  0  0  0  0  0  0  0  0  0  0  0
   30.6200   16.2513   21.7348 C   0  0  0  0  0  0  0  0  0  0  0  0
   31.0462   17.6193   22.2419 C   0  0  0  0  0  0  0  0  0  0  0  0
   32.4883   17.9294   21.9367 N   0  0  0  0  0  0  0  0  0  0  0  0
   25.8184   14.8835   21.1295 O   0  0  0  0  0  0  0  0  0  0  0  0
  2  1  1  6  0  0  0
  2  3  1  0  0  0  0
  2  5  1  0  0  0  0
  3  4  1  0  0  0  0
  3 10  1  0  0  0  0
  5  6  1  0  0  0  0
  6  7  1  0  0  0  0
  7  8  1  0  0  0  0
  8  9  1  0  0  0  0
M  END
>  <CHROM.1>
-12.20199386,63.56025980,-92.48699308,-174.71861823,174.25179854,28.81108043
15.79727952,21.10576859,-2.63315843,0.11188918,0.80572031

>  <Name>
ligand

>  <RI>
0

>  <Rbt.Current_Directory>
/home/itssahil/PROJECTS/Mol_Feturizer/New_Systems/rnas/3DIZ

>  <Rbt.Executable>
rbdock ($Id: //depot/dev/client3/rdock/2013.1/src/exe/rbdock.cxx#4 $)

>  <Rbt.Library>
libRbt.so (2013.1, Build901 2013/11/27)

>  <Rbt.Parameter_File>
/export/apps/rDock/src/rDock_2013.1_src/data/scripts/dock_solv.prm

>  <Rbt.Receptor>
prm/pocket_docking_3.prm

>  <SCORE>
-8.87162

>  <SCORE.INTER>
-9.60063

>  <SCORE.INTER.CONST>
1

>  <SCORE.INTER.POLAR>
0

>  <SCORE.INTER.ROT>
5

>  <SCORE.INTER.SOLV>
12.7673

>  <SCORE.INTER.VDW>
-17.5895

>  <SCORE.INTER.norm>
-0.960063

>  <SCORE.INTRA>
0.729015

>  <SCORE.INTRA.DIHEDRAL>
1.61171

>  <SCORE.INTRA.DIHEDRAL.0>
3.67053

>  <SCORE.INTRA.POLAR>
0

>  <SCORE.INTRA.POLAR.0>
0

>  <SCORE.INTRA.REPUL>
0

>  <SCORE.INTRA.REPUL.0>
0

>  <SCORE.INTRA.SOLV>
0.19207

>  <SCORE.INTRA.SOLV.lig_0>
-32.0553

>  <SCORE.INTRA.VDW>
-0.172876

>  <SCORE.INTRA.VDW.0>
-0.571921

>  <SCORE.INTRA.norm>
0.0729015

>  <SCORE.RESTR>
0

>  <SCORE.RESTR.CAVITY>
0

>  <SCORE.RESTR.norm>
0

>  <SCORE.SYSTEM>
0

>  <SCORE.SYSTEM.CONST>
0

>  <SCORE.SYSTEM.DIHEDRAL>
0

>  <SCORE.SYSTEM.SOLV>
0

>  <SCORE.SYSTEM.norm>
0

>  <SCORE.heavy>
10

>  <SCORE.norm>
-0.887162

>  <RMSD>
5.222

$$$$
ligand
 OpenBabel11021811473D
libRbt.so/2013.1/901 2013/11/27
 10  9  0  0  0  0  0  0  0  0999 V2000
   27.9133   15.0325   18.9052 N   0  0  0  0  0  0  0  0  0  0  0  0
   28.0606   14.5702   20.3180 C   0  0  2  0  0  0  0  0  0  0  0  0
   26.8748   14.9951   21.1738 C   0  0  0  0  0  0  0  0  0  0  0  0
   25.7453   15.0783   20.7039 O   0  0  0  0  0  0  0  0  0  0  0  0
   29.3766   15.0667   20.9222 C   0  0  0  0  0  0  0  0  0  0  0  0
   29.5179   16.5792   20.9199 C   0  0  0  0  0  0  0  0  0  0  0  0
   30.8543   17.0202   21.5039 C   0  0  0  0  0  0  0  0  0  0  0  0
   31.9936   16.6758   20.5586 C   0  0  0  0  0  0  0  0  0  0  0  0
   33.3287   17.1673   21.0533 N   0  0  0  0  0  0  0  0  0  0  0  0
   26.9876   15.2422   22.3668 O   0  0  0  0  0  0  0  0  0  0  0  0
  2  1  1  6  0  0  0
  2  3  1  0  0  0  0
  2  5  1  0  0  0  0
  3  4  1  0  0  0  0
  3 10  1  0  0  0  0
  5  6  1  0  0  0  0
  6  7  1  0  0  0  0
  7  8  1  0  0  0  0
  8  9  1  0  0  0  0
M  END
>  <CHROM.1>
32.92728245,58.68918207,-178.81290885,70.83363873,176.50504982,29.02784656
15.74541563,20.86118280,-3.02469109,0.32000979,1.26563045

>  <Name>
ligand

>  <RI>
0

>  <Rbt.Current_Directory>
/home/itssahil/PROJECTS/Mol_Feturizer/New_Systems/rnas/3DIZ

>  <Rbt.Executable>
rbdock ($Id: //depot/dev/client3/rdock/2013.1/src/exe/rbdock.cxx#4 $)

>  <Rbt.Library>
libRbt.so (2013.1, Build901 2013/11/27)

>  <Rbt.Parameter_File>
/export/apps/rDock/src/rDock_2013.1_src/data/scripts/dock_solv.prm

>  <Rbt.Receptor>
prm/pocket_docking_7.prm

>  <SCORE>
-9.49302

>  <SCORE.INTER>
-9.32985

>  <SCORE.INTER.CONST>
1

>  <SCORE.INTER.POLAR>
0

>  <SCORE.INTER.ROT>
5

>  <SCORE.INTER.SOLV>
13.4648

>  <SCORE.INTER.VDW>
-17.6415

>  <SCORE.INTER.norm>
-0.932985

>  <SCORE.INTRA>
-0.163166

>  <SCORE.INTRA.DIHEDRAL>
-1.68875

>  <SCORE.INTRA.DIHEDRAL.0>
3.67053

>  <SCORE.INTRA.POLAR>
0

>  <SCORE.INTRA.POLAR.0>
0

>  <SCORE.INTRA.REPUL>
0

>  <SCORE.INTRA.REPUL.0>
0

>  <SCORE.INTRA.SOLV>
-0.60205

>  <SCORE.INTRA.SOLV.lig_0>
-32.0553

>  <SCORE.INTRA.VDW>
0.982231

>  <SCORE.INTRA.VDW.0>
-0.571921

>  <SCORE.INTRA.norm>
-0.0163166

>  <SCORE.RESTR>
0

>  <SCORE.RESTR.CAVITY>
0

>  <SCORE.RESTR.norm>
0

>  <SCORE.SYSTEM>
0

>  <SCORE.SYSTEM.CONST>
0

>  <SCORE.SYSTEM.DIHEDRAL>
0

>  <SCORE.SYSTEM.SOLV>
0

>  <SCORE.SYSTEM.norm>
0

>  <SCORE.heavy>
10

>  <SCORE.norm>
-0.949302

>  <RMSD>
5.224

$$$$
ligand
 OpenBabel11021811473D
libRbt.so/2013.1/901 2013/11/27
 10  9  0  0  0  0  0  0  0  0999 V2000
   29.4685   14.8504   19.4819 N   0  0  0  0  0  0  0  0  0  0  0  0
   28.2189   14.6170   20.2665 C   0  0  2  0  0  0  0  0  0  0  0  0
   26.9746   14.8062   19.4090 C   0  0  0  0  0  0  0  0  0  0  0  0
   26.8754   14.2847   18.3037 O   0  0  0  0  0  0  0  0  0  0  0  0
   28.1726   15.5179   21.5032 C   0  0  0  0  0  0  0  0  0  0  0  0
   29.2352   15.1903   22.5381 C   0  0  0  0  0  0  0  0  0  0  0  0
   30.6199   15.6330   22.0822 C   0  0  0  0  0  0  0  0  0  0  0  0
   30.7307   17.1488   22.0947 C   0  0  0  0  0  0  0  0  0  0  0  0
   32.1153   17.6337   21.7535 N   0  0  0  0  0  0  0  0  0  0  0  0
   26.0121   15.4571   19.7922 O   0  0  0  0  0  0  0  0  0  0  0  0
  2  1  1  6  0  0  0
  2  3  1  0  0  0  0
  2  5  1  0  0  0  0
  3  4  1  0  0  0  0
  3 10  1  0  0  0  0
  5  6  1  0  0  0  0
  6  7  1  0  0  0  0
  7  8  1  0  0  0  0
  8  9  1  0  0  0  0
M  END
>  <CHROM.1>
47.99459454,-66.74277898,73.13248775,70.58055398,175.57121404,28.80581858
15.51224037,20.69773028,-2.52344352,0.30942601,1.35830096

>  <Name>
ligand

>  <RI>
0

>  <Rbt.Current_Directory>
/home/itssahil/PROJECTS/Mol_Feturizer/New_Systems/rnas/3DIZ

>  <Rbt.Executable>
rbdock ($Id: //depot/dev/client3/rdock/2013.1/src/exe/rbdock.cxx#4 $)

>  <Rbt.Library>
libRbt.so (2013.1, Build901 2013/11/27)

>  <Rbt.Parameter_File>
/export/apps/rDock/src/rDock_2013.1_src/data/scripts/dock_solv.prm

>  <Rbt.Receptor>
prm/pocket_docking_4.prm

>  <SCORE>
-7.72345

>  <SCORE.INTER>
-9.1251

>  <SCORE.INTER.CONST>
1

>  <SCORE.INTER.POLAR>
0

>  <SCORE.INTER.ROT>
5

>  <SCORE.INTER.SOLV>
11.9907

>  <SCORE.INTER.VDW>
-17.0136

>  <SCORE.INTER.norm>
-0.91251

>  <SCORE.INTRA>
1.40164

>  <SCORE.INTRA.DIHEDRAL>
-0.789024

>  <SCORE.INTRA.DIHEDRAL.0>
3.67053

>  <SCORE.INTRA.POLAR>
0

>  <SCORE.INTRA.POLAR.0>
0

>  <SCORE.INTRA.REPUL>
0

>  <SCORE.INTRA.REPUL.0>
0

>  <SCORE.INTRA.SOLV>
1.1171

>  <SCORE.INTRA.SOLV.lig_0>
-32.0553

>  <SCORE.INTRA.VDW>
1.23761

>  <SCORE.INTRA.VDW.0>
-0.571921

>  <SCORE.INTRA.norm>
0.140164

>  <SCORE.RESTR>
0

>  <SCORE.RESTR.CAVITY>
0

>  <SCORE.RESTR.norm>
0

>  <SCORE.SYSTEM>
0

>  <SCORE.SYSTEM.CONST>
0

>  <SCORE.SYSTEM.DIHEDRAL>
0

>  <SCORE.SYSTEM.SOLV>
0

>  <SCORE.SYSTEM.norm>
0

>  <SCORE.heavy>
10

>  <SCORE.norm>
-0.772345

>  <RMSD>
5.227

$$$$
ligand
 OpenBabel11021811473D
libRbt.so/2013.1/901 2013/11/27
 10  9  0  0  0  0  0  0  0  0999 V2000
   28.5279   14.3207   19.0642 N   0  0  0  0  0  0  0  0  0  0  0  0
   27.8346   14.2467   20.3853 C   0  0  2  0  0  0  0  0  0  0  0  0
   26.6304   15.1772   20.4398 C   0  0  0  0  0  0  0  0  0  0  0  0
   26.6215   16.2461   19.8390 O   0  0  0  0  0  0  0  0  0  0  0  0
   28.8061   14.5424   21.5307 C   0  0  0  0  0  0  0  0  0  0  0  0
   29.5820   15.8366   21.3554 C   0  0  0  0  0  0  0  0  0  0  0  0
   30.6526   16.0002   22.4270 C   0  0  0  0  0  0  0  0  0  0  0  0
   31.5508   17.1854   22.1126 C   0  0  0  0  0  0  0  0  0  0  0  0
   32.3679   16.9809   20.8639 N   0  0  0  0  0  0  0  0  0  0  0  0
   25.6128   14.8905   21.0556 O   0  0  0  0  0  0  0  0  0  0  0  0
  2  1  1  6  0  0  0
  2  3  1  0  0  0  0
  2  5  1  0  0  0  0
  3  4  1  0  0  0  0
  3 10  1  0  0  0  0
  5  6  1  0  0  0  0
  6  7  1  0  0  0  0
  7  8  1  0  0  0  0
  8  9  1  0  0  0  0
M  END
>  <CHROM.1>
-33.08283648,52.09228477,-172.99128291,171.36390361,-65.84976704,28.78095046
15.55781929,20.90518010,-2.77498275,0.17757237,1.09729979

>  <Name>
ligand

>  <RI>
0

>  <Rbt.Current_Directory>
/home/itssahil/PROJECTS/Mol_Feturizer/New_Systems/rnas/3DIZ

>  <Rbt.Executable>
rbdock ($Id: //depot/dev/client3/rdock/2013.1/src/exe/rbdock.cxx#4 $)

>  <Rbt.Library>
libRbt.so (2013.1, Build901 2013/11/27)

>  <Rbt.Parameter_File>
/export/apps/rDock/src/rDock_2013.1_src/data/scripts/dock_solv.prm

>  <Rbt.Receptor>
prm/pocket_docking_8.prm

>  <SCORE>
-9.31595

>  <SCORE.INTER>
-8.73112

>  <SCORE.INTER.CONST>
1

>  <SCORE.INTER.POLAR>
0

>  <SCORE.INTER.ROT>
5

>  <SCORE.INTER.SOLV>
13.0777

>  <SCORE.INTER.VDW>
-17.1133

>  <SCORE.INTER.norm>
-0.873112

>  <SCORE.INTRA>
-0.584837

>  <SCORE.INTRA.DIHEDRAL>
-1.20819

>  <SCORE.INTRA.DIHEDRAL.0>
3.67053

>  <SCORE.INTRA.POLAR>
0

>  <SCORE.INTRA.POLAR.0>
0

>  <SCORE.INTRA.REPUL>
0

>  <SCORE.INTRA.REPUL.0>
0

>  <SCORE.INTRA.SOLV>
0.26834

>  <SCORE.INTRA.SOLV.lig_0>
-32.0553

>  <SCORE.INTRA.VDW>
-0.114914

>  <SCORE.INTRA.VDW.0>
-0.571921

>  <SCORE.INTRA.norm>
-0.0584837

>  <SCORE.RESTR>
0

>  <SCORE.RESTR.CAVITY>
0

>  <SCORE.RESTR.norm>
0

>  <SCORE.SYSTEM>
0

>  <SCORE.SYSTEM.CONST>
0

>  <SCORE.SYSTEM.DIHEDRAL>
0

>  <SCORE.SYSTEM.SOLV>
0

>  <SCORE.SYSTEM.norm>
0

>  <SCORE.heavy>
10

>  <SCORE.norm>
-0.931595

>  <RMSD>
5.227

$$$$
ligand
 OpenBabel11021811473D
libRbt.so/2013.1/901 2013/11/27
 10  9  0  0  0  0  0  0  0  0999 V2000
   27.8573   15.0476   18.8843 N   0  0  0  0  0  0  0  0  0  0  0  0
   28.0256   14.5655   20.2881 C   0  0  2  0  0  0  0  0  0  0  0  0
   26.8470   14.9679   21.1645 C   0  0  0  0  0  0  0  0  0  0  0  0
   25.7047   15.0067   20.7203 O   0  0  0  0  0  0  0  0  0  0  0  0
   29.3448   15.0637   20.8836 C   0  0  0  0  0  0  0  0  0  0  0  0
   29.4815   16.5766   20.8862 C   0  0  0  0  0  0  0  0  0  0  0  0
   30.8282   17.0188   21.4451 C   0  0  0  0  0  0  0  0  0  0  0  0
   31.9536   16.6433   20.4951 C   0  0  0  0  0  0  0  0  0  0  0  0
   33.2985   17.1334   20.9639 N   0  0  0  0  0  0  0  0  0  0  0  0
   26.9795   15.2398   22.3500 O   0  0  0  0  0  0  0  0  0  0  0  0
  2  1  1  6  0  0  0
  2  3  1  0  0  0  0
  2  5  1  0  0  0  0
  3  4  1  0  0  0  0
  3 10  1  0  0  0  0
  5  6  1  0  0  0  0
  6  7  1  0  0  0  0
  7  8  1  0  0  0  0
  8  9  1  0  0  0  0
M  END
>  <CHROM.1>
35.33155144,57.95490439,-178.10160416,69.04078654,176.53149494,28.99481113
15.72847206,20.82729746,-3.03782353,0.32465792,1.27283868

>  <Name>
ligand

>  <RI>
0

>  <Rbt.Current_Directory>
/home/itssahil/PROJECTS/Mol_Feturizer/New_Systems/rnas/3DIZ

>  <Rbt.Executable>
rbdock ($Id: //depot/dev/client3/rdock/2013.1/src/exe/rbdock.cxx#4 $)

>  <Rbt.Library>
libRbt.so (2013.1, Build901 2013/11/27)

>  <Rbt.Parameter_File>
/export/apps/rDock/src/rDock_2013.1_src/data/scripts/dock_solv.prm

>  <Rbt.Receptor>
prm/pocket_docking_6.prm

>  <SCORE>
-9.49005

>  <SCORE.INTER>
-9.38204

>  <SCORE.INTER.CONST>
1

>  <SCORE.INTER.POLAR>
0

>  <SCORE.INTER.ROT>
5

>  <SCORE.INTER.SOLV>
13.5504

>  <SCORE.INTER.VDW>
-17.7048

>  <SCORE.INTER.norm>
-0.938204

>  <SCORE.INTRA>
-0.108005

>  <SCORE.INTRA.DIHEDRAL>
-1.81058

>  <SCORE.INTRA.DIHEDRAL.0>
3.67053

>  <SCORE.INTRA.POLAR>
0

>  <SCORE.INTRA.POLAR.0>
0

>  <SCORE.INTRA.REPUL>
0

>  <SCORE.INTRA.REPUL.0>
0

>  <SCORE.INTRA.SOLV>
-0.566374

>  <SCORE.INTRA.SOLV.lig_0>
-32.0553

>  <SCORE.INTRA.VDW>
1.08047

>  <SCORE.INTRA.VDW.0>
-0.571921

>  <SCORE.INTRA.norm>
-0.0108005

>  <SCORE.RESTR>
0

>  <SCORE.RESTR.CAVITY>
0

>  <SCORE.RESTR.norm>
0

>  <SCORE.SYSTEM>
0

>  <SCORE.SYSTEM.CONST>
0

>  <SCORE.SYSTEM.DIHEDRAL>
0

>  <SCORE.SYSTEM.SOLV>
0

>  <SCORE.SYSTEM.norm>
0

>  <SCORE.heavy>
10

>  <SCORE.norm>
-0.949005

>  <RMSD>
5.230

$$$$
ligand
 OpenBabel11021811473D
libRbt.so/2013.1/901 2013/11/27
 10  9  0  0  0  0  0  0  0  0999 V2000
   27.1173   14.3100   18.7167 N   0  0  0  0  0  0  0  0  0  0  0  0
   27.6617   15.0156   19.9156 C   0  0  2  0  0  0  0  0  0  0  0  0
   26.6864   14.9699   21.0843 C   0  0  0  0  0  0  0  0  0  0  0  0
   27.0681   15.1142   22.2406 O   0  0  0  0  0  0  0  0  0  0  0  0
   28.0407   16.4592   19.5760 C   0  0  0  0  0  0  0  0  0  0  0  0
   29.4476   16.8389   20.0050 C   0  0  0  0  0  0  0  0  0  0  0  0
   29.6252   16.7268   21.5141 C   0  0  0  0  0  0  0  0  0  0  0  0
   31.0058   17.2075   21.9298 C   0  0  0  0  0  0  0  0  0  0  0  0
   32.1144   16.3914   21.3185 N   0  0  0  0  0  0  0  0  0  0  0  0
   25.4831   14.8183   20.9232 O   0  0  0  0  0  0  0  0  0  0  0  0
  2  1  1  6  0  0  0
  2  3  1  0  0  0  0
  2  5  1  0  0  0  0
  3  4  1  0  0  0  0
  3 10  1  0  0  0  0
  5  6  1  0  0  0  0
  6  7  1  0  0  0  0
  7  8  1  0  0  0  0
  8  9  1  0  0  0  0
M  END
>  <CHROM.1>
157.64530815,-129.02315785,-61.28267106,-175.86866870,-61.41597069,28.39487961
15.77955838,20.74718489,-2.92692859,0.39115720,1.47272711

>  <Name>
ligand

>  <RI>
0

>  <Rbt.Current_Directory>
/home/itssahil/PROJECTS/Mol_Feturizer/New_Systems/rnas/3DIZ

>  <Rbt.Executable>
rbdock ($Id: //depot/dev/client3/rdock/2013.1/src/exe/rbdock.cxx#4 $)

>  <Rbt.Library>
libRbt.so (2013.1, Build901 2013/11/27)

>  <Rbt.Parameter_File>
/export/apps/rDock/src/rDock_2013.1_src/data/scripts/dock_solv.prm

>  <Rbt.Receptor>
prm/pocket_docking_3.prm

>  <SCORE>
-7.84647

>  <SCORE.INTER>
-9.18994

>  <SCORE.INTER.CONST>
1

>  <SCORE.INTER.POLAR>
0

>  <SCORE.INTER.ROT>
5

>  <SCORE.INTER.SOLV>
14.7706

>  <SCORE.INTER.VDW>
-17.9835

>  <SCORE.INTER.norm>
-0.918994

>  <SCORE.INTRA>
1.34347

>  <SCORE.INTRA.DIHEDRAL>
3.2796

>  <SCORE.INTRA.DIHEDRAL.0>
3.67053

>  <SCORE.INTRA.POLAR>
0

>  <SCORE.INTRA.POLAR.0>
0

>  <SCORE.INTRA.REPUL>
0

>  <SCORE.INTRA.REPUL.0>
0

>  <SCORE.INTRA.SOLV>
-0.416013

>  <SCORE.INTRA.SOLV.lig_0>
-32.0553

>  <SCORE.INTRA.VDW>
-0.0883232

>  <SCORE.INTRA.VDW.0>
-0.571921

>  <SCORE.INTRA.norm>
0.134347

>  <SCORE.RESTR>
0

>  <SCORE.RESTR.CAVITY>
0

>  <SCORE.RESTR.norm>
0

>  <SCORE.SYSTEM>
0

>  <SCORE.SYSTEM.CONST>
0

>  <SCORE.SYSTEM.DIHEDRAL>
0

>  <SCORE.SYSTEM.SOLV>
0

>  <SCORE.SYSTEM.norm>
0

>  <SCORE.heavy>
10

>  <SCORE.norm>
-0.784647

>  <RMSD>
5.231

$$$$
ligand
 OpenBabel11021811473D
libRbt.so/2013.1/901 2013/11/27
 10  9  0  0  0  0  0  0  0  0999 V2000
   27.9208   15.0488   18.8605 N   0  0  0  0  0  0  0  0  0  0  0  0
   28.0460   14.5715   20.2704 C   0  0  2  0  0  0  0  0  0  0  0  0
   26.8367   14.9688   21.1065 C   0  0  0  0  0  0  0  0  0  0  0  0
   25.7129   15.0222   20.6190 O   0  0  0  0  0  0  0  0  0  0  0  0
   29.3418   15.0797   20.9075 C   0  0  0  0  0  0  0  0  0  0  0  0
   29.4517   16.5943   20.9442 C   0  0  0  0  0  0  0  0  0  0  0  0
   30.7916   17.0475   21.5106 C   0  0  0  0  0  0  0  0  0  0  0  0
   31.9237   16.6951   20.5597 C   0  0  0  0  0  0  0  0  0  0  0  0
   33.2677   17.1574   21.0586 N   0  0  0  0  0  0  0  0  0  0  0  0
   26.9248   15.2218   22.3003 O   0  0  0  0  0  0  0  0  0  0  0  0
  2  1  1  6  0  0  0
  2  3  1  0  0  0  0
  2  5  1  0  0  0  0
  3  4  1  0  0  0  0
  3 10  1  0  0  0  0
  5  6  1  0  0  0  0
  6  7  1  0  0  0  0
  7  8  1  0  0  0  0
  8  9  1  0  0  0  0
M  END
>  <CHROM.1>
34.01227493,59.52400145,-176.61842538,68.19592994,178.42195988,28.98394960
15.74267476,20.83173209,-3.01006675,0.32306471,1.26231413

>  <Name>
ligand

>  <RI>
0

>  <Rbt.Current_Directory>
/home/itssahil/PROJECTS/Mol_Feturizer/New_Systems/rnas/3DIZ

>  <Rbt.Executable>
rbdock ($Id: //depot/dev/client3/rdock/2013.1/src/exe/rbdock.cxx#4 $)

>  <Rbt.Library>
libRbt.so (2013.1, Build901 2013/11/27)

>  <Rbt.Parameter_File>
/export/apps/rDock/src/rDock_2013.1_src/data/scripts/dock_solv.prm

>  <Rbt.Receptor>
prm/pocket_docking_7.prm

>  <SCORE>
-9.4799

>  <SCORE.INTER>
-9.35331

>  <SCORE.INTER.CONST>
1

>  <SCORE.INTER.POLAR>
0

>  <SCORE.INTER.ROT>
5

>  <SCORE.INTER.SOLV>
13.4499

>  <SCORE.INTER.VDW>
-17.6522

>  <SCORE.INTER.norm>
-0.935331

>  <SCORE.INTRA>
-0.126595

>  <SCORE.INTRA.DIHEDRAL>
-1.89269

>  <SCORE.INTRA.DIHEDRAL.0>
3.67053

>  <SCORE.INTRA.POLAR>
0

>  <SCORE.INTRA.POLAR.0>
0

>  <SCORE.INTRA.REPUL>
0

>  <SCORE.INTRA.REPUL.0>
0

>  <SCORE.INTRA.SOLV>
-0.539316

>  <SCORE.INTRA.SOLV.lig_0>
-32.0553

>  <SCORE.INTRA.VDW>
1.08941

>  <SCORE.INTRA.VDW.0>
-0.571921

>  <SCORE.INTRA.norm>
-0.0126595

>  <SCORE.RESTR>
0

>  <SCORE.RESTR.CAVITY>
0

>  <SCORE.RESTR.norm>
0

>  <SCORE.SYSTEM>
0

>  <SCORE.SYSTEM.CONST>
0

>  <SCORE.SYSTEM.DIHEDRAL>
0

>  <SCORE.SYSTEM.SOLV>
0

>  <SCORE.SYSTEM.norm>
0

>  <SCORE.heavy>
10

>  <SCORE.norm>
-0.94799

>  <RMSD>
5.233

$$$$
ligand
 OpenBabel11021811473D
libRbt.so/2013.1/901 2013/11/27
 10  9  0  0  0  0  0  0  0  0999 V2000
   28.5260   14.3428   19.0202 N   0  0  0  0  0  0  0  0  0  0  0  0
   27.8422   14.2484   20.3450 C   0  0  2  0  0  0  0  0  0  0  0  0
   26.6303   15.1676   20.4175 C   0  0  0  0  0  0  0  0  0  0  0  0
   26.6028   16.2367   19.8177 O   0  0  0  0  0  0  0  0  0  0  0  0
   28.8187   14.5402   21.4872 C   0  0  0  0  0  0  0  0  0  0  0  0
   29.5884   15.8387   21.3166 C   0  0  0  0  0  0  0  0  0  0  0  0
   30.6193   16.0310   22.4219 C   0  0  0  0  0  0  0  0  0  0  0  0
   31.5263   17.2104   22.1114 C   0  0  0  0  0  0  0  0  0  0  0  0
   32.4174   16.9618   20.9227 N   0  0  0  0  0  0  0  0  0  0  0  0
   25.6244   14.8711   21.0479 O   0  0  0  0  0  0  0  0  0  0  0  0
  2  1  1  6  0  0  0
  2  3  1  0  0  0  0
  2  5  1  0  0  0  0
  3  4  1  0  0  0  0
  3 10  1  0  0  0  0
  5  6  1  0  0  0  0
  6  7  1  0  0  0  0
  7  8  1  0  0  0  0
  8  9  1  0  0  0  0
M  END
>  <CHROM.1>
-32.34114705,51.73240227,-175.70190576,170.76993416,-67.54612512,28.78170363
15.55973932,20.88892926,-2.76333637,0.16623913,1.07034993

>  <Name>
ligand

>  <RI>
0

>  <Rbt.Current_Directory>
/home/itssahil/PROJECTS/Mol_Feturizer/New_Systems/rnas/3DIZ

>  <Rbt.Executable>
rbdock ($Id: //depot/dev/client3/rdock/2013.1/src/exe/rbdock.cxx#4 $)

>  <Rbt.Library>
libRbt.so (2013.1, Build901 2013/11/27)

>  <Rbt.Parameter_File>
/export/apps/rDock/src/rDock_2013.1_src/data/scripts/dock_solv.prm

>  <Rbt.Receptor>
prm/pocket_docking_7.prm

>  <SCORE>
-9.35378

>  <SCORE.INTER>
-8.75461

>  <SCORE.INTER.CONST>
1

>  <SCORE.INTER.POLAR>
0

>  <SCORE.INTER.ROT>
5

>  <SCORE.INTER.SOLV>
13.0284

>  <SCORE.INTER.VDW>
-17.1125

>  <SCORE.INTER.norm>
-0.875461

>  <SCORE.INTRA>
-0.599166

>  <SCORE.INTRA.DIHEDRAL>
-1.18411

>  <SCORE.INTRA.DIHEDRAL.0>
3.67053

>  <SCORE.INTRA.POLAR>
0

>  <SCORE.INTRA.POLAR.0>
0

>  <SCORE.INTRA.REPUL>
0

>  <SCORE.INTRA.REPUL.0>
0

>  <SCORE.INTRA.SOLV>
0.237871

>  <SCORE.INTRA.SOLV.lig_0>
-32.0553

>  <SCORE.INTRA.VDW>
-0.126047

>  <SCORE.INTRA.VDW.0>
-0.571921

>  <SCORE.INTRA.norm>
-0.0599166

>  <SCORE.RESTR>
0

>  <SCORE.RESTR.CAVITY>
0

>  <SCORE.RESTR.norm>
0

>  <SCORE.SYSTEM>
0

>  <SCORE.SYSTEM.CONST>
0

>  <SCORE.SYSTEM.DIHEDRAL>
0

>  <SCORE.SYSTEM.SOLV>
0

>  <SCORE.SYSTEM.norm>
0

>  <SCORE.heavy>
10

>  <SCORE.norm>
-0.935378

>  <RMSD>
5.233

$$$$
ligand
 OpenBabel11021811473D
libRbt.so/2013.1/901 2013/11/27
 10  9  0  0  0  0  0  0  0  0999 V2000
   27.1239   13.9720   18.7301 N   0  0  0  0  0  0  0  0  0  0  0  0
   27.7512   14.7929   19.8090 C   0  0  2  0  0  0  0  0  0  0  0  0
   26.8301   14.9346   21.0134 C   0  0  0  0  0  0  0  0  0  0  0  0
   27.2752   15.1443   22.1366 O   0  0  0  0  0  0  0  0  0  0  0  0
   28.1718   16.1657   19.2781 C   0  0  0  0  0  0  0  0  0  0  0  0
   29.1172   16.9147   20.2015 C   0  0  0  0  0  0  0  0  0  0  0  0
   30.4641   16.2121   20.3178 C   0  0  0  0  0  0  0  0  0  0  0  0
   31.4323   17.0402   21.1466 C   0  0  0  0  0  0  0  0  0  0  0  0
   30.9381   17.2824   22.5487 N   0  0  0  0  0  0  0  0  0  0  0  0
   25.6122   14.8761   20.9127 O   0  0  0  0  0  0  0  0  0  0  0  0
  2  1  1  6  0  0  0
  2  3  1  0  0  0  0
  2  5  1  0  0  0  0
  3  4  1  0  0  0  0
  3 10  1  0  0  0  0
  5  6  1  0  0  0  0
  6  7  1  0  0  0  0
  7  8  1  0  0  0  0
  8  9  1  0  0  0  0
M  END
>  <CHROM.1>
154.47151518,-165.44117942,66.02375306,175.03601779,60.13751318,28.44334965
15.73144605,20.63497308,-2.83123015,0.44410800,1.36024270

>  <Name>
ligand

>  <RI>
0

>  <Rbt.Current_Directory>
/home/itssahil/PROJECTS/Mol_Feturizer/New_Systems/rnas/3DIZ

>  <Rbt.Executable>
rbdock ($Id: //depot/dev/client3/rdock/2013.1/src/exe/rbdock.cxx#4 $)

>  <Rbt.Library>
libRbt.so (2013.1, Build901 2013/11/27)

>  <Rbt.Parameter_File>
/export/apps/rDock/src/rDock_2013.1_src/data/scripts/dock_solv.prm

>  <Rbt.Receptor>
prm/pocket_docking_5.prm

>  <SCORE>
-9.6848

>  <SCORE.INTER>
-8.79396

>  <SCORE.INTER.CONST>
1

>  <SCORE.INTER.POLAR>
0

>  <SCORE.INTER.ROT>
5

>  <SCORE.INTER.SOLV>
15.0998

>  <SCORE.INTER.VDW>
-17.8292

>  <SCORE.INTER.norm>
-0.879396

>  <SCORE.INTRA>
-0.890834

>  <SCORE.INTRA.DIHEDRAL>
-1.20898

>  <SCORE.INTRA.DIHEDRAL.0>
3.67053

>  <SCORE.INTRA.POLAR>
0

>  <SCORE.INTRA.POLAR.0>
0

>  <SCORE.INTRA.REPUL>
0

>  <SCORE.INTRA.REPUL.0>
0

>  <SCORE.INTRA.SOLV>
-0.43577

>  <SCORE.INTRA.SOLV.lig_0>
-32.0553

>  <SCORE.INTRA.VDW>
-0.0684582

>  <SCORE.INTRA.VDW.0>
-0.571921

>  <SCORE.INTRA.norm>
-0.0890834

>  <SCORE.RESTR>
0

>  <SCORE.RESTR.CAVITY>
0

>  <SCORE.RESTR.norm>
0

>  <SCORE.SYSTEM>
0

>  <SCORE.SYSTEM.CONST>
0

>  <SCORE.SYSTEM.DIHEDRAL>
0

>  <SCORE.SYSTEM.SOLV>
0

>  <SCORE.SYSTEM.norm>
0

>  <SCORE.heavy>
10

>  <SCORE.norm>
-0.96848

>  <RMSD>
5.234

$$$$
ligand
 OpenBabel11021811473D
libRbt.so/2013.1/901 2013/11/27
 10  9  0  0  0  0  0  0  0  0999 V2000
   27.9688   16.2964   19.1754 N   0  0  0  0  0  0  0  0  0  0  0  0
   28.2052   15.4328   20.3712 C   0  0  2  0  0  0  0  0  0  0  0  0
   26.9230   15.2045   21.1605 C   0  0  0  0  0  0  0  0  0  0  0  0
   26.9178   15.2123   22.3866 O   0  0  0  0  0  0  0  0  0  0  0  0
   29.2993   16.0224   21.2647 C   0  0  0  0  0  0  0  0  0  0  0  0
   30.6267   16.2233   20.5539 C   0  0  0  0  0  0  0  0  0  0  0  0
   31.7273   16.6356   21.5234 C   0  0  0  0  0  0  0  0  0  0  0  0
   32.9984   16.9954   20.7718 C   0  0  0  0  0  0  0  0  0  0  0  0
   33.5086   15.8649   19.9171 N   0  0  0  0  0  0  0  0  0  0  0  0
   25.8423   15.0339   20.6126 O   0  0  0  0  0  0  0  0  0  0  0  0
  2  1  1  6  0  0  0
  2  3  1  0  0  0  0
  2  5  1  0  0  0  0
  3  4  1  0  0  0  0
  3 10  1  0  0  0  0
  5  6  1  0  0  0  0
  6  7  1  0  0  0  0
  7  8  1  0  0  0  0
  8  9  1  0  0  0  0
M  END
>  <CHROM.1>
-139.58707188,-57.70929072,-172.47621727,-173.05858877,-58.09244962,29.36084553
15.88370533,20.79170642,3.05918852,0.18813597,1.64542976

>  <Name>
ligand

>  <RI>
0

>  <Rbt.Current_Directory>
/home/itssahil/PROJECTS/Mol_Feturizer/New_Systems/rnas/3DIZ

>  <Rbt.Executable>
rbdock ($Id: //depot/dev/client3/rdock/2013.1/src/exe/rbdock.cxx#4 $)

>  <Rbt.Library>
libRbt.so (2013.1, Build901 2013/11/27)

>  <Rbt.Parameter_File>
/export/apps/rDock/src/rDock_2013.1_src/data/scripts/dock_solv.prm

>  <Rbt.Receptor>
prm/pocket_docking_5.prm

>  <SCORE>
-7.68727

>  <SCORE.INTER>
-7.60755

>  <SCORE.INTER.CONST>
1

>  <SCORE.INTER.POLAR>
0

>  <SCORE.INTER.ROT>
5

>  <SCORE.INTER.SOLV>
16.6739

>  <SCORE.INTER.VDW>
-17.563

>  <SCORE.INTER.norm>
-0.760755

>  <SCORE.INTRA>
-0.0797216

>  <SCORE.INTRA.DIHEDRAL>
-1.64979

>  <SCORE.INTRA.DIHEDRAL.0>
3.67053

>  <SCORE.INTRA.POLAR>
0

>  <SCORE.INTRA.POLAR.0>
0

>  <SCORE.INTRA.REPUL>
0

>  <SCORE.INTRA.REPUL.0>
0

>  <SCORE.INTRA.SOLV>
0.159957

>  <SCORE.INTRA.SOLV.lig_0>
-32.0553

>  <SCORE.INTRA.VDW>
0.665196

>  <SCORE.INTRA.VDW.0>
-0.571921

>  <SCORE.INTRA.norm>
-0.00797216

>  <SCORE.RESTR>
0

>  <SCORE.RESTR.CAVITY>
0

>  <SCORE.RESTR.norm>
0

>  <SCORE.SYSTEM>
0

>  <SCORE.SYSTEM.CONST>
0

>  <SCORE.SYSTEM.DIHEDRAL>
0

>  <SCORE.SYSTEM.SOLV>
0

>  <SCORE.SYSTEM.norm>
0

>  <SCORE.heavy>
10

>  <SCORE.norm>
-0.768727

>  <RMSD>
5.239

$$$$
ligand
 OpenBabel11021811473D
libRbt.so/2013.1/901 2013/11/27
 10  9  0  0  0  0  0  0  0  0999 V2000
   27.2029   13.9606   18.5454 N   0  0  0  0  0  0  0  0  0  0  0  0
   27.8138   14.7310   19.6700 C   0  0  2  0  0  0  0  0  0  0  0  0
   26.8322   14.9198   20.8189 C   0  0  0  0  0  0  0  0  0  0  0  0
   27.2184   15.0269   21.9778 O   0  0  0  0  0  0  0  0  0  0  0  0
   28.3503   16.0791   19.1823 C   0  0  0  0  0  0  0  0  0  0  0  0
   29.2973   16.7507   20.1620 C   0  0  0  0  0  0  0  0  0  0  0  0
   30.5736   15.9413   20.3553 C   0  0  0  0  0  0  0  0  0  0  0  0
   31.6016   16.7387   21.1412 C   0  0  0  0  0  0  0  0  0  0  0  0
   31.1243   17.1007   22.5232 N   0  0  0  0  0  0  0  0  0  0  0  0
   25.6251   15.0028   20.6376 O   0  0  0  0  0  0  0  0  0  0  0  0
  2  1  1  6  0  0  0
  2  3  1  0  0  0  0
  2  5  1  0  0  0  0
  3  4  1  0  0  0  0
  3 10  1  0  0  0  0
  5  6  1  0  0  0  0
  6  7  1  0  0  0  0
  7  8  1  0  0  0  0
  8  9  1  0  0  0  0
M  END
>  <CHROM.1>
150.90631215,-164.68412668,64.72659892,170.14106413,61.39040831,28.53396774
15.62457944,20.52529718,-2.79942870,0.36923983,1.34202046

>  <Name>
ligand

>  <RI>
0

>  <Rbt.Current_Directory>
/home/itssahil/PROJECTS/Mol_Feturizer/New_Systems/rnas/3DIZ

>  <Rbt.Executable>
rbdock ($Id: //depot/dev/client3/rdock/2013.1/src/exe/rbdock.cxx#4 $)

>  <Rbt.Library>
libRbt.so (2013.1, Build901 2013/11/27)

>  <Rbt.Parameter_File>
/export/apps/rDock/src/rDock_2013.1_src/data/scripts/dock_solv.prm

>  <Rbt.Receptor>
prm/pocket_docking_2.prm

>  <SCORE>
-9.31193

>  <SCORE.INTER>
-8.56582

>  <SCORE.INTER.CONST>
1

>  <SCORE.INTER.POLAR>
0

>  <SCORE.INTER.ROT>
5

>  <SCORE.INTER.SOLV>
14.8602

>  <SCORE.INTER.VDW>
-17.5973

>  <SCORE.INTER.norm>
-0.856582

>  <SCORE.INTRA>
-0.75079

>  <SCORE.INTRA.DIHEDRAL>
-0.885012

>  <SCORE.INTRA.DIHEDRAL.0>
3.67053

>  <SCORE.INTRA.POLAR>
0

>  <SCORE.INTRA.POLAR.0>
0

>  <SCORE.INTRA.REPUL>
0

>  <SCORE.INTRA.REPUL.0>
0

>  <SCORE.INTRA.SOLV>
-0.461629

>  <SCORE.INTRA.SOLV.lig_0>
-32.0553

>  <SCORE.INTRA.VDW>
-0.0774696

>  <SCORE.INTRA.VDW.0>
-0.571921

>  <SCORE.INTRA.norm>
-0.075079

>  <SCORE.RESTR>
0.00467952

>  <SCORE.RESTR.CAVITY>
0.00467952

>  <SCORE.RESTR.norm>
0.000467952

>  <SCORE.SYSTEM>
0

>  <SCORE.SYSTEM.CONST>
0

>  <SCORE.SYSTEM.DIHEDRAL>
0

>  <SCORE.SYSTEM.SOLV>
0

>  <SCORE.SYSTEM.norm>
0

>  <SCORE.heavy>
10

>  <SCORE.norm>
-0.931193

>  <RMSD>
5.240

$$$$
ligand
 OpenBabel11021811473D
libRbt.so/2013.1/901 2013/11/27
 10  9  0  0  0  0  0  0  0  0999 V2000
   27.1810   14.4195   18.5920 N   0  0  0  0  0  0  0  0  0  0  0  0
   27.8110   14.9383   19.8431 C   0  0  2  0  0  0  0  0  0  0  0  0
   26.8184   14.9746   20.9975 C   0  0  0  0  0  0  0  0  0  0  0  0
   27.1892   15.1480   22.1534 O   0  0  0  0  0  0  0  0  0  0  0  0
   28.4314   16.3185   19.6122 C   0  0  0  0  0  0  0  0  0  0  0  0
   29.3577   16.7670   20.7294 C   0  0  0  0  0  0  0  0  0  0  0  0
   30.5537   15.8346   20.8770 C   0  0  0  0  0  0  0  0  0  0  0  0
   31.3974   16.2288   22.0781 C   0  0  0  0  0  0  0  0  0  0  0  0
   32.0284   17.5879   21.9249 N   0  0  0  0  0  0  0  0  0  0  0  0
   25.6124   14.8633   20.8236 O   0  0  0  0  0  0  0  0  0  0  0  0
  2  1  1  6  0  0  0
  2  3  1  0  0  0  0
  2  5  1  0  0  0  0
  3  4  1  0  0  0  0
  3 10  1  0  0  0  0
  5  6  1  0  0  0  0
  6  7  1  0  0  0  0
  7  8  1  0  0  0  0
  8  9  1  0  0  0  0
M  END
>  <CHROM.1>
167.33552893,-166.65239926,62.20090879,-174.85738663,-64.63073300,28.60714910
15.70430456,20.78677239,-2.84948918,0.36675358,1.46557057

>  <Name>
ligand

>  <RI>
0

>  <Rbt.Current_Directory>
/home/itssahil/PROJECTS/Mol_Feturizer/New_Systems/rnas/3DIZ

>  <Rbt.Executable>
rbdock ($Id: //depot/dev/client3/rdock/2013.1/src/exe/rbdock.cxx#4 $)

>  <Rbt.Library>
libRbt.so (2013.1, Build901 2013/11/27)

>  <Rbt.Parameter_File>
/export/apps/rDock/src/rDock_2013.1_src/data/scripts/dock_solv.prm

>  <Rbt.Receptor>
prm/pocket_docking_5.prm

>  <SCORE>
-10.3559

>  <SCORE.INTER>
-9.59459

>  <SCORE.INTER.CONST>
1

>  <SCORE.INTER.POLAR>
0

>  <SCORE.INTER.ROT>
5

>  <SCORE.INTER.SOLV>
14.4057

>  <SCORE.INTER.VDW>
-18.1316

>  <SCORE.INTER.norm>
-0.959459

>  <SCORE.INTRA>
-0.761299

>  <SCORE.INTRA.DIHEDRAL>
-1.35207

>  <SCORE.INTRA.DIHEDRAL.0>
3.67053

>  <SCORE.INTRA.POLAR>
0

>  <SCORE.INTRA.POLAR.0>
0

>  <SCORE.INTRA.REPUL>
0

>  <SCORE.INTRA.REPUL.0>
0

>  <SCORE.INTRA.SOLV>
-0.486232

>  <SCORE.INTRA.SOLV.lig_0>
-32.0553

>  <SCORE.INTRA.VDW>
0.157852

>  <SCORE.INTRA.VDW.0>
-0.571921

>  <SCORE.INTRA.norm>
-0.0761299

>  <SCORE.RESTR>
0

>  <SCORE.RESTR.CAVITY>
0

>  <SCORE.RESTR.norm>
0

>  <SCORE.SYSTEM>
0

>  <SCORE.SYSTEM.CONST>
0

>  <SCORE.SYSTEM.DIHEDRAL>
0

>  <SCORE.SYSTEM.SOLV>
0

>  <SCORE.SYSTEM.norm>
0

>  <SCORE.heavy>
10

>  <SCORE.norm>
-1.03559

>  <RMSD>
5.241

$$$$
ligand
 OpenBabel11021811473D
libRbt.so/2013.1/901 2013/11/27
 10  9  0  0  0  0  0  0  0  0999 V2000
   26.0759   15.0290   21.0811 N   0  0  0  0  0  0  0  0  0  0  0  0
   27.4670   15.4733   20.7666 C   0  0  2  0  0  0  0  0  0  0  0  0
   27.7000   15.5663   19.2646 C   0  0  0  0  0  0  0  0  0  0  0  0
   28.3425   16.4882   18.7738 O   0  0  0  0  0  0  0  0  0  0  0  0
   28.4978   14.5521   21.4237 C   0  0  0  0  0  0  0  0  0  0  0  0
   29.9375   14.9404   21.1336 C   0  0  0  0  0  0  0  0  0  0  0  0
   30.3195   16.2425   21.8264 C   0  0  0  0  0  0  0  0  0  0  0  0
   31.7520   16.6272   21.4950 C   0  0  0  0  0  0  0  0  0  0  0  0
   32.1904   17.8903   22.1886 N   0  0  0  0  0  0  0  0  0  0  0  0
   27.2863   14.7168   18.4872 O   0  0  0  0  0  0  0  0  0  0  0  0
  2  1  1  6  0  0  0
  2  3  1  0  0  0  0
  2  5  1  0  0  0  0
  3  4  1  0  0  0  0
  3 10  1  0  0  0  0
  5  6  1  0  0  0  0
  6  7  1  0  0  0  0
  7  8  1  0  0  0  0
  8  9  1  0  0  0  0
M  END
>  <CHROM.1>
139.55372262,179.47616483,69.43624627,-178.65078845,-178.39575196,28.95349556
15.75286265,20.60631825,2.84336421,-0.49129808,-1.26576328

>  <Name>
ligand

>  <RI>
0

>  <Rbt.Current_Directory>
/home/itssahil/PROJECTS/Mol_Feturizer/New_Systems/rnas/3DIZ

>  <Rbt.Executable>
rbdock ($Id: //depot/dev/client3/rdock/2013.1/src/exe/rbdock.cxx#4 $)

>  <Rbt.Library>
libRbt.so (2013.1, Build901 2013/11/27)

>  <Rbt.Parameter_File>
/export/apps/rDock/src/rDock_2013.1_src/data/scripts/dock_solv.prm

>  <Rbt.Receptor>
prm/pocket_docking_8.prm

>  <SCORE>
-8.96795

>  <SCORE.INTER>
-7.21199

>  <SCORE.INTER.CONST>
1

>  <SCORE.INTER.POLAR>
0

>  <SCORE.INTER.ROT>
5

>  <SCORE.INTER.SOLV>
18.2349

>  <SCORE.INTER.VDW>
-17.8196

>  <SCORE.INTER.norm>
-0.721199

>  <SCORE.INTRA>
-1.75597

>  <SCORE.INTRA.DIHEDRAL>
-1.83255

>  <SCORE.INTRA.DIHEDRAL.0>
3.67053

>  <SCORE.INTRA.POLAR>
0

>  <SCORE.INTRA.POLAR.0>
0

>  <SCORE.INTRA.REPUL>
0

>  <SCORE.INTRA.REPUL.0>
0

>  <SCORE.INTRA.SOLV>
-1.52935

>  <SCORE.INTRA.SOLV.lig_0>
-32.0553

>  <SCORE.INTRA.VDW>
-0.0750199

>  <SCORE.INTRA.VDW.0>
-0.571921

>  <SCORE.INTRA.norm>
-0.175597

>  <SCORE.RESTR>
0

>  <SCORE.RESTR.CAVITY>
0

>  <SCORE.RESTR.norm>
0

>  <SCORE.SYSTEM>
0

>  <SCORE.SYSTEM.CONST>
0

>  <SCORE.SYSTEM.DIHEDRAL>
0

>  <SCORE.SYSTEM.SOLV>
0

>  <SCORE.SYSTEM.norm>
0

>  <SCORE.heavy>
10

>  <SCORE.norm>
-0.896795

>  <RMSD>
5.244

$$$$
ligand
 OpenBabel11021811473D
libRbt.so/2013.1/901 2013/11/27
 10  9  0  0  0  0  0  0  0  0999 V2000
   27.1843   14.4243   18.6020 N   0  0  0  0  0  0  0  0  0  0  0  0
   27.8092   14.9436   19.8554 C   0  0  2  0  0  0  0  0  0  0  0  0
   26.8110   14.9845   21.0047 C   0  0  0  0  0  0  0  0  0  0  0  0
   27.1795   15.1206   22.1663 O   0  0  0  0  0  0  0  0  0  0  0  0
   28.4345   16.3217   19.6253 C   0  0  0  0  0  0  0  0  0  0  0  0
   29.3536   16.7712   20.7481 C   0  0  0  0  0  0  0  0  0  0  0  0
   30.5657   15.8580   20.8825 C   0  0  0  0  0  0  0  0  0  0  0  0
   31.4076   16.2558   22.0839 C   0  0  0  0  0  0  0  0  0  0  0  0
   32.0090   17.6296   21.9435 N   0  0  0  0  0  0  0  0  0  0  0  0
   25.6033   14.9141   20.8216 O   0  0  0  0  0  0  0  0  0  0  0  0
  2  1  1  6  0  0  0
  2  3  1  0  0  0  0
  2  5  1  0  0  0  0
  3  4  1  0  0  0  0
  3 10  1  0  0  0  0
  5  6  1  0  0  0  0
  6  7  1  0  0  0  0
  7  8  1  0  0  0  0
  8  9  1  0  0  0  0
M  END
>  <CHROM.1>
165.22117188,-166.80144504,63.73352420,-175.18931291,-64.33039304,28.60471406
15.71864582,20.79686256,-2.84747823,0.36730521,1.46068036

>  <Name>
ligand

>  <RI>
0

>  <Rbt.Current_Directory>
/home/itssahil/PROJECTS/Mol_Feturizer/New_Systems/rnas/3DIZ

>  <Rbt.Executable>
rbdock ($Id: //depot/dev/client3/rdock/2013.1/src/exe/rbdock.cxx#4 $)

>  <Rbt.Library>
libRbt.so (2013.1, Build901 2013/11/27)

>  <Rbt.Parameter_File>
/export/apps/rDock/src/rDock_2013.1_src/data/scripts/dock_solv.prm

>  <Rbt.Receptor>
prm/pocket_docking_6.prm

>  <SCORE>
-10.387

>  <SCORE.INTER>
-9.56325

>  <SCORE.INTER.CONST>
1

>  <SCORE.INTER.POLAR>
0

>  <SCORE.INTER.ROT>
5

>  <SCORE.INTER.SOLV>
14.439

>  <SCORE.INTER.VDW>
-18.1218

>  <SCORE.INTER.norm>
-0.956325

>  <SCORE.INTRA>
-0.823744

>  <SCORE.INTRA.DIHEDRAL>
-1.35674

>  <SCORE.INTRA.DIHEDRAL.0>
3.67053

>  <SCORE.INTRA.POLAR>
0

>  <SCORE.INTRA.POLAR.0>
0

>  <SCORE.INTRA.REPUL>
0

>  <SCORE.INTRA.REPUL.0>
0

>  <SCORE.INTRA.SOLV>
-0.490062

>  <SCORE.INTRA.SOLV.lig_0>
-32.0553

>  <SCORE.INTRA.VDW>
0.0996571

>  <SCORE.INTRA.VDW.0>
-0.571921

>  <SCORE.INTRA.norm>
-0.0823744

>  <SCORE.RESTR>
0

>  <SCORE.RESTR.CAVITY>
0

>  <SCORE.RESTR.norm>
0

>  <SCORE.SYSTEM>
0

>  <SCORE.SYSTEM.CONST>
0

>  <SCORE.SYSTEM.DIHEDRAL>
0

>  <SCORE.SYSTEM.SOLV>
0

>  <SCORE.SYSTEM.norm>
0

>  <SCORE.heavy>
10

>  <SCORE.norm>
-1.0387

>  <RMSD>
5.246

$$$$
ligand
 OpenBabel11021811473D
libRbt.so/2013.1/901 2013/11/27
 10  9  0  0  0  0  0  0  0  0999 V2000
   28.9923   14.7751   19.4317 N   0  0  0  0  0  0  0  0  0  0  0  0
   28.1144   14.3218   20.5521 C   0  0  2  0  0  0  0  0  0  0  0  0
   26.7773   15.0508   20.5472 C   0  0  0  0  0  0  0  0  0  0  0  0
   26.5536   15.9694   19.7665 O   0  0  0  0  0  0  0  0  0  0  0  0
   28.8202   14.4835   21.9007 C   0  0  0  0  0  0  0  0  0  0  0  0
   29.2002   15.9184   22.2235 C   0  0  0  0  0  0  0  0  0  0  0  0
   30.6208   16.2386   21.7751 C   0  0  0  0  0  0  0  0  0  0  0  0
   31.0178   17.6404   22.2082 C   0  0  0  0  0  0  0  0  0  0  0  0
   32.4478   17.9707   21.8697 N   0  0  0  0  0  0  0  0  0  0  0  0
   25.8614   14.7369   21.2953 O   0  0  0  0  0  0  0  0  0  0  0  0
  2  1  1  6  0  0  0
  2  3  1  0  0  0  0
  2  5  1  0  0  0  0
  3  4  1  0  0  0  0
  3 10  1  0  0  0  0
  5  6  1  0  0  0  0
  6  7  1  0  0  0  0
  7  8  1  0  0  0  0
  8  9  1  0  0  0  0
M  END
>  <CHROM.1>
-5.82693707,60.71001490,-92.98667083,-175.40700849,176.11397720,28.80109281
15.71972388,21.15266130,-2.85499546,0.45696873,1.52445085

>  <Name>
ligand

>  <RI>
0

>  <Rbt.Current_Directory>
/home/itssahil/PROJECTS/Mol_Feturizer/New_Systems/rnas/3DIZ

>  <Rbt.Executable>
rbdock ($Id: //depot/dev/client3/rdock/2013.1/src/exe/rbdock.cxx#4 $)

>  <Rbt.Library>
libRbt.so (2013.1, Build901 2013/11/27)

>  <Rbt.Parameter_File>
/export/apps/rDock/src/rDock_2013.1_src/data/scripts/dock_solv.prm

>  <Rbt.Receptor>
prm/pocket_docking_7.prm

>  <SCORE>
-8.93341

>  <SCORE.INTER>
-9.69128

>  <SCORE.INTER.CONST>
1

>  <SCORE.INTER.POLAR>
0

>  <SCORE.INTER.ROT>
5

>  <SCORE.INTER.SOLV>
13.1222

>  <SCORE.INTER.VDW>
-17.7682

>  <SCORE.INTER.norm>
-0.969128

>  <SCORE.INTRA>
0.75787

>  <SCORE.INTRA.DIHEDRAL>
1.5368

>  <SCORE.INTRA.DIHEDRAL.0>
3.67053

>  <SCORE.INTRA.POLAR>
0

>  <SCORE.INTRA.POLAR.0>
0

>  <SCORE.INTRA.REPUL>
0

>  <SCORE.INTRA.REPUL.0>
0

>  <SCORE.INTRA.SOLV>
0.246949

>  <SCORE.INTRA.SOLV.lig_0>
-32.0553

>  <SCORE.INTRA.VDW>
-0.134002

>  <SCORE.INTRA.VDW.0>
-0.571921

>  <SCORE.INTRA.norm>
0.075787

>  <SCORE.RESTR>
0

>  <SCORE.RESTR.CAVITY>
0

>  <SCORE.RESTR.norm>
0

>  <SCORE.SYSTEM>
0

>  <SCORE.SYSTEM.CONST>
0

>  <SCORE.SYSTEM.DIHEDRAL>
0

>  <SCORE.SYSTEM.SOLV>
0

>  <SCORE.SYSTEM.norm>
0

>  <SCORE.heavy>
10

>  <SCORE.norm>
-0.893341

>  <RMSD>
5.246

$$$$
ligand
 OpenBabel11021811473D
libRbt.so/2013.1/901 2013/11/27
 10  9  0  0  0  0  0  0  0  0999 V2000
   27.1545   14.4038   18.6133 N   0  0  0  0  0  0  0  0  0  0  0  0
   27.7952   14.9360   19.8533 C   0  0  2  0  0  0  0  0  0  0  0  0
   26.8096   14.9958   21.0127 C   0  0  0  0  0  0  0  0  0  0  0  0
   25.6004   14.9094   20.8281 O   0  0  0  0  0  0  0  0  0  0  0  0
   28.4238   16.3084   19.5991 C   0  0  0  0  0  0  0  0  0  0  0  0
   29.3359   16.7798   20.7186 C   0  0  0  0  0  0  0  0  0  0  0  0
   30.5467   15.8689   20.8790 C   0  0  0  0  0  0  0  0  0  0  0  0
   31.3641   16.2710   22.0957 C   0  0  0  0  0  0  0  0  0  0  0  0
   32.0180   17.6186   21.9378 N   0  0  0  0  0  0  0  0  0  0  0  0
   27.1766   15.1016   22.1750 O   0  0  0  0  0  0  0  0  0  0  0  0
  2  1  1  6  0  0  0
  2  3  1  0  0  0  0
  2  5  1  0  0  0  0
  3  4  1  0  0  0  0
  3 10  1  0  0  0  0
  5  6  1  0  0  0  0
  6  7  1  0  0  0  0
  7  8  1  0  0  0  0
  8  9  1  0  0  0  0
M  END
>  <CHROM.1>
-15.47870699,-167.91912461,63.79329014,-173.92415676,-66.97330658,28.59155467
15.71522842,20.79491577,-2.85081147,0.37300229,1.46967352

>  <Name>
ligand

>  <RI>
0

>  <Rbt.Current_Directory>
/home/itssahil/PROJECTS/Mol_Feturizer/New_Systems/rnas/3DIZ

>  <Rbt.Executable>
rbdock ($Id: //depot/dev/client3/rdock/2013.1/src/exe/rbdock.cxx#4 $)

>  <Rbt.Library>
libRbt.so (2013.1, Build901 2013/11/27)

>  <Rbt.Parameter_File>
/export/apps/rDock/src/rDock_2013.1_src/data/scripts/dock_solv.prm

>  <Rbt.Receptor>
prm/pocket_docking_5.prm

>  <SCORE>
-10.3497

>  <SCORE.INTER>
-9.54971

>  <SCORE.INTER.CONST>
1

>  <SCORE.INTER.POLAR>
0

>  <SCORE.INTER.ROT>
5

>  <SCORE.INTER.SOLV>
14.5114

>  <SCORE.INTER.VDW>
-18.1369

>  <SCORE.INTER.norm>
-0.954971

>  <SCORE.INTRA>
-0.800012

>  <SCORE.INTRA.DIHEDRAL>
-1.19372

>  <SCORE.INTRA.DIHEDRAL.0>
3.67053

>  <SCORE.INTRA.POLAR>
0

>  <SCORE.INTRA.POLAR.0>
0

>  <SCORE.INTRA.REPUL>
0

>  <SCORE.INTRA.REPUL.0>
0

>  <SCORE.INTRA.SOLV>
-0.533694

>  <SCORE.INTRA.SOLV.lig_0>
-32.0553

>  <SCORE.INTRA.VDW>
0.0636937

>  <SCORE.INTRA.VDW.0>
-0.571921

>  <SCORE.INTRA.norm>
-0.0800012

>  <SCORE.RESTR>
0

>  <SCORE.RESTR.CAVITY>
0

>  <SCORE.RESTR.norm>
0

>  <SCORE.SYSTEM>
0

>  <SCORE.SYSTEM.CONST>
0

>  <SCORE.SYSTEM.DIHEDRAL>
0

>  <SCORE.SYSTEM.SOLV>
0

>  <SCORE.SYSTEM.norm>
0

>  <SCORE.heavy>
10

>  <SCORE.norm>
-1.03497

>  <RMSD>
5.249

$$$$
ligand
 OpenBabel11021811473D
libRbt.so/2013.1/901 2013/11/27
 10  9  0  0  0  0  0  0  0  0999 V2000
   27.4869   15.8390   19.4796 N   0  0  0  0  0  0  0  0  0  0  0  0
   28.6199   15.5502   20.4094 C   0  0  2  0  0  0  0  0  0  0  0  0
   28.1438   14.8428   21.6711 C   0  0  0  0  0  0  0  0  0  0  0  0
   28.8681   14.0601   22.2764 O   0  0  0  0  0  0  0  0  0  0  0  0
   29.3838   16.8307   20.7559 C   0  0  0  0  0  0  0  0  0  0  0  0
   30.7043   16.5819   21.4643 C   0  0  0  0  0  0  0  0  0  0  0  0
   31.3822   17.8863   21.8650 C   0  0  0  0  0  0  0  0  0  0  0  0
   32.7870   17.6247   22.3829 C   0  0  0  0  0  0  0  0  0  0  0  0
   33.4638   18.8732   22.8848 N   0  0  0  0  0  0  0  0  0  0  0  0
   27.0369   15.0434   22.1523 O   0  0  0  0  0  0  0  0  0  0  0  0
  2  1  1  6  0  0  0
  2  3  1  0  0  0  0
  2  5  1  0  0  0  0
  3  4  1  0  0  0  0
  3 10  1  0  0  0  0
  5  6  1  0  0  0  0
  6  7  1  0  0  0  0
  7  8  1  0  0  0  0
  8  9  1  0  0  0  0
M  END
>  <CHROM.1>
149.92239180,-168.35851796,-176.39640174,-171.61650597,-175.88801946,29.76800091
16.29014700,21.55934392,2.97495811,0.57770223,2.24360108

>  <Name>
ligand

>  <RI>
0

>  <Rbt.Current_Directory>
/home/itssahil/PROJECTS/Mol_Feturizer/New_Systems/rnas/3DIZ

>  <Rbt.Executable>
rbdock ($Id: //depot/dev/client3/rdock/2013.1/src/exe/rbdock.cxx#4 $)

>  <Rbt.Library>
libRbt.so (2013.1, Build901 2013/11/27)

>  <Rbt.Parameter_File>
/export/apps/rDock/src/rDock_2013.1_src/data/scripts/dock_solv.prm

>  <Rbt.Receptor>
prm/pocket_docking_3.prm

>  <SCORE>
-8.60605

>  <SCORE.INTER>
-6.78756

>  <SCORE.INTER.CONST>
1

>  <SCORE.INTER.POLAR>
0

>  <SCORE.INTER.ROT>
5

>  <SCORE.INTER.SOLV>
15.774

>  <SCORE.INTER.VDW>
-16.7164

>  <SCORE.INTER.norm>
-0.678756

>  <SCORE.INTRA>
-1.81849

>  <SCORE.INTRA.DIHEDRAL>
-1.32816

>  <SCORE.INTRA.DIHEDRAL.0>
3.67053

>  <SCORE.INTRA.POLAR>
0

>  <SCORE.INTRA.POLAR.0>
0

>  <SCORE.INTRA.REPUL>
0

>  <SCORE.INTRA.REPUL.0>
0

>  <SCORE.INTRA.SOLV>
-1.71086

>  <SCORE.INTRA.SOLV.lig_0>
-32.0553

>  <SCORE.INTRA.VDW>
-0.298984

>  <SCORE.INTRA.VDW.0>
-0.571921

>  <SCORE.INTRA.norm>
-0.181849

>  <SCORE.RESTR>
0

>  <SCORE.RESTR.CAVITY>
0

>  <SCORE.RESTR.norm>
0

>  <SCORE.SYSTEM>
0

>  <SCORE.SYSTEM.CONST>
0

>  <SCORE.SYSTEM.DIHEDRAL>
0

>  <SCORE.SYSTEM.SOLV>
0

>  <SCORE.SYSTEM.norm>
0

>  <SCORE.heavy>
10

>  <SCORE.norm>
-0.860605

>  <RMSD>
5.250

$$$$
ligand
 OpenBabel11021811473D
libRbt.so/2013.1/901 2013/11/27
 10  9  0  0  0  0  0  0  0  0999 V2000
   28.0126   14.2158   18.5792 N   0  0  0  0  0  0  0  0  0  0  0  0
   28.0840   14.3505   20.0652 C   0  0  2  0  0  0  0  0  0  0  0  0
   26.8461   15.0376   20.6263 C   0  0  0  0  0  0  0  0  0  0  0  0
   26.5283   14.9184   21.8046 O   0  0  0  0  0  0  0  0  0  0  0  0
   29.3571   15.0880   20.4876 C   0  0  0  0  0  0  0  0  0  0  0  0
   29.5265   15.2022   21.9928 C   0  0  0  0  0  0  0  0  0  0  0  0
   30.8803   15.7953   22.3632 C   0  0  0  0  0  0  0  0  0  0  0  0
   30.9553   17.2580   21.9571 C   0  0  0  0  0  0  0  0  0  0  0  0
   32.3056   17.8682   22.2273 N   0  0  0  0  0  0  0  0  0  0  0  0
   26.1339   15.7585   19.9407 O   0  0  0  0  0  0  0  0  0  0  0  0
  2  1  1  6  0  0  0
  2  3  1  0  0  0  0
  2  5  1  0  0  0  0
  3  4  1  0  0  0  0
  3 10  1  0  0  0  0
  5  6  1  0  0  0  0
  6  7  1  0  0  0  0
  7  8  1  0  0  0  0
  8  9  1  0  0  0  0
M  END
>  <CHROM.1>
159.40191611,-177.25335422,173.31541603,68.58349145,-176.54916523,28.82619928
15.55909303,21.01300237,-2.59952151,0.19845387,1.08469641

>  <Name>
ligand

>  <RI>
0

>  <Rbt.Current_Directory>
/home/itssahil/PROJECTS/Mol_Feturizer/New_Systems/rnas/3DIZ

>  <Rbt.Executable>
rbdock ($Id: //depot/dev/client3/rdock/2013.1/src/exe/rbdock.cxx#4 $)

>  <Rbt.Library>
libRbt.so (2013.1, Build901 2013/11/27)

>  <Rbt.Parameter_File>
/export/apps/rDock/src/rDock_2013.1_src/data/scripts/dock_solv.prm

>  <Rbt.Receptor>
prm/pocket_docking_3.prm

>  <SCORE>
-9.70386

>  <SCORE.INTER>
-8.78555

>  <SCORE.INTER.CONST>
1

>  <SCORE.INTER.POLAR>
0

>  <SCORE.INTER.ROT>
5

>  <SCORE.INTER.SOLV>
14.4181

>  <SCORE.INTER.VDW>
-17.5964

>  <SCORE.INTER.norm>
-0.878555

>  <SCORE.INTRA>
-0.918315

>  <SCORE.INTRA.DIHEDRAL>
-1.66697

>  <SCORE.INTRA.DIHEDRAL.0>
3.67053

>  <SCORE.INTRA.POLAR>
0

>  <SCORE.INTRA.POLAR.0>
0

>  <SCORE.INTRA.REPUL>
0

>  <SCORE.INTRA.REPUL.0>
0

>  <SCORE.INTRA.SOLV>
-1.46696

>  <SCORE.INTRA.SOLV.lig_0>
-32.0553

>  <SCORE.INTRA.VDW>
0.648648

>  <SCORE.INTRA.VDW.0>
-0.571921

>  <SCORE.INTRA.norm>
-0.0918315

>  <SCORE.RESTR>
0

>  <SCORE.RESTR.CAVITY>
0

>  <SCORE.RESTR.norm>
0

>  <SCORE.SYSTEM>
0

>  <SCORE.SYSTEM.CONST>
0

>  <SCORE.SYSTEM.DIHEDRAL>
0

>  <SCORE.SYSTEM.SOLV>
0

>  <SCORE.SYSTEM.norm>
0

>  <SCORE.heavy>
10

>  <SCORE.norm>
-0.970386

>  <RMSD>
5.252

$$$$
ligand
 OpenBabel11021811473D
libRbt.so/2013.1/901 2013/11/27
 10  9  0  0  0  0  0  0  0  0999 V2000
   27.1934   13.9004   18.5311 N   0  0  0  0  0  0  0  0  0  0  0  0
   27.7910   14.6920   19.6481 C   0  0  2  0  0  0  0  0  0  0  0  0
   26.8092   14.8679   20.7989 C   0  0  0  0  0  0  0  0  0  0  0  0
   27.1909   14.9083   21.9635 O   0  0  0  0  0  0  0  0  0  0  0  0
   28.2965   16.0479   19.1489 C   0  0  0  0  0  0  0  0  0  0  0  0
   29.2339   16.7458   20.1194 C   0  0  0  0  0  0  0  0  0  0  0  0
   30.5303   15.9676   20.3074 C   0  0  0  0  0  0  0  0  0  0  0  0
   31.5312   16.7781   21.1144 C   0  0  0  0  0  0  0  0  0  0  0  0
   31.0323   17.1087   22.4967 N   0  0  0  0  0  0  0  0  0  0  0  0
   25.6075   15.0059   20.6148 O   0  0  0  0  0  0  0  0  0  0  0  0
  2  1  1  6  0  0  0
  2  3  1  0  0  0  0
  2  5  1  0  0  0  0
  3  4  1  0  0  0  0
  3 10  1  0  0  0  0
  5  6  1  0  0  0  0
  6  7  1  0  0  0  0
  7  8  1  0  0  0  0
  8  9  1  0  0  0  0
M  END
>  <CHROM.1>
146.30654458,-164.57398586,64.95544150,171.62836303,61.08266984,28.49178857
15.60124534,20.49834900,-2.80104218,0.38947650,1.34856009

>  <Name>
ligand

>  <RI>
0

>  <Rbt.Current_Directory>
/home/itssahil/PROJECTS/Mol_Feturizer/New_Systems/rnas/3DIZ

>  <Rbt.Executable>
rbdock ($Id: //depot/dev/client3/rdock/2013.1/src/exe/rbdock.cxx#4 $)

>  <Rbt.Library>
libRbt.so (2013.1, Build901 2013/11/27)

>  <Rbt.Parameter_File>
/export/apps/rDock/src/rDock_2013.1_src/data/scripts/dock_solv.prm

>  <Rbt.Receptor>
prm/pocket_docking_2.prm

>  <SCORE>
-9.26069

>  <SCORE.INTER>
-8.44359

>  <SCORE.INTER.CONST>
1

>  <SCORE.INTER.POLAR>
0

>  <SCORE.INTER.ROT>
5

>  <SCORE.INTER.SOLV>
14.982

>  <SCORE.INTER.VDW>
-17.5564

>  <SCORE.INTER.norm>
-0.844359

>  <SCORE.INTRA>
-0.818087

>  <SCORE.INTRA.DIHEDRAL>
-0.974072

>  <SCORE.INTRA.DIHEDRAL.0>
3.67053

>  <SCORE.INTRA.POLAR>
0

>  <SCORE.INTRA.POLAR.0>
0

>  <SCORE.INTRA.REPUL>
0

>  <SCORE.INTRA.REPUL.0>
0

>  <SCORE.INTRA.SOLV>
-0.453935

>  <SCORE.INTRA.SOLV.lig_0>
-32.0553

>  <SCORE.INTRA.VDW>
-0.104083

>  <SCORE.INTRA.VDW.0>
-0.571921

>  <SCORE.INTRA.norm>
-0.0818087

>  <SCORE.RESTR>
0.000984762

>  <SCORE.RESTR.CAVITY>
0.000984762

>  <SCORE.RESTR.norm>
9.84762e-05

>  <SCORE.SYSTEM>
0

>  <SCORE.SYSTEM.CONST>
0

>  <SCORE.SYSTEM.DIHEDRAL>
0

>  <SCORE.SYSTEM.SOLV>
0

>  <SCORE.SYSTEM.norm>
0

>  <SCORE.heavy>
10

>  <SCORE.norm>
-0.926069

>  <RMSD>
5.253

$$$$
ligand
 OpenBabel11021811473D
libRbt.so/2013.1/901 2013/11/27
 10  9  0  0  0  0  0  0  0  0999 V2000
   27.0154   13.9455   18.7313 N   0  0  0  0  0  0  0  0  0  0  0  0
   27.6686   14.7591   19.8003 C   0  0  2  0  0  0  0  0  0  0  0  0
   26.7791   14.8876   21.0298 C   0  0  0  0  0  0  0  0  0  0  0  0
   27.2537   15.0779   22.1443 O   0  0  0  0  0  0  0  0  0  0  0  0
   28.0710   16.1376   19.2703 C   0  0  0  0  0  0  0  0  0  0  0  0
   28.9902   16.9068   20.2036 C   0  0  0  0  0  0  0  0  0  0  0  0
   30.3522   16.2358   20.3310 C   0  0  0  0  0  0  0  0  0  0  0  0
   31.2754   17.0577   21.2154 C   0  0  0  0  0  0  0  0  0  0  0  0
   30.7642   17.1898   22.6260 N   0  0  0  0  0  0  0  0  0  0  0  0
   25.5587   14.8374   20.9592 O   0  0  0  0  0  0  0  0  0  0  0  0
  2  1  1  6  0  0  0
  2  3  1  0  0  0  0
  2  5  1  0  0  0  0
  3  4  1  0  0  0  0
  3 10  1  0  0  0  0
  5  6  1  0  0  0  0
  6  7  1  0  0  0  0
  7  8  1  0  0  0  0
  8  9  1  0  0  0  0
M  END
>  <CHROM.1>
153.84513723,-167.97226171,66.51381252,177.27873017,62.36494532,28.34551098
15.70111263,20.65708225,-2.82662133,0.46389019,1.39312353

>  <Name>
ligand

>  <RI>
0

>  <Rbt.Current_Directory>
/home/itssahil/PROJECTS/Mol_Feturizer/New_Systems/rnas/3DIZ

>  <Rbt.Executable>
rbdock ($Id: //depot/dev/client3/rdock/2013.1/src/exe/rbdock.cxx#4 $)

>  <Rbt.Library>
libRbt.so (2013.1, Build901 2013/11/27)

>  <Rbt.Parameter_File>
/export/apps/rDock/src/rDock_2013.1_src/data/scripts/dock_solv.prm

>  <Rbt.Receptor>
prm/pocket_docking_6.prm

>  <SCORE>
-9.69534

>  <SCORE.INTER>
-8.61089

>  <SCORE.INTER.CONST>
1

>  <SCORE.INTER.POLAR>
0

>  <SCORE.INTER.ROT>
5

>  <SCORE.INTER.SOLV>
15.7672

>  <SCORE.INTER.VDW>
-17.9297

>  <SCORE.INTER.norm>
-0.861089

>  <SCORE.INTRA>
-1.08445

>  <SCORE.INTRA.DIHEDRAL>
-1.47459

>  <SCORE.INTRA.DIHEDRAL.0>
3.67053

>  <SCORE.INTRA.POLAR>
0

>  <SCORE.INTRA.POLAR.0>
0

>  <SCORE.INTRA.REPUL>
0

>  <SCORE.INTRA.REPUL.0>
0

>  <SCORE.INTRA.SOLV>
-0.483277

>  <SCORE.INTRA.SOLV.lig_0>
-32.0553

>  <SCORE.INTRA.VDW>
-0.10551

>  <SCORE.INTRA.VDW.0>
-0.571921

>  <SCORE.INTRA.norm>
-0.108445

>  <SCORE.RESTR>
0

>  <SCORE.RESTR.CAVITY>
0

>  <SCORE.RESTR.norm>
0

>  <SCORE.SYSTEM>
0

>  <SCORE.SYSTEM.CONST>
0

>  <SCORE.SYSTEM.DIHEDRAL>
0

>  <SCORE.SYSTEM.SOLV>
0

>  <SCORE.SYSTEM.norm>
0

>  <SCORE.heavy>
10

>  <SCORE.norm>
-0.969534

>  <RMSD>
5.253

$$$$
ligand
 OpenBabel11021811473D
libRbt.so/2013.1/901 2013/11/27
 10  9  0  0  0  0  0  0  0  0999 V2000
   28.3810   16.9657   19.7497 N   0  0  0  0  0  0  0  0  0  0  0  0
   28.3639   15.5619   20.2602 C   0  0  2  0  0  0  0  0  0  0  0  0
   27.0214   14.8892   20.0067 C   0  0  0  0  0  0  0  0  0  0  0  0
   26.9118   13.9613   19.2127 O   0  0  0  0  0  0  0  0  0  0  0  0
   28.7266   15.5154   21.7466 C   0  0  0  0  0  0  0  0  0  0  0  0
   30.1898   15.8110   22.0282 C   0  0  0  0  0  0  0  0  0  0  0  0
   30.5298   17.2723   21.7627 C   0  0  0  0  0  0  0  0  0  0  0  0
   32.0207   17.5160   21.9294 C   0  0  0  0  0  0  0  0  0  0  0  0
   32.8519   16.7273   20.9517 N   0  0  0  0  0  0  0  0  0  0  0  0
   26.0042   15.2205   20.6006 O   0  0  0  0  0  0  0  0  0  0  0  0
  2  1  1  1  0  0  0
  2  3  1  0  0  0  0
  2  5  1  0  0  0  0
  3  4  1  0  0  0  0
  3 10  1  0  0  0  0
  5  6  1  0  0  0  0
  6  7  1  0  0  0  0
  7  8  1  0  0  0  0
  8  9  1  0  0  0  0
M  END
>  <CHROM.1>
112.12858885,-71.27568555,69.78176431,-174.87832250,62.19636594,29.06077895
15.92377625,20.81503288,-2.71702228,0.26238490,1.16291020

>  <Name>
ligand

>  <RI>
0

>  <Rbt.Current_Directory>
/home/itssahil/PROJECTS/Mol_Feturizer/New_Systems/rnas/3DIZ

>  <Rbt.Executable>
rbdock ($Id: //depot/dev/client3/rdock/2013.1/src/exe/rbdock.cxx#4 $)

>  <Rbt.Library>
libRbt.so (2013.1, Build901 2013/11/27)

>  <Rbt.Parameter_File>
/export/apps/rDock/src/rDock_2013.1_src/data/scripts/dock_solv.prm

>  <Rbt.Receptor>
prm/pocket_docking_6.prm

>  <SCORE>
-7.8193

>  <SCORE.INTER>
-8.1656

>  <SCORE.INTER.CONST>
1

>  <SCORE.INTER.POLAR>
0

>  <SCORE.INTER.ROT>
5

>  <SCORE.INTER.SOLV>
14.584

>  <SCORE.INTER.VDW>
-17.2384

>  <SCORE.INTER.norm>
-0.81656

>  <SCORE.INTRA>
0.346303

>  <SCORE.INTRA.DIHEDRAL>
-1.10758

>  <SCORE.INTRA.DIHEDRAL.0>
3.67053

>  <SCORE.INTRA.POLAR>
0

>  <SCORE.INTRA.POLAR.0>
0

>  <SCORE.INTRA.REPUL>
0

>  <SCORE.INTRA.REPUL.0>
0

>  <SCORE.INTRA.SOLV>
1.45413

>  <SCORE.INTRA.SOLV.lig_0>
-32.0553

>  <SCORE.INTRA.VDW>
0.17303

>  <SCORE.INTRA.VDW.0>
-0.571921

>  <SCORE.INTRA.norm>
0.0346303

>  <SCORE.RESTR>
0

>  <SCORE.RESTR.CAVITY>
0

>  <SCORE.RESTR.norm>
0

>  <SCORE.SYSTEM>
0

>  <SCORE.SYSTEM.CONST>
0

>  <SCORE.SYSTEM.DIHEDRAL>
0

>  <SCORE.SYSTEM.SOLV>
0

>  <SCORE.SYSTEM.norm>
0

>  <SCORE.heavy>
10

>  <SCORE.norm>
-0.78193

>  <RMSD>
5.254

$$$$
ligand
 OpenBabel11021811473D
libRbt.so/2013.1/901 2013/11/27
 10  9  0  0  0  0  0  0  0  0999 V2000
   27.1536   14.4218   18.5967 N   0  0  0  0  0  0  0  0  0  0  0  0
   27.7891   14.9396   19.8455 C   0  0  2  0  0  0  0  0  0  0  0  0
   26.7945   15.0015   20.9970 C   0  0  0  0  0  0  0  0  0  0  0  0
   25.5878   14.8988   20.8049 O   0  0  0  0  0  0  0  0  0  0  0  0
   28.4333   16.3073   19.6055 C   0  0  0  0  0  0  0  0  0  0  0  0
   29.3490   16.7575   20.7308 C   0  0  0  0  0  0  0  0  0  0  0  0
   30.5629   15.8468   20.8668 C   0  0  0  0  0  0  0  0  0  0  0  0
   31.3850   16.2260   22.0876 C   0  0  0  0  0  0  0  0  0  0  0  0
   32.0190   17.5865   21.9623 N   0  0  0  0  0  0  0  0  0  0  0  0
   27.1517   15.1255   22.1606 O   0  0  0  0  0  0  0  0  0  0  0  0
  2  1  1  6  0  0  0
  2  3  1  0  0  0  0
  2  5  1  0  0  0  0
  3  4  1  0  0  0  0
  3 10  1  0  0  0  0
  5  6  1  0  0  0  0
  6  7  1  0  0  0  0
  7  8  1  0  0  0  0
  8  9  1  0  0  0  0
M  END
>  <CHROM.1>
-13.84946537,-167.46896259,64.86364199,-173.95910521,-66.17274881,28.59140551
15.70714786,20.78921406,-2.84628484,0.36159072,1.46317504

>  <Name>
ligand

>  <RI>
0

>  <Rbt.Current_Directory>
/home/itssahil/PROJECTS/Mol_Feturizer/New_Systems/rnas/3DIZ

>  <Rbt.Executable>
rbdock ($Id: //depot/dev/client3/rdock/2013.1/src/exe/rbdock.cxx#4 $)

>  <Rbt.Library>
libRbt.so (2013.1, Build901 2013/11/27)

>  <Rbt.Parameter_File>
/export/apps/rDock/src/rDock_2013.1_src/data/scripts/dock_solv.prm

>  <Rbt.Receptor>
prm/pocket_docking_7.prm

>  <SCORE>
-10.3502

>  <SCORE.INTER>
-9.57346

>  <SCORE.INTER.CONST>
1

>  <SCORE.INTER.POLAR>
0

>  <SCORE.INTER.ROT>
5

>  <SCORE.INTER.SOLV>
14.4735

>  <SCORE.INTER.VDW>
-18.1402

>  <SCORE.INTER.norm>
-0.957346

>  <SCORE.INTRA>
-0.776755

>  <SCORE.INTRA.DIHEDRAL>
-1.15951

>  <SCORE.INTRA.DIHEDRAL.0>
3.67053

>  <SCORE.INTRA.POLAR>
0

>  <SCORE.INTRA.POLAR.0>
0

>  <SCORE.INTRA.REPUL>
0

>  <SCORE.INTRA.REPUL.0>
0

>  <SCORE.INTRA.SOLV>
-0.522831

>  <SCORE.INTRA.SOLV.lig_0>
-32.0553

>  <SCORE.INTRA.VDW>
0.0644153

>  <SCORE.INTRA.VDW.0>
-0.571921

>  <SCORE.INTRA.norm>
-0.0776755

>  <SCORE.RESTR>
0

>  <SCORE.RESTR.CAVITY>
0

>  <SCORE.RESTR.norm>
0

>  <SCORE.SYSTEM>
0

>  <SCORE.SYSTEM.CONST>
0

>  <SCORE.SYSTEM.DIHEDRAL>
0

>  <SCORE.SYSTEM.SOLV>
0

>  <SCORE.SYSTEM.norm>
0

>  <SCORE.heavy>
10

>  <SCORE.norm>
-1.03502

>  <RMSD>
5.255

$$$$
ligand
 OpenBabel11021811473D
libRbt.so/2013.1/901 2013/11/27
 10  9  0  0  0  0  0  0  0  0999 V2000
   27.0145   13.9431   18.7337 N   0  0  0  0  0  0  0  0  0  0  0  0
   27.6655   14.7588   19.8024 C   0  0  2  0  0  0  0  0  0  0  0  0
   26.7766   14.8837   21.0326 C   0  0  0  0  0  0  0  0  0  0  0  0
   27.2503   15.0904   22.1446 O   0  0  0  0  0  0  0  0  0  0  0  0
   28.0624   16.1390   19.2726 C   0  0  0  0  0  0  0  0  0  0  0  0
   28.9856   16.9082   20.2019 C   0  0  0  0  0  0  0  0  0  0  0  0
   30.3365   16.2193   20.3497 C   0  0  0  0  0  0  0  0  0  0  0  0
   31.2729   17.0518   21.2099 C   0  0  0  0  0  0  0  0  0  0  0  0
   30.7604   17.2398   22.6138 N   0  0  0  0  0  0  0  0  0  0  0  0
   25.5569   14.8140   20.9650 O   0  0  0  0  0  0  0  0  0  0  0  0
  2  1  1  6  0  0  0
  2  3  1  0  0  0  0
  2  5  1  0  0  0  0
  3  4  1  0  0  0  0
  3 10  1  0  0  0  0
  5  6  1  0  0  0  0
  6  7  1  0  0  0  0
  7  8  1  0  0  0  0
  8  9  1  0  0  0  0
M  END
>  <CHROM.1>
154.67761556,-167.65280339,64.97175862,176.31365786,62.06579228,28.34084938
15.70228739,20.65860182,-2.82299494,0.46609122,1.38534578

>  <Name>
ligand

>  <RI>
0

>  <Rbt.Current_Directory>
/home/itssahil/PROJECTS/Mol_Feturizer/New_Systems/rnas/3DIZ

>  <Rbt.Executable>
rbdock ($Id: //depot/dev/client3/rdock/2013.1/src/exe/rbdock.cxx#4 $)

>  <Rbt.Library>
libRbt.so (2013.1, Build901 2013/11/27)

>  <Rbt.Parameter_File>
/export/apps/rDock/src/rDock_2013.1_src/data/scripts/dock_solv.prm

>  <Rbt.Receptor>
prm/pocket_docking_8.prm

>  <SCORE>
-9.71854

>  <SCORE.INTER>
-8.68143

>  <SCORE.INTER.CONST>
1

>  <SCORE.INTER.POLAR>
0

>  <SCORE.INTER.ROT>
5

>  <SCORE.INTER.SOLV>
15.8411

>  <SCORE.INTER.VDW>
-18.0013

>  <SCORE.INTER.norm>
-0.868143

>  <SCORE.INTRA>
-1.03711

>  <SCORE.INTRA.DIHEDRAL>
-1.49847

>  <SCORE.INTRA.DIHEDRAL.0>
3.67053

>  <SCORE.INTRA.POLAR>
0

>  <SCORE.INTRA.POLAR.0>
0

>  <SCORE.INTRA.REPUL>
0

>  <SCORE.INTRA.REPUL.0>
0

>  <SCORE.INTRA.SOLV>
-0.472564

>  <SCORE.INTRA.SOLV.lig_0>
-32.0553

>  <SCORE.INTRA.VDW>
-0.0515972

>  <SCORE.INTRA.VDW.0>
-0.571921

>  <SCORE.INTRA.norm>
-0.103711

>  <SCORE.RESTR>
0

>  <SCORE.RESTR.CAVITY>
0

>  <SCORE.RESTR.norm>
0

>  <SCORE.SYSTEM>
0

>  <SCORE.SYSTEM.CONST>
0

>  <SCORE.SYSTEM.DIHEDRAL>
0

>  <SCORE.SYSTEM.SOLV>
0

>  <SCORE.SYSTEM.norm>
0

>  <SCORE.heavy>
10

>  <SCORE.norm>
-0.971854

>  <RMSD>
5.255

$$$$
ligand
 OpenBabel11021811473D
libRbt.so/2013.1/901 2013/11/27
 10  9  0  0  0  0  0  0  0  0999 V2000
   27.2719   13.8434   18.3510 N   0  0  0  0  0  0  0  0  0  0  0  0
   27.8437   14.2981   19.6540 C   0  0  2  0  0  0  0  0  0  0  0  0
   26.8937   15.2363   20.3865 C   0  0  0  0  0  0  0  0  0  0  0  0
   26.5728   16.3197   19.9105 O   0  0  0  0  0  0  0  0  0  0  0  0
   29.2121   14.9539   19.4524 C   0  0  0  0  0  0  0  0  0  0  0  0
   29.9045   15.3346   20.7497 C   0  0  0  0  0  0  0  0  0  0  0  0
   31.2457   16.0110   20.4941 C   0  0  0  0  0  0  0  0  0  0  0  0
   31.8536   16.5077   21.7955 C   0  0  0  0  0  0  0  0  0  0  0  0
   31.0665   17.6340   22.4126 N   0  0  0  0  0  0  0  0  0  0  0  0
   26.3873   14.9423   21.4608 O   0  0  0  0  0  0  0  0  0  0  0  0
  2  1  1  6  0  0  0
  2  3  1  0  0  0  0
  2  5  1  0  0  0  0
  3  4  1  0  0  0  0
  3 10  1  0  0  0  0
  5  6  1  0  0  0  0
  6  7  1  0  0  0  0
  7  8  1  0  0  0  0
  8  9  1  0  0  0  0
M  END
>  <CHROM.1>
-62.88908253,-175.10633432,-178.70225843,174.28206902,-67.27719288,28.79412454
15.52398636,20.47980540,-2.61868633,0.06701904,0.89333354

>  <Name>
ligand

>  <RI>
0

>  <Rbt.Current_Directory>
/home/itssahil/PROJECTS/Mol_Feturizer/New_Systems/rnas/3DIZ

>  <Rbt.Executable>
rbdock ($Id: //depot/dev/client3/rdock/2013.1/src/exe/rbdock.cxx#4 $)

>  <Rbt.Library>
libRbt.so (2013.1, Build901 2013/11/27)

>  <Rbt.Parameter_File>
/export/apps/rDock/src/rDock_2013.1_src/data/scripts/dock_solv.prm

>  <Rbt.Receptor>
prm/pocket_docking_8.prm

>  <SCORE>
-8.24894

>  <SCORE.INTER>
-6.8177

>  <SCORE.INTER.CONST>
1

>  <SCORE.INTER.POLAR>
0

>  <SCORE.INTER.ROT>
5

>  <SCORE.INTER.SOLV>
16.0635

>  <SCORE.INTER.VDW>
-16.833

>  <SCORE.INTER.norm>
-0.68177

>  <SCORE.INTRA>
-1.43123

>  <SCORE.INTRA.DIHEDRAL>
-1.75847

>  <SCORE.INTRA.DIHEDRAL.0>
3.67053

>  <SCORE.INTRA.POLAR>
0

>  <SCORE.INTRA.POLAR.0>
0

>  <SCORE.INTRA.REPUL>
0

>  <SCORE.INTRA.REPUL.0>
0

>  <SCORE.INTRA.SOLV>
-0.809058

>  <SCORE.INTRA.SOLV.lig_0>
-32.0553

>  <SCORE.INTRA.VDW>
-0.147468

>  <SCORE.INTRA.VDW.0>
-0.571921

>  <SCORE.INTRA.norm>
-0.143123

>  <SCORE.RESTR>
0

>  <SCORE.RESTR.CAVITY>
0

>  <SCORE.RESTR.norm>
0

>  <SCORE.SYSTEM>
0

>  <SCORE.SYSTEM.CONST>
0

>  <SCORE.SYSTEM.DIHEDRAL>
0

>  <SCORE.SYSTEM.SOLV>
0

>  <SCORE.SYSTEM.norm>
0

>  <SCORE.heavy>
10

>  <SCORE.norm>
-0.824894

>  <RMSD>
5.260

$$$$
ligand
 OpenBabel11021811473D
libRbt.so/2013.1/901 2013/11/27
 10  9  0  0  0  0  0  0  0  0999 V2000
   27.1382   14.3709   18.6111 N   0  0  0  0  0  0  0  0  0  0  0  0
   27.7648   14.9121   19.8544 C   0  0  2  0  0  0  0  0  0  0  0  0
   26.7650   14.9841   21.0009 C   0  0  0  0  0  0  0  0  0  0  0  0
   27.1332   15.1327   22.1610 O   0  0  0  0  0  0  0  0  0  0  0  0
   28.4001   16.2806   19.5963 C   0  0  0  0  0  0  0  0  0  0  0  0
   29.3181   16.7486   20.7125 C   0  0  0  0  0  0  0  0  0  0  0  0
   30.5302   15.8378   20.8631 C   0  0  0  0  0  0  0  0  0  0  0  0
   31.3472   16.2282   22.0838 C   0  0  0  0  0  0  0  0  0  0  0  0
   31.9649   17.5962   21.9572 N   0  0  0  0  0  0  0  0  0  0  0  0
   25.5568   14.9277   20.8162 O   0  0  0  0  0  0  0  0  0  0  0  0
  2  1  1  6  0  0  0
  2  3  1  0  0  0  0
  2  5  1  0  0  0  0
  3  4  1  0  0  0  0
  3 10  1  0  0  0  0
  5  6  1  0  0  0  0
  6  7  1  0  0  0  0
  7  8  1  0  0  0  0
  8  9  1  0  0  0  0
M  END
>  <CHROM.1>
164.69956934,-166.93136523,64.25671110,-173.41296367,-65.23249817,28.56075751
15.69892787,20.78913803,-2.83929362,0.35852686,1.44104279

>  <Name>
ligand

>  <RI>
0

>  <Rbt.Current_Directory>
/home/itssahil/PROJECTS/Mol_Feturizer/New_Systems/rnas/3DIZ

>  <Rbt.Executable>
rbdock ($Id: //depot/dev/client3/rdock/2013.1/src/exe/rbdock.cxx#4 $)

>  <Rbt.Library>
libRbt.so (2013.1, Build901 2013/11/27)

>  <Rbt.Parameter_File>
/export/apps/rDock/src/rDock_2013.1_src/data/scripts/dock_solv.prm

>  <Rbt.Receptor>
prm/pocket_docking_8.prm

>  <SCORE>
-10.3652

>  <SCORE.INTER>
-9.56187

>  <SCORE.INTER.CONST>
1

>  <SCORE.INTER.POLAR>
0

>  <SCORE.INTER.ROT>
5

>  <SCORE.INTER.SOLV>
14.5277

>  <SCORE.INTER.VDW>
-18.1505

>  <SCORE.INTER.norm>
-0.956187

>  <SCORE.INTRA>
-0.803289

>  <SCORE.INTRA.DIHEDRAL>
-1.23668

>  <SCORE.INTRA.DIHEDRAL.0>
3.67053

>  <SCORE.INTRA.POLAR>
0

>  <SCORE.INTRA.POLAR.0>
0

>  <SCORE.INTRA.REPUL>
0

>  <SCORE.INTRA.REPUL.0>
0

>  <SCORE.INTRA.SOLV>
-0.514473

>  <SCORE.INTRA.SOLV.lig_0>
-32.0553

>  <SCORE.INTRA.VDW>
0.0722884

>  <SCORE.INTRA.VDW.0>
-0.571921

>  <SCORE.INTRA.norm>
-0.0803289

>  <SCORE.RESTR>
0

>  <SCORE.RESTR.CAVITY>
0

>  <SCORE.RESTR.norm>
0

>  <SCORE.SYSTEM>
0

>  <SCORE.SYSTEM.CONST>
0

>  <SCORE.SYSTEM.DIHEDRAL>
0

>  <SCORE.SYSTEM.SOLV>
0

>  <SCORE.SYSTEM.norm>
0

>  <SCORE.heavy>
10

>  <SCORE.norm>
-1.03652

>  <RMSD>
5.261

$$$$
ligand
 OpenBabel11021811473D
libRbt.so/2013.1/901 2013/11/27
 10  9  0  0  0  0  0  0  0  0999 V2000
   28.0196   15.0628   18.9169 N   0  0  0  0  0  0  0  0  0  0  0  0
   28.0837   14.5945   20.3340 C   0  0  2  0  0  0  0  0  0  0  0  0
   26.8218   14.9613   21.1035 C   0  0  0  0  0  0  0  0  0  0  0  0
   26.8523   15.1917   22.3075 O   0  0  0  0  0  0  0  0  0  0  0  0
   29.3298   15.1408   21.0353 C   0  0  0  0  0  0  0  0  0  0  0  0
   29.3889   16.6580   21.0827 C   0  0  0  0  0  0  0  0  0  0  0  0
   30.6345   17.1501   21.8091 C   0  0  0  0  0  0  0  0  0  0  0  0
   31.8862   16.8219   21.0119 C   0  0  0  0  0  0  0  0  0  0  0  0
   33.1378   17.3778   21.6390 N   0  0  0  0  0  0  0  0  0  0  0  0
   25.7334   15.0716   20.5556 O   0  0  0  0  0  0  0  0  0  0  0  0
  2  1  1  6  0  0  0
  2  3  1  0  0  0  0
  2  5  1  0  0  0  0
  3  4  1  0  0  0  0
  3 10  1  0  0  0  0
  5  6  1  0  0  0  0
  6  7  1  0  0  0  0
  7  8  1  0  0  0  0
  8  9  1  0  0  0  0
M  END
>  <CHROM.1>
-149.20704796,60.13545812,179.08755657,67.65167528,175.76549007,28.95041575
15.80479966,20.99523016,-2.91298134,0.32415114,1.24220023

>  <Name>
ligand

>  <RI>
0

>  <Rbt.Current_Directory>
/home/itssahil/PROJECTS/Mol_Feturizer/New_Systems/rnas/3DIZ

>  <Rbt.Executable>
rbdock ($Id: //depot/dev/client3/rdock/2013.1/src/exe/rbdock.cxx#4 $)

>  <Rbt.Library>
libRbt.so (2013.1, Build901 2013/11/27)

>  <Rbt.Parameter_File>
/export/apps/rDock/src/rDock_2013.1_src/data/scripts/dock_solv.prm

>  <Rbt.Receptor>
prm/pocket_docking_3.prm

>  <SCORE>
-9.23227

>  <SCORE.INTER>
-9.17938

>  <SCORE.INTER.CONST>
1

>  <SCORE.INTER.POLAR>
0

>  <SCORE.INTER.ROT>
5

>  <SCORE.INTER.SOLV>
13.1092

>  <SCORE.INTER.VDW>
-17.4226

>  <SCORE.INTER.norm>
-0.917938

>  <SCORE.INTRA>
-0.0528931

>  <SCORE.INTRA.DIHEDRAL>
-1.79371

>  <SCORE.INTRA.DIHEDRAL.0>
3.67053

>  <SCORE.INTRA.POLAR>
0

>  <SCORE.INTRA.POLAR.0>
0

>  <SCORE.INTRA.REPUL>
0

>  <SCORE.INTRA.REPUL.0>
0

>  <SCORE.INTRA.SOLV>
-0.611371

>  <SCORE.INTRA.SOLV.lig_0>
-32.0553

>  <SCORE.INTRA.VDW>
1.14965

>  <SCORE.INTRA.VDW.0>
-0.571921

>  <SCORE.INTRA.norm>
-0.00528931

>  <SCORE.RESTR>
0

>  <SCORE.RESTR.CAVITY>
0

>  <SCORE.RESTR.norm>
0

>  <SCORE.SYSTEM>
0

>  <SCORE.SYSTEM.CONST>
0

>  <SCORE.SYSTEM.DIHEDRAL>
0

>  <SCORE.SYSTEM.SOLV>
0

>  <SCORE.SYSTEM.norm>
0

>  <SCORE.heavy>
10

>  <SCORE.norm>
-0.923227

>  <RMSD>
5.263

$$$$
ligand
 OpenBabel11021811473D
libRbt.so/2013.1/901 2013/11/27
 10  9  0  0  0  0  0  0  0  0999 V2000
   27.1427   14.3829   18.5973 N   0  0  0  0  0  0  0  0  0  0  0  0
   27.7659   14.9187   19.8448 C   0  0  2  0  0  0  0  0  0  0  0  0
   26.7622   14.9884   20.9880 C   0  0  0  0  0  0  0  0  0  0  0  0
   27.1245   15.1648   22.1461 O   0  0  0  0  0  0  0  0  0  0  0  0
   28.4044   16.2871   19.5937 C   0  0  0  0  0  0  0  0  0  0  0  0
   29.3178   16.7504   20.7156 C   0  0  0  0  0  0  0  0  0  0  0  0
   30.5351   15.8456   20.8599 C   0  0  0  0  0  0  0  0  0  0  0  0
   31.3500   16.2322   22.0832 C   0  0  0  0  0  0  0  0  0  0  0  0
   31.9829   17.5929   21.9543 N   0  0  0  0  0  0  0  0  0  0  0  0
   25.5560   14.9023   20.8021 O   0  0  0  0  0  0  0  0  0  0  0  0
  2  1  1  6  0  0  0
  2  3  1  0  0  0  0
  2  5  1  0  0  0  0
  3  4  1  0  0  0  0
  3 10  1  0  0  0  0
  5  6  1  0  0  0  0
  6  7  1  0  0  0  0
  7  8  1  0  0  0  0
  8  9  1  0  0  0  0
M  END
>  <CHROM.1>
166.49949992,-167.00681544,64.83697832,-173.57005244,-66.40156170,28.56295719
15.70352612,20.78188161,-2.83685032,0.35680839,1.43780304

>  <Name>
ligand

>  <RI>
0

>  <Rbt.Current_Directory>
/home/itssahil/PROJECTS/Mol_Feturizer/New_Systems/rnas/3DIZ

>  <Rbt.Executable>
rbdock ($Id: //depot/dev/client3/rdock/2013.1/src/exe/rbdock.cxx#4 $)

>  <Rbt.Library>
libRbt.so (2013.1, Build901 2013/11/27)

>  <Rbt.Parameter_File>
/export/apps/rDock/src/rDock_2013.1_src/data/scripts/dock_solv.prm

>  <Rbt.Receptor>
prm/pocket_docking_3.prm

>  <SCORE>
-10.374

>  <SCORE.INTER>
-9.59839

>  <SCORE.INTER.CONST>
1

>  <SCORE.INTER.POLAR>
0

>  <SCORE.INTER.ROT>
5

>  <SCORE.INTER.SOLV>
14.5268

>  <SCORE.INTER.VDW>
-18.1745

>  <SCORE.INTER.norm>
-0.959839

>  <SCORE.INTRA>
-0.775562

>  <SCORE.INTRA.DIHEDRAL>
-1.17566

>  <SCORE.INTRA.DIHEDRAL.0>
3.67053

>  <SCORE.INTRA.POLAR>
0

>  <SCORE.INTRA.POLAR.0>
0

>  <SCORE.INTRA.REPUL>
0

>  <SCORE.INTRA.REPUL.0>
0

>  <SCORE.INTRA.SOLV>
-0.534136

>  <SCORE.INTRA.SOLV.lig_0>
-32.0553

>  <SCORE.INTRA.VDW>
0.0793353

>  <SCORE.INTRA.VDW.0>
-0.571921

>  <SCORE.INTRA.norm>
-0.0775562

>  <SCORE.RESTR>
0

>  <SCORE.RESTR.CAVITY>
0

>  <SCORE.RESTR.norm>
0

>  <SCORE.SYSTEM>
0

>  <SCORE.SYSTEM.CONST>
0

>  <SCORE.SYSTEM.DIHEDRAL>
0

>  <SCORE.SYSTEM.SOLV>
0

>  <SCORE.SYSTEM.norm>
0

>  <SCORE.heavy>
10

>  <SCORE.norm>
-1.0374

>  <RMSD>
5.264

$$$$
ligand
 OpenBabel11021811473D
libRbt.so/2013.1/901 2013/11/27
 10  9  0  0  0  0  0  0  0  0999 V2000
   27.7832   14.4500   18.8262 N   0  0  0  0  0  0  0  0  0  0  0  0
   28.0017   14.3541   20.3009 C   0  0  2  0  0  0  0  0  0  0  0  0
   26.8465   14.9683   21.0802 C   0  0  0  0  0  0  0  0  0  0  0  0
   25.7675   15.2004   20.5459 O   0  0  0  0  0  0  0  0  0  0  0  0
   29.3328   14.9960   20.7000 C   0  0  0  0  0  0  0  0  0  0  0  0
   29.4711   16.4424   20.2569 C   0  0  0  0  0  0  0  0  0  0  0  0
   30.8512   17.0007   20.5814 C   0  0  0  0  0  0  0  0  0  0  0  0
   30.9942   17.2453   22.0747 C   0  0  0  0  0  0  0  0  0  0  0  0
   32.3434   17.8025   22.4462 N   0  0  0  0  0  0  0  0  0  0  0  0
   26.9306   15.2288   22.2727 O   0  0  0  0  0  0  0  0  0  0  0  0
  2  1  1  6  0  0  0
  2  3  1  0  0  0  0
  2  5  1  0  0  0  0
  3  4  1  0  0  0  0
  3 10  1  0  0  0  0
  5  6  1  0  0  0  0
  6  7  1  0  0  0  0
  7  8  1  0  0  0  0
  8  9  1  0  0  0  0
M  END
>  <CHROM.1>
16.00833432,55.86831802,-175.56316813,-72.92321297,-179.83038247,28.79676337
15.77478184,20.92447535,-2.74486363,0.37114916,1.16500993

>  <Name>
ligand

>  <RI>
0

>  <Rbt.Current_Directory>
/home/itssahil/PROJECTS/Mol_Feturizer/New_Systems/rnas/3DIZ

>  <Rbt.Executable>
rbdock ($Id: //depot/dev/client3/rdock/2013.1/src/exe/rbdock.cxx#4 $)

>  <Rbt.Library>
libRbt.so (2013.1, Build901 2013/11/27)

>  <Rbt.Parameter_File>
/export/apps/rDock/src/rDock_2013.1_src/data/scripts/dock_solv.prm

>  <Rbt.Receptor>
prm/pocket_docking_6.prm

>  <SCORE>
-8.50081

>  <SCORE.INTER>
-8.17445

>  <SCORE.INTER.CONST>
1

>  <SCORE.INTER.POLAR>
0

>  <SCORE.INTER.ROT>
5

>  <SCORE.INTER.SOLV>
13.4052

>  <SCORE.INTER.VDW>
-16.8514

>  <SCORE.INTER.norm>
-0.817445

>  <SCORE.INTRA>
-0.326361

>  <SCORE.INTRA.DIHEDRAL>
-1.37768

>  <SCORE.INTRA.DIHEDRAL.0>
3.67053

>  <SCORE.INTRA.POLAR>
0

>  <SCORE.INTRA.POLAR.0>
0

>  <SCORE.INTRA.REPUL>
0

>  <SCORE.INTRA.REPUL.0>
0

>  <SCORE.INTRA.SOLV>
-0.540389

>  <SCORE.INTRA.SOLV.lig_0>
-32.0553

>  <SCORE.INTRA.VDW>
0.632676

>  <SCORE.INTRA.VDW.0>
-0.571921

>  <SCORE.INTRA.norm>
-0.0326361

>  <SCORE.RESTR>
0

>  <SCORE.RESTR.CAVITY>
0

>  <SCORE.RESTR.norm>
0

>  <SCORE.SYSTEM>
0

>  <SCORE.SYSTEM.CONST>
0

>  <SCORE.SYSTEM.DIHEDRAL>
0

>  <SCORE.SYSTEM.SOLV>
0

>  <SCORE.SYSTEM.norm>
0

>  <SCORE.heavy>
10

>  <SCORE.norm>
-0.850081

>  <RMSD>
5.264

$$$$
ligand
 OpenBabel11021811473D
libRbt.so/2013.1/901 2013/11/27
 10  9  0  0  0  0  0  0  0  0999 V2000
   25.8917   15.5757   19.9848 N   0  0  0  0  0  0  0  0  0  0  0  0
   27.3631   15.3975   20.1709 C   0  0  2  0  0  0  0  0  0  0  0  0
   27.9561   14.4824   19.1079 C   0  0  0  0  0  0  0  0  0  0  0  0
   29.1667   14.4182   18.9236 O   0  0  0  0  0  0  0  0  0  0  0  0
   27.6784   14.8789   21.5762 C   0  0  0  0  0  0  0  0  0  0  0  0
   29.1634   14.8353   21.8927 C   0  0  0  0  0  0  0  0  0  0  0  0
   29.7781   16.2295   21.9006 C   0  0  0  0  0  0  0  0  0  0  0  0
   31.2772   16.1544   22.1394 C   0  0  0  0  0  0  0  0  0  0  0  0
   31.9391   17.5071   22.1120 N   0  0  0  0  0  0  0  0  0  0  0  0
   27.2605   13.7527   18.4146 O   0  0  0  0  0  0  0  0  0  0  0  0
  2  1  1  6  0  0  0
  2  3  1  0  0  0  0
  2  5  1  0  0  0  0
  3  4  1  0  0  0  0
  3 10  1  0  0  0  0
  5  6  1  0  0  0  0
  6  7  1  0  0  0  0
  7  8  1  0  0  0  0
  8  9  1  0  0  0  0
M  END
>  <CHROM.1>
165.43424645,-172.94023150,64.16739139,-176.72025448,178.15855216,28.75364093
15.29969097,20.59240174,2.41800062,-0.10373904,-2.08101475

>  <Name>
ligand

>  <RI>
0

>  <Rbt.Current_Directory>
/home/itssahil/PROJECTS/Mol_Feturizer/New_Systems/rnas/3DIZ

>  <Rbt.Executable>
rbdock ($Id: //depot/dev/client3/rdock/2013.1/src/exe/rbdock.cxx#4 $)

>  <Rbt.Library>
libRbt.so (2013.1, Build901 2013/11/27)

>  <Rbt.Parameter_File>
/export/apps/rDock/src/rDock_2013.1_src/data/scripts/dock_solv.prm

>  <Rbt.Receptor>
prm/pocket_docking_8.prm

>  <SCORE>
-9.30851

>  <SCORE.INTER>
-7.77492

>  <SCORE.INTER.CONST>
1

>  <SCORE.INTER.POLAR>
0

>  <SCORE.INTER.ROT>
5

>  <SCORE.INTER.SOLV>
17.1622

>  <SCORE.INTER.VDW>
-17.8373

>  <SCORE.INTER.norm>
-0.777492

>  <SCORE.INTRA>
-1.53359

>  <SCORE.INTRA.DIHEDRAL>
-1.90528

>  <SCORE.INTRA.DIHEDRAL.0>
3.67053

>  <SCORE.INTRA.POLAR>
0

>  <SCORE.INTRA.POLAR.0>
0

>  <SCORE.INTRA.REPUL>
0

>  <SCORE.INTRA.REPUL.0>
0

>  <SCORE.INTRA.SOLV>
-1.43863

>  <SCORE.INTRA.SOLV.lig_0>
-32.0553

>  <SCORE.INTRA.VDW>
0.138367

>  <SCORE.INTRA.VDW.0>
-0.571921

>  <SCORE.INTRA.norm>
-0.153359

>  <SCORE.RESTR>
0

>  <SCORE.RESTR.CAVITY>
0

>  <SCORE.RESTR.norm>
0

>  <SCORE.SYSTEM>
0

>  <SCORE.SYSTEM.CONST>
0

>  <SCORE.SYSTEM.DIHEDRAL>
0

>  <SCORE.SYSTEM.SOLV>
0

>  <SCORE.SYSTEM.norm>
0

>  <SCORE.heavy>
10

>  <SCORE.norm>
-0.930851

>  <RMSD>
5.266

$$$$
ligand
 OpenBabel11021811473D
libRbt.so/2013.1/901 2013/11/27
 10  9  0  0  0  0  0  0  0  0999 V2000
   27.9420   14.2461   18.6116 N   0  0  0  0  0  0  0  0  0  0  0  0
   28.0523   14.3564   20.0973 C   0  0  2  0  0  0  0  0  0  0  0  0
   26.8120   14.9969   20.7058 C   0  0  0  0  0  0  0  0  0  0  0  0
   26.6238   14.9999   21.9175 O   0  0  0  0  0  0  0  0  0  0  0  0
   29.3155   15.1230   20.4971 C   0  0  0  0  0  0  0  0  0  0  0  0
   29.5596   15.1595   21.9960 C   0  0  0  0  0  0  0  0  0  0  0  0
   30.9065   15.7877   22.3315 C   0  0  0  0  0  0  0  0  0  0  0  0
   30.9235   17.2586   21.9494 C   0  0  0  0  0  0  0  0  0  0  0  0
   32.2694   17.8999   22.1638 N   0  0  0  0  0  0  0  0  0  0  0  0
   25.9675   15.5599   20.0225 O   0  0  0  0  0  0  0  0  0  0  0  0
  2  1  1  6  0  0  0
  2  3  1  0  0  0  0
  2  5  1  0  0  0  0
  3  4  1  0  0  0  0
  3 10  1  0  0  0  0
  5  6  1  0  0  0  0
  6  7  1  0  0  0  0
  7  8  1  0  0  0  0
  8  9  1  0  0  0  0
M  END
>  <CHROM.1>
169.26998524,-174.54305136,173.27851666,66.00451846,-175.60019459,28.80034153
15.54757560,21.03905273,-2.61866154,0.22095654,1.10426432

>  <Name>
ligand

>  <RI>
0

>  <Rbt.Current_Directory>
/home/itssahil/PROJECTS/Mol_Feturizer/New_Systems/rnas/3DIZ

>  <Rbt.Executable>
rbdock ($Id: //depot/dev/client3/rdock/2013.1/src/exe/rbdock.cxx#4 $)

>  <Rbt.Library>
libRbt.so (2013.1, Build901 2013/11/27)

>  <Rbt.Parameter_File>
/export/apps/rDock/src/rDock_2013.1_src/data/scripts/dock_solv.prm

>  <Rbt.Receptor>
prm/pocket_docking_7.prm

>  <SCORE>
-9.59764

>  <SCORE.INTER>
-8.90897

>  <SCORE.INTER.CONST>
1

>  <SCORE.INTER.POLAR>
0

>  <SCORE.INTER.ROT>
5

>  <SCORE.INTER.SOLV>
14.3036

>  <SCORE.INTER.VDW>
-17.6405

>  <SCORE.INTER.norm>
-0.890897

>  <SCORE.INTRA>
-0.688664

>  <SCORE.INTRA.DIHEDRAL>
-1.69038

>  <SCORE.INTRA.DIHEDRAL.0>
3.67053

>  <SCORE.INTRA.POLAR>
0

>  <SCORE.INTRA.POLAR.0>
0

>  <SCORE.INTRA.REPUL>
0

>  <SCORE.INTRA.REPUL.0>
0

>  <SCORE.INTRA.SOLV>
-1.43892

>  <SCORE.INTRA.SOLV.lig_0>
-32.0553

>  <SCORE.INTRA.VDW>
0.875987

>  <SCORE.INTRA.VDW.0>
-0.571921

>  <SCORE.INTRA.norm>
-0.0688664

>  <SCORE.RESTR>
0

>  <SCORE.RESTR.CAVITY>
0

>  <SCORE.RESTR.norm>
0

>  <SCORE.SYSTEM>
0

>  <SCORE.SYSTEM.CONST>
0

>  <SCORE.SYSTEM.DIHEDRAL>
0

>  <SCORE.SYSTEM.SOLV>
0

>  <SCORE.SYSTEM.norm>
0

>  <SCORE.heavy>
10

>  <SCORE.norm>
-0.959764

>  <RMSD>
5.267

$$$$
ligand
 OpenBabel11021811473D
libRbt.so/2013.1/901 2013/11/27
 10  9  0  0  0  0  0  0  0  0999 V2000
   27.9597   14.1853   18.5740 N   0  0  0  0  0  0  0  0  0  0  0  0
   28.0223   14.3280   20.0597 C   0  0  2  0  0  0  0  0  0  0  0  0
   26.7821   15.0200   20.6095 C   0  0  0  0  0  0  0  0  0  0  0  0
   26.4794   14.9410   21.7951 O   0  0  0  0  0  0  0  0  0  0  0  0
   29.2940   15.0657   20.4858 C   0  0  0  0  0  0  0  0  0  0  0  0
   29.4865   15.1328   21.9911 C   0  0  0  0  0  0  0  0  0  0  0  0
   30.8266   15.7571   22.3597 C   0  0  0  0  0  0  0  0  0  0  0  0
   30.8764   17.2145   21.9312 C   0  0  0  0  0  0  0  0  0  0  0  0
   32.2150   17.8529   22.1946 N   0  0  0  0  0  0  0  0  0  0  0  0
   26.0528   15.7057   19.9060 O   0  0  0  0  0  0  0  0  0  0  0  0
  2  1  1  6  0  0  0
  2  3  1  0  0  0  0
  2  5  1  0  0  0  0
  3  4  1  0  0  0  0
  3 10  1  0  0  0  0
  5  6  1  0  0  0  0
  6  7  1  0  0  0  0
  7  8  1  0  0  0  0
  8  9  1  0  0  0  0
M  END
>  <CHROM.1>
161.65237255,-174.62765189,174.57151823,65.28964259,-176.33067003,28.76264821
15.53031611,20.99900892,-2.59800115,0.18992481,1.07646749

>  <Name>
ligand

>  <RI>
0

>  <Rbt.Current_Directory>
/home/itssahil/PROJECTS/Mol_Feturizer/New_Systems/rnas/3DIZ

>  <Rbt.Executable>
rbdock ($Id: //depot/dev/client3/rdock/2013.1/src/exe/rbdock.cxx#4 $)

>  <Rbt.Library>
libRbt.so (2013.1, Build901 2013/11/27)

>  <Rbt.Parameter_File>
/export/apps/rDock/src/rDock_2013.1_src/data/scripts/dock_solv.prm

>  <Rbt.Receptor>
prm/pocket_docking_6.prm

>  <SCORE>
-9.65686

>  <SCORE.INTER>
-8.7714

>  <SCORE.INTER.CONST>
1

>  <SCORE.INTER.POLAR>
0

>  <SCORE.INTER.ROT>
5

>  <SCORE.INTER.SOLV>
14.4126

>  <SCORE.INTER.VDW>
-17.5851

>  <SCORE.INTER.norm>
-0.87714

>  <SCORE.INTRA>
-0.885458

>  <SCORE.INTRA.DIHEDRAL>
-1.83028

>  <SCORE.INTRA.DIHEDRAL.0>
3.67053

>  <SCORE.INTRA.POLAR>
0

>  <SCORE.INTRA.POLAR.0>
0

>  <SCORE.INTRA.REPUL>
0

>  <SCORE.INTRA.REPUL.0>
0

>  <SCORE.INTRA.SOLV>
-1.44214

>  <SCORE.INTRA.SOLV.lig_0>
-32.0553

>  <SCORE.INTRA.VDW>
0.750753

>  <SCORE.INTRA.VDW.0>
-0.571921

>  <SCORE.INTRA.norm>
-0.0885458

>  <SCORE.RESTR>
0

>  <SCORE.RESTR.CAVITY>
0

>  <SCORE.RESTR.norm>
0

>  <SCORE.SYSTEM>
0

>  <SCORE.SYSTEM.CONST>
0

>  <SCORE.SYSTEM.DIHEDRAL>
0

>  <SCORE.SYSTEM.SOLV>
0

>  <SCORE.SYSTEM.norm>
0

>  <SCORE.heavy>
10

>  <SCORE.norm>
-0.965686

>  <RMSD>
5.269

$$$$
ligand
 OpenBabel11021811473D
libRbt.so/2013.1/901 2013/11/27
 10  9  0  0  0  0  0  0  0  0999 V2000
   27.6296   14.2149   18.7481 N   0  0  0  0  0  0  0  0  0  0  0  0
   28.0173   14.6452   20.1251 C   0  0  2  0  0  0  0  0  0  0  0  0
   26.7960   14.9477   20.9829 C   0  0  0  0  0  0  0  0  0  0  0  0
   25.6848   15.0900   20.4845 O   0  0  0  0  0  0  0  0  0  0  0  0
   28.9630   15.8479   20.0769 C   0  0  0  0  0  0  0  0  0  0  0  0
   29.3941   16.3418   21.4473 C   0  0  0  0  0  0  0  0  0  0  0  0
   30.3341   17.5364   21.3446 C   0  0  0  0  0  0  0  0  0  0  0  0
   31.7393   17.0848   20.9819 C   0  0  0  0  0  0  0  0  0  0  0  0
   32.4395   16.3910   22.1208 N   0  0  0  0  0  0  0  0  0  0  0  0
   26.8608   15.0325   22.2018 O   0  0  0  0  0  0  0  0  0  0  0  0
  2  1  1  6  0  0  0
  2  3  1  0  0  0  0
  2  5  1  0  0  0  0
  3  4  1  0  0  0  0
  3 10  1  0  0  0  0
  5  6  1  0  0  0  0
  6  7  1  0  0  0  0
  7  8  1  0  0  0  0
  8  9  1  0  0  0  0
M  END
>  <CHROM.1>
-14.50176843,179.79253614,179.92241560,-78.04640449,-72.33920327,28.74915084
15.71366474,20.86856037,-2.81852058,0.30709442,1.19445882

>  <Name>
ligand

>  <RI>
0

>  <Rbt.Current_Directory>
/home/itssahil/PROJECTS/Mol_Feturizer/New_Systems/rnas/3DIZ

>  <Rbt.Executable>
rbdock ($Id: //depot/dev/client3/rdock/2013.1/src/exe/rbdock.cxx#4 $)

>  <Rbt.Library>
libRbt.so (2013.1, Build901 2013/11/27)

>  <Rbt.Parameter_File>
/export/apps/rDock/src/rDock_2013.1_src/data/scripts/dock_solv.prm

>  <Rbt.Receptor>
prm/pocket_docking_3.prm

>  <SCORE>
-7.04762

>  <SCORE.INTER>
-7.20966

>  <SCORE.INTER.CONST>
1

>  <SCORE.INTER.POLAR>
0

>  <SCORE.INTER.ROT>
5

>  <SCORE.INTER.SOLV>
15.3852

>  <SCORE.INTER.VDW>
-16.8682

>  <SCORE.INTER.norm>
-0.720966

>  <SCORE.INTRA>
0.162043

>  <SCORE.INTRA.DIHEDRAL>
-0.29815

>  <SCORE.INTRA.DIHEDRAL.0>
3.67053

>  <SCORE.INTRA.POLAR>
0

>  <SCORE.INTRA.POLAR.0>
0

>  <SCORE.INTRA.REPUL>
0

>  <SCORE.INTRA.REPUL.0>
0

>  <SCORE.INTRA.SOLV>
-0.565551

>  <SCORE.INTRA.SOLV.lig_0>
-32.0553

>  <SCORE.INTRA.VDW>
0.593893

>  <SCORE.INTRA.VDW.0>
-0.571921

>  <SCORE.INTRA.norm>
0.0162043

>  <SCORE.RESTR>
0

>  <SCORE.RESTR.CAVITY>
0

>  <SCORE.RESTR.norm>
0

>  <SCORE.SYSTEM>
0

>  <SCORE.SYSTEM.CONST>
0

>  <SCORE.SYSTEM.DIHEDRAL>
0

>  <SCORE.SYSTEM.SOLV>
0

>  <SCORE.SYSTEM.norm>
0

>  <SCORE.heavy>
10

>  <SCORE.norm>
-0.704762

>  <RMSD>
5.273

$$$$
ligand
 OpenBabel11021811473D
libRbt.so/2013.1/901 2013/11/27
 10  9  0  0  0  0  0  0  0  0999 V2000
   27.1355   15.2905   21.0782 N   0  0  0  0  0  0  0  0  0  0  0  0
   27.6605   15.8782   19.8091 C   0  0  2  0  0  0  0  0  0  0  0  0
   27.5784   14.8870   18.6559 C   0  0  0  0  0  0  0  0  0  0  0  0
   26.9768   13.8245   18.7686 O   0  0  0  0  0  0  0  0  0  0  0  0
   29.0928   16.3861   19.9924 C   0  0  0  0  0  0  0  0  0  0  0  0
   30.0917   15.2912   20.3253 C   0  0  0  0  0  0  0  0  0  0  0  0
   31.5023   15.8453   20.4824 C   0  0  0  0  0  0  0  0  0  0  0  0
   31.6867   16.4629   21.8589 C   0  0  0  0  0  0  0  0  0  0  0  0
   30.8306   17.6846   22.0677 N   0  0  0  0  0  0  0  0  0  0  0  0
   28.0788   15.1160   17.5631 O   0  0  0  0  0  0  0  0  0  0  0  0
  2  1  1  1  0  0  0
  2  3  1  0  0  0  0
  2  5  1  0  0  0  0
  3  4  1  0  0  0  0
  3 10  1  0  0  0  0
  5  6  1  0  0  0  0
  6  7  1  0  0  0  0
  7  8  1  0  0  0  0
  8  9  1  0  0  0  0
M  END
>  <CHROM.1>
9.28177060,63.41449398,179.38007262,80.38646497,-65.82073795,29.05173675
15.64257077,20.02861803,2.43003646,-0.16597083,-2.00142950

>  <Name>
ligand

>  <RI>
0

>  <Rbt.Current_Directory>
/home/itssahil/PROJECTS/Mol_Feturizer/New_Systems/rnas/3DIZ

>  <Rbt.Executable>
rbdock ($Id: //depot/dev/client3/rdock/2013.1/src/exe/rbdock.cxx#4 $)

>  <Rbt.Library>
libRbt.so (2013.1, Build901 2013/11/27)

>  <Rbt.Parameter_File>
/export/apps/rDock/src/rDock_2013.1_src/data/scripts/dock_solv.prm

>  <Rbt.Receptor>
prm/pocket_docking_4.prm

>  <SCORE>
-6.50431

>  <SCORE.INTER>
-7.55197

>  <SCORE.INTER.CONST>
1

>  <SCORE.INTER.POLAR>
0

>  <SCORE.INTER.ROT>
5

>  <SCORE.INTER.SOLV>
14.571

>  <SCORE.INTER.VDW>
-16.825

>  <SCORE.INTER.norm>
-0.755197

>  <SCORE.INTRA>
1.04633

>  <SCORE.INTRA.DIHEDRAL>
-0.441709

>  <SCORE.INTRA.DIHEDRAL.0>
3.67053

>  <SCORE.INTRA.POLAR>
0

>  <SCORE.INTRA.POLAR.0>
0

>  <SCORE.INTRA.REPUL>
0

>  <SCORE.INTRA.REPUL.0>
0

>  <SCORE.INTRA.SOLV>
1.40277

>  <SCORE.INTRA.SOLV.lig_0>
-32.0553

>  <SCORE.INTRA.VDW>
0.565798

>  <SCORE.INTRA.VDW.0>
-0.571921

>  <SCORE.INTRA.norm>
0.104633

>  <SCORE.RESTR>
0.00133672

>  <SCORE.RESTR.CAVITY>
0.00133672

>  <SCORE.RESTR.norm>
0.000133672

>  <SCORE.SYSTEM>
0

>  <SCORE.SYSTEM.CONST>
0

>  <SCORE.SYSTEM.DIHEDRAL>
0

>  <SCORE.SYSTEM.SOLV>
0

>  <SCORE.SYSTEM.norm>
0

>  <SCORE.heavy>
10

>  <SCORE.norm>
-0.650431

>  <RMSD>
5.273

$$$$
ligand
 OpenBabel11021811473D
libRbt.so/2013.1/901 2013/11/27
 10  9  0  0  0  0  0  0  0  0999 V2000
   27.9056   14.2641   18.6282 N   0  0  0  0  0  0  0  0  0  0  0  0
   28.0238   14.3766   20.1131 C   0  0  2  0  0  0  0  0  0  0  0  0
   26.7843   15.0128   20.7279 C   0  0  0  0  0  0  0  0  0  0  0  0
   26.5926   14.9977   21.9390 O   0  0  0  0  0  0  0  0  0  0  0  0
   29.2861   15.1489   20.5049 C   0  0  0  0  0  0  0  0  0  0  0  0
   29.5353   15.1932   22.0027 C   0  0  0  0  0  0  0  0  0  0  0  0
   30.8833   15.8234   22.3303 C   0  0  0  0  0  0  0  0  0  0  0  0
   30.9045   17.2879   21.9243 C   0  0  0  0  0  0  0  0  0  0  0  0
   32.2397   17.9403   22.1696 N   0  0  0  0  0  0  0  0  0  0  0  0
   25.9442   15.5899   20.0510 O   0  0  0  0  0  0  0  0  0  0  0  0
  2  1  1  6  0  0  0
  2  3  1  0  0  0  0
  2  5  1  0  0  0  0
  3  4  1  0  0  0  0
  3 10  1  0  0  0  0
  5  6  1  0  0  0  0
  6  7  1  0  0  0  0
  7  8  1  0  0  0  0
  8  9  1  0  0  0  0
M  END
>  <CHROM.1>
168.09462424,-174.78704660,173.12251693,65.28138869,-177.33869406,28.77307684
15.57214110,21.04910914,-2.62337212,0.22932947,1.10762139

>  <Name>
ligand

>  <RI>
0

>  <Rbt.Current_Directory>
/home/itssahil/PROJECTS/Mol_Feturizer/New_Systems/rnas/3DIZ

>  <Rbt.Executable>
rbdock ($Id: //depot/dev/client3/rdock/2013.1/src/exe/rbdock.cxx#4 $)

>  <Rbt.Library>
libRbt.so (2013.1, Build901 2013/11/27)

>  <Rbt.Parameter_File>
/export/apps/rDock/src/rDock_2013.1_src/data/scripts/dock_solv.prm

>  <Rbt.Receptor>
prm/pocket_docking_4.prm

>  <SCORE>
-9.65336

>  <SCORE.INTER>
-8.93546

>  <SCORE.INTER.CONST>
1

>  <SCORE.INTER.POLAR>
0

>  <SCORE.INTER.ROT>
5

>  <SCORE.INTER.SOLV>
14.3122

>  <SCORE.INTER.VDW>
-17.661

>  <SCORE.INTER.norm>
-0.893546

>  <SCORE.INTRA>
-0.717897

>  <SCORE.INTRA.DIHEDRAL>
-1.77413

>  <SCORE.INTRA.DIHEDRAL.0>
3.67053

>  <SCORE.INTRA.POLAR>
0

>  <SCORE.INTRA.POLAR.0>
0

>  <SCORE.INTRA.REPUL>
0

>  <SCORE.INTRA.REPUL.0>
0

>  <SCORE.INTRA.SOLV>
-1.44666

>  <SCORE.INTRA.SOLV.lig_0>
-32.0553

>  <SCORE.INTRA.VDW>
0.892496

>  <SCORE.INTRA.VDW.0>
-0.571921

>  <SCORE.INTRA.norm>
-0.0717897

>  <SCORE.RESTR>
0

>  <SCORE.RESTR.CAVITY>
0

>  <SCORE.RESTR.norm>
0

>  <SCORE.SYSTEM>
0

>  <SCORE.SYSTEM.CONST>
0

>  <SCORE.SYSTEM.DIHEDRAL>
0

>  <SCORE.SYSTEM.SOLV>
0

>  <SCORE.SYSTEM.norm>
0

>  <SCORE.heavy>
10

>  <SCORE.norm>
-0.965336

>  <RMSD>
5.275

$$$$
ligand
 OpenBabel11021811473D
libRbt.so/2013.1/901 2013/11/27
 10  9  0  0  0  0  0  0  0  0999 V2000
   28.4838   14.2478   19.1140 N   0  0  0  0  0  0  0  0  0  0  0  0
   27.7263   14.2967   20.4006 C   0  0  2  0  0  0  0  0  0  0  0  0
   26.5323   15.2380   20.3131 C   0  0  0  0  0  0  0  0  0  0  0  0
   25.4515   14.9468   20.8135 O   0  0  0  0  0  0  0  0  0  0  0  0
   28.6444   14.6849   21.5622 C   0  0  0  0  0  0  0  0  0  0  0  0
   29.3844   15.9937   21.3453 C   0  0  0  0  0  0  0  0  0  0  0  0
   30.2361   16.3653   22.5528 C   0  0  0  0  0  0  0  0  0  0  0  0
   31.0667   17.6048   22.2635 C   0  0  0  0  0  0  0  0  0  0  0  0
   32.1155   17.3691   21.2085 N   0  0  0  0  0  0  0  0  0  0  0  0
   26.6037   16.3321   19.7701 O   0  0  0  0  0  0  0  0  0  0  0  0
  2  1  1  6  0  0  0
  2  3  1  0  0  0  0
  2  5  1  0  0  0  0
  3  4  1  0  0  0  0
  3 10  1  0  0  0  0
  5  6  1  0  0  0  0
  6  7  1  0  0  0  0
  7  8  1  0  0  0  0
  8  9  1  0  0  0  0
M  END
>  <CHROM.1>
138.99594429,55.37879428,177.51162011,174.63358722,-66.75352305,28.58768991
15.72276124,20.92930926,-2.62966751,0.02835324,0.72378432

>  <Name>
ligand

>  <RI>
0

>  <Rbt.Current_Directory>
/home/itssahil/PROJECTS/Mol_Feturizer/New_Systems/rnas/3DIZ

>  <Rbt.Executable>
rbdock ($Id: //depot/dev/client3/rdock/2013.1/src/exe/rbdock.cxx#4 $)

>  <Rbt.Library>
libRbt.so (2013.1, Build901 2013/11/27)

>  <Rbt.Parameter_File>
/export/apps/rDock/src/rDock_2013.1_src/data/scripts/dock_solv.prm

>  <Rbt.Receptor>
prm/blind_docking_60.prm

>  <SCORE>
-9.518

>  <SCORE.INTER>
-8.56658

>  <SCORE.INTER.CONST>
1

>  <SCORE.INTER.POLAR>
0

>  <SCORE.INTER.ROT>
5

>  <SCORE.INTER.SOLV>
13.0849

>  <SCORE.INTER.VDW>
-17.006

>  <SCORE.INTER.norm>
-0.856658

>  <SCORE.INTRA>
-0.951419

>  <SCORE.INTRA.DIHEDRAL>
-1.80611

>  <SCORE.INTRA.DIHEDRAL.0>
3.67053

>  <SCORE.INTRA.POLAR>
0

>  <SCORE.INTRA.POLAR.0>
0

>  <SCORE.INTRA.REPUL>
0

>  <SCORE.INTRA.REPUL.0>
0

>  <SCORE.INTRA.SOLV>
0.129829

>  <SCORE.INTRA.SOLV.lig_0>
-32.0553

>  <SCORE.INTRA.VDW>
-0.113278

>  <SCORE.INTRA.VDW.0>
-0.571921

>  <SCORE.INTRA.norm>
-0.0951419

>  <SCORE.RESTR>
0

>  <SCORE.RESTR.CAVITY>
0

>  <SCORE.RESTR.norm>
0

>  <SCORE.SYSTEM>
0

>  <SCORE.SYSTEM.CONST>
0

>  <SCORE.SYSTEM.DIHEDRAL>
0

>  <SCORE.SYSTEM.SOLV>
0

>  <SCORE.SYSTEM.norm>
0

>  <SCORE.heavy>
10

>  <SCORE.norm>
-0.9518

>  <RMSD>
5.276

$$$$
ligand
 OpenBabel11021811473D
libRbt.so/2013.1/901 2013/11/27
 10  9  0  0  0  0  0  0  0  0999 V2000
   28.6850   14.5566   19.3293 N   0  0  0  0  0  0  0  0  0  0  0  0
   28.2039   15.3514   20.4989 C   0  0  2  0  0  0  0  0  0  0  0  0
   26.7042   15.1895   20.7085 C   0  0  0  0  0  0  0  0  0  0  0  0
   26.2499   14.7505   21.7594 O   0  0  0  0  0  0  0  0  0  0  0  0
   28.5785   16.8280   20.3489 C   0  0  0  0  0  0  0  0  0  0  0  0
   30.0732   17.0895   20.4190 C   0  0  0  0  0  0  0  0  0  0  0  0
   30.6250   16.8294   21.8152 C   0  0  0  0  0  0  0  0  0  0  0  0
   32.0540   17.3340   21.9308 C   0  0  0  0  0  0  0  0  0  0  0  0
   32.9735   16.7159   20.9104 N   0  0  0  0  0  0  0  0  0  0  0  0
   25.8884   15.5151   19.8567 O   0  0  0  0  0  0  0  0  0  0  0  0
  2  1  1  6  0  0  0
  2  3  1  0  0  0  0
  2  5  1  0  0  0  0
  3  4  1  0  0  0  0
  3 10  1  0  0  0  0
  5  6  1  0  0  0  0
  6  7  1  0  0  0  0
  7  8  1  0  0  0  0
  8  9  1  0  0  0  0
M  END
>  <CHROM.1>
120.94398990,-67.06619039,-68.31282866,-169.69163035,-57.29501142,28.95956395
16.00794492,20.76185660,-2.90084732,0.26902070,1.21099263

>  <Name>
ligand

>  <RI>
0

>  <Rbt.Current_Directory>
/home/itssahil/PROJECTS/Mol_Feturizer/New_Systems/rnas/3DIZ

>  <Rbt.Executable>
rbdock ($Id: //depot/dev/client3/rdock/2013.1/src/exe/rbdock.cxx#4 $)

>  <Rbt.Library>
libRbt.so (2013.1, Build901 2013/11/27)

>  <Rbt.Parameter_File>
/export/apps/rDock/src/rDock_2013.1_src/data/scripts/dock_solv.prm

>  <Rbt.Receptor>
prm/pocket_docking_5.prm

>  <SCORE>
-8.12612

>  <SCORE.INTER>
-7.83866

>  <SCORE.INTER.CONST>
1

>  <SCORE.INTER.POLAR>
0

>  <SCORE.INTER.ROT>
5

>  <SCORE.INTER.SOLV>
12.7076

>  <SCORE.INTER.VDW>
-16.395

>  <SCORE.INTER.norm>
-0.783866

>  <SCORE.INTRA>
-0.287467

>  <SCORE.INTRA.DIHEDRAL>
-1.20798

>  <SCORE.INTRA.DIHEDRAL.0>
3.67053

>  <SCORE.INTRA.POLAR>
0

>  <SCORE.INTRA.POLAR.0>
0

>  <SCORE.INTRA.REPUL>
0

>  <SCORE.INTRA.REPUL.0>
0

>  <SCORE.INTRA.SOLV>
0.50146

>  <SCORE.INTRA.SOLV.lig_0>
-32.0553

>  <SCORE.INTRA.VDW>
0.0657906

>  <SCORE.INTRA.VDW.0>
-0.571921

>  <SCORE.INTRA.norm>
-0.0287467

>  <SCORE.RESTR>
0

>  <SCORE.RESTR.CAVITY>
0

>  <SCORE.RESTR.norm>
0

>  <SCORE.SYSTEM>
0

>  <SCORE.SYSTEM.CONST>
0

>  <SCORE.SYSTEM.DIHEDRAL>
0

>  <SCORE.SYSTEM.SOLV>
0

>  <SCORE.SYSTEM.norm>
0

>  <SCORE.heavy>
10

>  <SCORE.norm>
-0.812612

>  <RMSD>
5.277

$$$$
ligand
 OpenBabel11021811473D
libRbt.so/2013.1/901 2013/11/27
 10  9  0  0  0  0  0  0  0  0999 V2000
   27.7831   14.3381   18.8205 N   0  0  0  0  0  0  0  0  0  0  0  0
   28.0463   14.4237   20.2884 C   0  0  2  0  0  0  0  0  0  0  0  0
   26.8479   14.9861   21.0412 C   0  0  0  0  0  0  0  0  0  0  0  0
   25.7908   15.2286   20.4692 O   0  0  0  0  0  0  0  0  0  0  0  0
   29.3052   15.2470   20.5719 C   0  0  0  0  0  0  0  0  0  0  0  0
   29.7579   15.1924   22.0209 C   0  0  0  0  0  0  0  0  0  0  0  0
   31.0933   15.8983   22.2201 C   0  0  0  0  0  0  0  0  0  0  0  0
   30.9540   17.3914   21.9723 C   0  0  0  0  0  0  0  0  0  0  0  0
   32.2610   18.1279   22.1070 N   0  0  0  0  0  0  0  0  0  0  0  0
   26.8741   15.1921   22.2470 O   0  0  0  0  0  0  0  0  0  0  0  0
  2  1  1  6  0  0  0
  2  3  1  0  0  0  0
  2  5  1  0  0  0  0
  3  4  1  0  0  0  0
  3 10  1  0  0  0  0
  5  6  1  0  0  0  0
  6  7  1  0  0  0  0
  7  8  1  0  0  0  0
  8  9  1  0  0  0  0
M  END
>  <CHROM.1>
4.83002539,-170.79196099,173.74220464,66.35634444,-177.86096786,28.83483004
15.60863342,21.18939773,-2.66338065,0.27023285,1.08392610

>  <Name>
ligand

>  <RI>
0

>  <Rbt.Current_Directory>
/home/itssahil/PROJECTS/Mol_Feturizer/New_Systems/rnas/3DIZ

>  <Rbt.Executable>
rbdock ($Id: //depot/dev/client3/rdock/2013.1/src/exe/rbdock.cxx#4 $)

>  <Rbt.Library>
libRbt.so (2013.1, Build901 2013/11/27)

>  <Rbt.Parameter_File>
/export/apps/rDock/src/rDock_2013.1_src/data/scripts/dock_solv.prm

>  <Rbt.Receptor>
prm/pocket_docking_7.prm

>  <SCORE>
-9.62867

>  <SCORE.INTER>
-9.16062

>  <SCORE.INTER.CONST>
1

>  <SCORE.INTER.POLAR>
0

>  <SCORE.INTER.ROT>
5

>  <SCORE.INTER.SOLV>
14.4692

>  <SCORE.INTER.VDW>
-17.8635

>  <SCORE.INTER.norm>
-0.916062

>  <SCORE.INTRA>
-0.46805

>  <SCORE.INTRA.DIHEDRAL>
-1.52297

>  <SCORE.INTRA.DIHEDRAL.0>
3.67053

>  <SCORE.INTRA.POLAR>
0

>  <SCORE.INTRA.POLAR.0>
0

>  <SCORE.INTRA.REPUL>
0

>  <SCORE.INTRA.REPUL.0>
0

>  <SCORE.INTRA.SOLV>
-1.44337

>  <SCORE.INTRA.SOLV.lig_0>
-32.0553

>  <SCORE.INTRA.VDW>
1.01512

>  <SCORE.INTRA.VDW.0>
-0.571921

>  <SCORE.INTRA.norm>
-0.046805

>  <SCORE.RESTR>
0

>  <SCORE.RESTR.CAVITY>
0

>  <SCORE.RESTR.norm>
0

>  <SCORE.SYSTEM>
0

>  <SCORE.SYSTEM.CONST>
0

>  <SCORE.SYSTEM.DIHEDRAL>
0

>  <SCORE.SYSTEM.SOLV>
0

>  <SCORE.SYSTEM.norm>
0

>  <SCORE.heavy>
10

>  <SCORE.norm>
-0.962867

>  <RMSD>
5.277

$$$$
ligand
 OpenBabel11021811473D
libRbt.so/2013.1/901 2013/11/27
 10  9  0  0  0  0  0  0  0  0999 V2000
   27.2045   13.9087   18.6718 N   0  0  0  0  0  0  0  0  0  0  0  0
   27.9283   14.3099   19.9154 C   0  0  2  0  0  0  0  0  0  0  0  0
   26.9843   14.9236   20.9407 C   0  0  0  0  0  0  0  0  0  0  0  0
   27.3454   15.1398   22.0924 O   0  0  0  0  0  0  0  0  0  0  0  0
   29.0813   15.2641   19.5941 C   0  0  0  0  0  0  0  0  0  0  0  0
   30.0125   15.5148   20.7678 C   0  0  0  0  0  0  0  0  0  0  0  0
   31.2480   16.3012   20.3478 C   0  0  0  0  0  0  0  0  0  0  0  0
   32.0883   16.6693   21.5596 C   0  0  0  0  0  0  0  0  0  0  0  0
   31.4016   17.6580   22.4650 N   0  0  0  0  0  0  0  0  0  0  0  0
   25.8408   15.2544   20.6577 O   0  0  0  0  0  0  0  0  0  0  0  0
  2  1  1  6  0  0  0
  2  3  1  0  0  0  0
  2  5  1  0  0  0  0
  3  4  1  0  0  0  0
  3 10  1  0  0  0  0
  5  6  1  0  0  0  0
  6  7  1  0  0  0  0
  7  8  1  0  0  0  0
  8  9  1  0  0  0  0
M  END
>  <CHROM.1>
169.41687505,-169.53127660,171.69174801,173.88478527,-67.28703483,28.88309978
15.50260558,20.72229450,-2.72409155,0.26614810,1.07623930

>  <Name>
ligand

>  <RI>
0

>  <Rbt.Current_Directory>
/home/itssahil/PROJECTS/Mol_Feturizer/New_Systems/rnas/3DIZ

>  <Rbt.Executable>
rbdock ($Id: //depot/dev/client3/rdock/2013.1/src/exe/rbdock.cxx#4 $)

>  <Rbt.Library>
libRbt.so (2013.1, Build901 2013/11/27)

>  <Rbt.Parameter_File>
/export/apps/rDock/src/rDock_2013.1_src/data/scripts/dock_solv.prm

>  <Rbt.Receptor>
prm/pocket_docking_8.prm

>  <SCORE>
-8.39051

>  <SCORE.INTER>
-7.43268

>  <SCORE.INTER.CONST>
1

>  <SCORE.INTER.POLAR>
0

>  <SCORE.INTER.ROT>
5

>  <SCORE.INTER.SOLV>
15.29

>  <SCORE.INTER.VDW>
-16.9851

>  <SCORE.INTER.norm>
-0.743268

>  <SCORE.INTRA>
-0.957833

>  <SCORE.INTRA.DIHEDRAL>
-1.16692

>  <SCORE.INTRA.DIHEDRAL.0>
3.67053

>  <SCORE.INTRA.POLAR>
0

>  <SCORE.INTRA.POLAR.0>
0

>  <SCORE.INTRA.REPUL>
0

>  <SCORE.INTRA.REPUL.0>
0

>  <SCORE.INTRA.SOLV>
-0.792606

>  <SCORE.INTRA.SOLV.lig_0>
-32.0553

>  <SCORE.INTRA.VDW>
0.0219317

>  <SCORE.INTRA.VDW.0>
-0.571921

>  <SCORE.INTRA.norm>
-0.0957833

>  <SCORE.RESTR>
0

>  <SCORE.RESTR.CAVITY>
0

>  <SCORE.RESTR.norm>
0

>  <SCORE.SYSTEM>
0

>  <SCORE.SYSTEM.CONST>
0

>  <SCORE.SYSTEM.DIHEDRAL>
0

>  <SCORE.SYSTEM.SOLV>
0

>  <SCORE.SYSTEM.norm>
0

>  <SCORE.heavy>
10

>  <SCORE.norm>
-0.839051

>  <RMSD>
5.277

$$$$
ligand
 OpenBabel11021811473D
libRbt.so/2013.1/901 2013/11/27
 10  9  0  0  0  0  0  0  0  0999 V2000
   28.6685   14.4971   19.0288 N   0  0  0  0  0  0  0  0  0  0  0  0
   28.2693   14.3343   20.4590 C   0  0  2  0  0  0  0  0  0  0  0  0
   27.0266   15.1497   20.7909 C   0  0  0  0  0  0  0  0  0  0  0  0
   26.6120   16.0193   20.0323 O   0  0  0  0  0  0  0  0  0  0  0  0
   29.4258   14.6952   21.3947 C   0  0  0  0  0  0  0  0  0  0  0  0
   29.9192   16.1229   21.2343 C   0  0  0  0  0  0  0  0  0  0  0  0
   31.1466   16.3940   22.0953 C   0  0  0  0  0  0  0  0  0  0  0  0
   31.6283   17.8235   21.9093 C   0  0  0  0  0  0  0  0  0  0  0  0
   32.8924   18.1156   22.6744 N   0  0  0  0  0  0  0  0  0  0  0  0
   26.3726   14.9564   21.8066 O   0  0  0  0  0  0  0  0  0  0  0  0
  2  1  1  6  0  0  0
  2  3  1  0  0  0  0
  2  5  1  0  0  0  0
  3  4  1  0  0  0  0
  3 10  1  0  0  0  0
  5  6  1  0  0  0  0
  6  7  1  0  0  0  0
  7  8  1  0  0  0  0
  8  9  1  0  0  0  0
M  END
>  <CHROM.1>
-13.69456893,59.47047400,-174.92113086,179.52441309,-176.39227008,29.15768405
15.82161966,21.14630543,-2.60113608,0.13204467,0.81285092

>  <Name>
ligand

>  <RI>
0

>  <Rbt.Current_Directory>
/home/itssahil/PROJECTS/Mol_Feturizer/New_Systems/rnas/3DIZ

>  <Rbt.Executable>
rbdock ($Id: //depot/dev/client3/rdock/2013.1/src/exe/rbdock.cxx#4 $)

>  <Rbt.Library>
libRbt.so (2013.1, Build901 2013/11/27)

>  <Rbt.Parameter_File>
/export/apps/rDock/src/rDock_2013.1_src/data/scripts/dock_solv.prm

>  <Rbt.Receptor>
prm/pocket_docking_7.prm

>  <SCORE>
-9.33293

>  <SCORE.INTER>
-7.85301

>  <SCORE.INTER.CONST>
1

>  <SCORE.INTER.POLAR>
0

>  <SCORE.INTER.ROT>
5

>  <SCORE.INTER.SOLV>
14.3073

>  <SCORE.INTER.VDW>
-16.9378

>  <SCORE.INTER.norm>
-0.785301

>  <SCORE.INTRA>
-1.47992

>  <SCORE.INTRA.DIHEDRAL>
-1.96435

>  <SCORE.INTRA.DIHEDRAL.0>
3.67053

>  <SCORE.INTRA.POLAR>
0

>  <SCORE.INTRA.POLAR.0>
0

>  <SCORE.INTRA.REPUL>
0

>  <SCORE.INTRA.REPUL.0>
0

>  <SCORE.INTRA.SOLV>
-0.775234

>  <SCORE.INTRA.SOLV.lig_0>
-32.0553

>  <SCORE.INTRA.VDW>
-0.110133

>  <SCORE.INTRA.VDW.0>
-0.571921

>  <SCORE.INTRA.norm>
-0.147992

>  <SCORE.RESTR>
0

>  <SCORE.RESTR.CAVITY>
0

>  <SCORE.RESTR.norm>
0

>  <SCORE.SYSTEM>
0

>  <SCORE.SYSTEM.CONST>
0

>  <SCORE.SYSTEM.DIHEDRAL>
0

>  <SCORE.SYSTEM.SOLV>
0

>  <SCORE.SYSTEM.norm>
0

>  <SCORE.heavy>
10

>  <SCORE.norm>
-0.933293

>  <RMSD>
5.279

$$$$
ligand
 OpenBabel11021811473D
libRbt.so/2013.1/901 2013/11/27
 10  9  0  0  0  0  0  0  0  0999 V2000
   28.5471   14.4060   19.1177 N   0  0  0  0  0  0  0  0  0  0  0  0
   27.8532   14.2746   20.4341 C   0  0  2  0  0  0  0  0  0  0  0  0
   26.5622   15.0815   20.4707 C   0  0  0  0  0  0  0  0  0  0  0  0
   25.6207   14.7483   21.1822 O   0  0  0  0  0  0  0  0  0  0  0  0
   28.7806   14.6747   21.5843 C   0  0  0  0  0  0  0  0  0  0  0  0
   29.4133   16.0449   21.4109 C   0  0  0  0  0  0  0  0  0  0  0  0
   30.3351   16.3901   22.5740 C   0  0  0  0  0  0  0  0  0  0  0  0
   31.1239   17.6549   22.2772 C   0  0  0  0  0  0  0  0  0  0  0  0
   32.1524   17.4585   21.1945 N   0  0  0  0  0  0  0  0  0  0  0  0
   26.4165   16.1075   19.8203 O   0  0  0  0  0  0  0  0  0  0  0  0
  2  1  1  6  0  0  0
  2  3  1  0  0  0  0
  2  5  1  0  0  0  0
  3  4  1  0  0  0  0
  3 10  1  0  0  0  0
  5  6  1  0  0  0  0
  6  7  1  0  0  0  0
  7  8  1  0  0  0  0
  8  9  1  0  0  0  0
M  END
>  <CHROM.1>
151.88903896,52.76683676,-179.49655434,170.94320208,-69.53784082,28.64175468
15.69553944,21.00443811,-2.67150132,0.22048918,1.00008784

>  <Name>
ligand

>  <RI>
0

>  <Rbt.Current_Directory>
/home/itssahil/PROJECTS/Mol_Feturizer/New_Systems/rnas/3DIZ

>  <Rbt.Executable>
rbdock ($Id: //depot/dev/client3/rdock/2013.1/src/exe/rbdock.cxx#4 $)

>  <Rbt.Library>
libRbt.so (2013.1, Build901 2013/11/27)

>  <Rbt.Parameter_File>
/export/apps/rDock/src/rDock_2013.1_src/data/scripts/dock_solv.prm

>  <Rbt.Receptor>
prm/pocket_docking_7.prm

>  <SCORE>
-9.32298

>  <SCORE.INTER>
-8.61523

>  <SCORE.INTER.CONST>
1

>  <SCORE.INTER.POLAR>
0

>  <SCORE.INTER.ROT>
5

>  <SCORE.INTER.SOLV>
13.0087

>  <SCORE.INTER.VDW>
-17.0131

>  <SCORE.INTER.norm>
-0.861523

>  <SCORE.INTRA>
-0.707755

>  <SCORE.INTRA.DIHEDRAL>
-1.33408

>  <SCORE.INTRA.DIHEDRAL.0>
3.67053

>  <SCORE.INTRA.POLAR>
0

>  <SCORE.INTRA.POLAR.0>
0

>  <SCORE.INTRA.REPUL>
0

>  <SCORE.INTRA.REPUL.0>
0

>  <SCORE.INTRA.SOLV>
0.165503

>  <SCORE.INTRA.SOLV.lig_0>
-32.0553

>  <SCORE.INTRA.VDW>
-0.123468

>  <SCORE.INTRA.VDW.0>
-0.571921

>  <SCORE.INTRA.norm>
-0.0707755

>  <SCORE.RESTR>
0

>  <SCORE.RESTR.CAVITY>
0

>  <SCORE.RESTR.norm>
0

>  <SCORE.SYSTEM>
0

>  <SCORE.SYSTEM.CONST>
0

>  <SCORE.SYSTEM.DIHEDRAL>
0

>  <SCORE.SYSTEM.SOLV>
0

>  <SCORE.SYSTEM.norm>
0

>  <SCORE.heavy>
10

>  <SCORE.norm>
-0.932298

>  <RMSD>
5.279

$$$$
ligand
 OpenBabel11021811473D
libRbt.so/2013.1/901 2013/11/27
 10  9  0  0  0  0  0  0  0  0999 V2000
   28.0665   14.6280   18.8328 N   0  0  0  0  0  0  0  0  0  0  0  0
   28.2886   14.8244   20.2969 C   0  0  2  0  0  0  0  0  0  0  0  0
   26.9793   15.0695   21.0350 C   0  0  0  0  0  0  0  0  0  0  0  0
   26.9416   15.1542   22.2576 O   0  0  0  0  0  0  0  0  0  0  0  0
   29.2813   15.9613   20.5525 C   0  0  0  0  0  0  0  0  0  0  0  0
   29.7274   16.0692   22.0005 C   0  0  0  0  0  0  0  0  0  0  0  0
   30.7267   17.2023   22.1983 C   0  0  0  0  0  0  0  0  0  0  0  0
   32.0579   16.8644   21.5474 C   0  0  0  0  0  0  0  0  0  0  0  0
   33.1022   17.9260   21.7736 N   0  0  0  0  0  0  0  0  0  0  0  0
   25.9179   15.2220   20.4457 O   0  0  0  0  0  0  0  0  0  0  0  0
  2  1  1  6  0  0  0
  2  3  1  0  0  0  0
  2  5  1  0  0  0  0
  3  4  1  0  0  0  0
  3 10  1  0  0  0  0
  5  6  1  0  0  0  0
  6  7  1  0  0  0  0
  7  8  1  0  0  0  0
  8  9  1  0  0  0  0
M  END
>  <CHROM.1>
174.48354902,-170.57930479,179.26060868,-69.99712663,-177.18284697,29.06990735
15.89170376,21.10799726,-2.80848074,0.33392764,1.23541853

>  <Name>
ligand

>  <RI>
0

>  <Rbt.Current_Directory>
/home/itssahil/PROJECTS/Mol_Feturizer/New_Systems/rnas/3DIZ

>  <Rbt.Executable>
rbdock ($Id: //depot/dev/client3/rdock/2013.1/src/exe/rbdock.cxx#4 $)

>  <Rbt.Library>
libRbt.so (2013.1, Build901 2013/11/27)

>  <Rbt.Parameter_File>
/export/apps/rDock/src/rDock_2013.1_src/data/scripts/dock_solv.prm

>  <Rbt.Receptor>
prm/pocket_docking_4.prm

>  <SCORE>
-9.54089

>  <SCORE.INTER>
-8.81522

>  <SCORE.INTER.CONST>
1

>  <SCORE.INTER.POLAR>
0

>  <SCORE.INTER.ROT>
5

>  <SCORE.INTER.SOLV>
13.3451

>  <SCORE.INTER.VDW>
-17.2585

>  <SCORE.INTER.norm>
-0.881522

>  <SCORE.INTRA>
-0.725667

>  <SCORE.INTRA.DIHEDRAL>
-1.42614

>  <SCORE.INTRA.DIHEDRAL.0>
3.67053

>  <SCORE.INTRA.POLAR>
0

>  <SCORE.INTRA.POLAR.0>
0

>  <SCORE.INTRA.REPUL>
0

>  <SCORE.INTRA.REPUL.0>
0

>  <SCORE.INTRA.SOLV>
-1.49981

>  <SCORE.INTRA.SOLV.lig_0>
-32.0553

>  <SCORE.INTRA.VDW>
0.737312

>  <SCORE.INTRA.VDW.0>
-0.571921

>  <SCORE.INTRA.norm>
-0.0725667

>  <SCORE.RESTR>
0

>  <SCORE.RESTR.CAVITY>
0

>  <SCORE.RESTR.norm>
0

>  <SCORE.SYSTEM>
0

>  <SCORE.SYSTEM.CONST>
0

>  <SCORE.SYSTEM.DIHEDRAL>
0

>  <SCORE.SYSTEM.SOLV>
0

>  <SCORE.SYSTEM.norm>
0

>  <SCORE.heavy>
10

>  <SCORE.norm>
-0.954089

>  <RMSD>
5.287

$$$$
ligand
 OpenBabel11021811473D
libRbt.so/2013.1/901 2013/11/27
 10  9  0  0  0  0  0  0  0  0999 V2000
   28.4736   14.2718   19.1350 N   0  0  0  0  0  0  0  0  0  0  0  0
   27.7459   14.2746   20.4395 C   0  0  2  0  0  0  0  0  0  0  0  0
   26.5225   15.1805   20.3975 C   0  0  0  0  0  0  0  0  0  0  0  0
   26.5448   16.2570   19.8108 O   0  0  0  0  0  0  0  0  0  0  0  0
   28.6795   14.6698   21.5864 C   0  0  0  0  0  0  0  0  0  0  0  0
   29.3956   15.9909   21.3641 C   0  0  0  0  0  0  0  0  0  0  0  0
   30.2787   16.3587   22.5500 C   0  0  0  0  0  0  0  0  0  0  0  0
   31.0779   17.6173   22.2548 C   0  0  0  0  0  0  0  0  0  0  0  0
   32.1224   17.4068   21.1901 N   0  0  0  0  0  0  0  0  0  0  0  0
   25.4605   14.8657   20.9171 O   0  0  0  0  0  0  0  0  0  0  0  0
  2  1  1  6  0  0  0
  2  3  1  0  0  0  0
  2  5  1  0  0  0  0
  3  4  1  0  0  0  0
  3 10  1  0  0  0  0
  5  6  1  0  0  0  0
  6  7  1  0  0  0  0
  7  8  1  0  0  0  0
  8  9  1  0  0  0  0
M  END
>  <CHROM.1>
-38.97977439,54.22598207,178.28941245,174.96712964,-68.33410426,28.59264895
15.70304101,20.95982463,-2.63696622,0.07745023,0.77438084

>  <Name>
ligand

>  <RI>
0

>  <Rbt.Current_Directory>
/home/itssahil/PROJECTS/Mol_Feturizer/New_Systems/rnas/3DIZ

>  <Rbt.Executable>
rbdock ($Id: //depot/dev/client3/rdock/2013.1/src/exe/rbdock.cxx#4 $)

>  <Rbt.Library>
libRbt.so (2013.1, Build901 2013/11/27)

>  <Rbt.Parameter_File>
/export/apps/rDock/src/rDock_2013.1_src/data/scripts/dock_solv.prm

>  <Rbt.Receptor>
prm/pocket_docking_7.prm

>  <SCORE>
-9.54047

>  <SCORE.INTER>
-8.68416

>  <SCORE.INTER.CONST>
1

>  <SCORE.INTER.POLAR>
0

>  <SCORE.INTER.ROT>
5

>  <SCORE.INTER.SOLV>
13.1635

>  <SCORE.INTER.VDW>
-17.1106

>  <SCORE.INTER.norm>
-0.868416

>  <SCORE.INTRA>
-0.856308

>  <SCORE.INTRA.DIHEDRAL>
-1.59592

>  <SCORE.INTRA.DIHEDRAL.0>
3.67053

>  <SCORE.INTRA.POLAR>
0

>  <SCORE.INTRA.POLAR.0>
0

>  <SCORE.INTRA.REPUL>
0

>  <SCORE.INTRA.REPUL.0>
0

>  <SCORE.INTRA.SOLV>
0.138096

>  <SCORE.INTRA.SOLV.lig_0>
-32.0553

>  <SCORE.INTRA.VDW>
-0.127396

>  <SCORE.INTRA.VDW.0>
-0.571921

>  <SCORE.INTRA.norm>
-0.0856308

>  <SCORE.RESTR>
0

>  <SCORE.RESTR.CAVITY>
0

>  <SCORE.RESTR.norm>
0

>  <SCORE.SYSTEM>
0

>  <SCORE.SYSTEM.CONST>
0

>  <SCORE.SYSTEM.DIHEDRAL>
0

>  <SCORE.SYSTEM.SOLV>
0

>  <SCORE.SYSTEM.norm>
0

>  <SCORE.heavy>
10

>  <SCORE.norm>
-0.954047

>  <RMSD>
5.288

$$$$
ligand
 OpenBabel11021811473D
libRbt.so/2013.1/901 2013/11/27
 10  9  0  0  0  0  0  0  0  0999 V2000
   28.6670   14.7454   19.4569 N   0  0  0  0  0  0  0  0  0  0  0  0
   27.9746   14.6976   20.7797 C   0  0  2  0  0  0  0  0  0  0  0  0
   26.4988   15.0513   20.6535 C   0  0  0  0  0  0  0  0  0  0  0  0
   26.0918   15.7836   19.7582 O   0  0  0  0  0  0  0  0  0  0  0  0
   28.6700   15.6081   21.7949 C   0  0  0  0  0  0  0  0  0  0  0  0
   30.0709   15.1525   22.1657 C   0  0  0  0  0  0  0  0  0  0  0  0
   31.0621   15.4056   21.0366 C   0  0  0  0  0  0  0  0  0  0  0  0
   31.3535   16.8910   20.9004 C   0  0  0  0  0  0  0  0  0  0  0  0
   31.9838   17.4760   22.1370 N   0  0  0  0  0  0  0  0  0  0  0  0
   25.6535   14.6011   21.4150 O   0  0  0  0  0  0  0  0  0  0  0  0
  2  1  1  6  0  0  0
  2  3  1  0  0  0  0
  2  5  1  0  0  0  0
  3  4  1  0  0  0  0
  3 10  1  0  0  0  0
  5  6  1  0  0  0  0
  6  7  1  0  0  0  0
  7  8  1  0  0  0  0
  8  9  1  0  0  0  0
M  END
>  <CHROM.1>
-27.53215934,-66.15904807,73.21800440,71.98890009,61.77001677,28.75907913
15.54432105,21.00476695,-2.96519361,0.29563913,1.59829187

>  <Name>
ligand

>  <RI>
0

>  <Rbt.Current_Directory>
/home/itssahil/PROJECTS/Mol_Feturizer/New_Systems/rnas/3DIZ

>  <Rbt.Executable>
rbdock ($Id: //depot/dev/client3/rdock/2013.1/src/exe/rbdock.cxx#4 $)

>  <Rbt.Library>
libRbt.so (2013.1, Build901 2013/11/27)

>  <Rbt.Parameter_File>
/export/apps/rDock/src/rDock_2013.1_src/data/scripts/dock_solv.prm

>  <Rbt.Receptor>
prm/pocket_docking_4.prm

>  <SCORE>
-8.67011

>  <SCORE.INTER>
-10.1425

>  <SCORE.INTER.CONST>
1

>  <SCORE.INTER.POLAR>
0

>  <SCORE.INTER.ROT>
5

>  <SCORE.INTER.SOLV>
10.6487

>  <SCORE.INTER.VDW>
-17.2446

>  <SCORE.INTER.norm>
-1.01425

>  <SCORE.INTRA>
1.4724

>  <SCORE.INTRA.DIHEDRAL>
-0.645461

>  <SCORE.INTRA.DIHEDRAL.0>
3.67053

>  <SCORE.INTRA.POLAR>
0

>  <SCORE.INTRA.POLAR.0>
0

>  <SCORE.INTRA.REPUL>
0

>  <SCORE.INTRA.REPUL.0>
0

>  <SCORE.INTRA.SOLV>
2.35606

>  <SCORE.INTRA.SOLV.lig_0>
-32.0553

>  <SCORE.INTRA.VDW>
0.617104

>  <SCORE.INTRA.VDW.0>
-0.571921

>  <SCORE.INTRA.norm>
0.14724

>  <SCORE.RESTR>
0

>  <SCORE.RESTR.CAVITY>
0

>  <SCORE.RESTR.norm>
0

>  <SCORE.SYSTEM>
0

>  <SCORE.SYSTEM.CONST>
0

>  <SCORE.SYSTEM.DIHEDRAL>
0

>  <SCORE.SYSTEM.SOLV>
0

>  <SCORE.SYSTEM.norm>
0

>  <SCORE.heavy>
10

>  <SCORE.norm>
-0.867011

>  <RMSD>
5.289

$$$$
ligand
 OpenBabel11021811473D
libRbt.so/2013.1/901 2013/11/27
 10  9  0  0  0  0  0  0  0  0999 V2000
   27.2422   13.8675   18.7552 N   0  0  0  0  0  0  0  0  0  0  0  0
   27.7953   14.7645   19.8139 C   0  0  2  0  0  0  0  0  0  0  0  0
   26.8123   14.9496   20.9621 C   0  0  0  0  0  0  0  0  0  0  0  0
   25.6007   14.9038   20.7793 O   0  0  0  0  0  0  0  0  0  0  0  0
   28.2090   16.1157   19.2254 C   0  0  0  0  0  0  0  0  0  0  0  0
   28.8658   17.0453   20.2315 C   0  0  0  0  0  0  0  0  0  0  0  0
   30.2358   16.5338   20.6591 C   0  0  0  0  0  0  0  0  0  0  0  0
   30.8669   17.4726   21.6742 C   0  0  0  0  0  0  0  0  0  0  0  0
   32.2430   17.0307   22.0984 N   0  0  0  0  0  0  0  0  0  0  0  0
   27.1826   15.1211   22.1156 O   0  0  0  0  0  0  0  0  0  0  0  0
  2  1  1  6  0  0  0
  2  3  1  0  0  0  0
  2  5  1  0  0  0  0
  3  4  1  0  0  0  0
  3 10  1  0  0  0  0
  5  6  1  0  0  0  0
  6  7  1  0  0  0  0
  7  8  1  0  0  0  0
  8  9  1  0  0  0  0
M  END
>  <CHROM.1>
-30.21422354,-176.17750054,68.64637717,-179.48204525,-178.30517458,28.47517381
15.77821000,20.65544386,-2.81347428,0.43902593,1.38053016

>  <Name>
ligand

>  <RI>
0

>  <Rbt.Current_Directory>
/home/itssahil/PROJECTS/Mol_Feturizer/New_Systems/rnas/3DIZ

>  <Rbt.Executable>
rbdock ($Id: //depot/dev/client3/rdock/2013.1/src/exe/rbdock.cxx#4 $)

>  <Rbt.Library>
libRbt.so (2013.1, Build901 2013/11/27)

>  <Rbt.Parameter_File>
/export/apps/rDock/src/rDock_2013.1_src/data/scripts/dock_solv.prm

>  <Rbt.Receptor>
prm/pocket_docking_5.prm

>  <SCORE>
-10.6473

>  <SCORE.INTER>
-8.94629

>  <SCORE.INTER.CONST>
1

>  <SCORE.INTER.POLAR>
0

>  <SCORE.INTER.ROT>
5

>  <SCORE.INTER.SOLV>
15.8349

>  <SCORE.INTER.VDW>
-18.1758

>  <SCORE.INTER.norm>
-0.894629

>  <SCORE.INTRA>
-1.70096

>  <SCORE.INTRA.DIHEDRAL>
-1.738

>  <SCORE.INTRA.DIHEDRAL.0>
3.67053

>  <SCORE.INTRA.POLAR>
0

>  <SCORE.INTRA.POLAR.0>
0

>  <SCORE.INTRA.REPUL>
0

>  <SCORE.INTRA.REPUL.0>
0

>  <SCORE.INTRA.SOLV>
-1.47921

>  <SCORE.INTRA.SOLV.lig_0>
-32.0553

>  <SCORE.INTRA.VDW>
-0.0923498

>  <SCORE.INTRA.VDW.0>
-0.571921

>  <SCORE.INTRA.norm>
-0.170096

>  <SCORE.RESTR>
0

>  <SCORE.RESTR.CAVITY>
0

>  <SCORE.RESTR.norm>
0

>  <SCORE.SYSTEM>
0

>  <SCORE.SYSTEM.CONST>
0

>  <SCORE.SYSTEM.DIHEDRAL>
0

>  <SCORE.SYSTEM.SOLV>
0

>  <SCORE.SYSTEM.norm>
0

>  <SCORE.heavy>
10

>  <SCORE.norm>
-1.06473

>  <RMSD>
5.291

$$$$
ligand
 OpenBabel11021811473D
libRbt.so/2013.1/901 2013/11/27
 10  9  0  0  0  0  0  0  0  0999 V2000
   27.5881   14.5388   18.7602 N   0  0  0  0  0  0  0  0  0  0  0  0
   27.8823   14.3657   20.2144 C   0  0  2  0  0  0  0  0  0  0  0  0
   26.7693   14.9357   21.0836 C   0  0  0  0  0  0  0  0  0  0  0  0
   25.6342   15.0920   20.6467 O   0  0  0  0  0  0  0  0  0  0  0  0
   29.2327   14.9883   20.5777 C   0  0  0  0  0  0  0  0  0  0  0  0
   29.3451   16.4591   20.2149 C   0  0  0  0  0  0  0  0  0  0  0  0
   30.7329   17.0092   20.5195 C   0  0  0  0  0  0  0  0  0  0  0  0
   30.9432   17.1364   22.0193 C   0  0  0  0  0  0  0  0  0  0  0  0
   32.2717   17.7533   22.3702 N   0  0  0  0  0  0  0  0  0  0  0  0
   26.9467   15.2337   22.2570 O   0  0  0  0  0  0  0  0  0  0  0  0
  2  1  1  6  0  0  0
  2  3  1  0  0  0  0
  2  5  1  0  0  0  0
  3  4  1  0  0  0  0
  3 10  1  0  0  0  0
  5  6  1  0  0  0  0
  6  7  1  0  0  0  0
  7  8  1  0  0  0  0
  8  9  1  0  0  0  0
M  END
>  <CHROM.1>
22.00933383,56.32094568,-176.58713642,-71.55988052,-176.59610073,28.70010984
15.75619485,20.88436339,-2.77584972,0.38778219,1.21724158

>  <Name>
ligand

>  <RI>
0

>  <Rbt.Current_Directory>
/home/itssahil/PROJECTS/Mol_Feturizer/New_Systems/rnas/3DIZ

>  <Rbt.Executable>
rbdock ($Id: //depot/dev/client3/rdock/2013.1/src/exe/rbdock.cxx#4 $)

>  <Rbt.Library>
libRbt.so (2013.1, Build901 2013/11/27)

>  <Rbt.Parameter_File>
/export/apps/rDock/src/rDock_2013.1_src/data/scripts/dock_solv.prm

>  <Rbt.Receptor>
prm/pocket_docking_6.prm

>  <SCORE>
-8.44974

>  <SCORE.INTER>
-8.15494

>  <SCORE.INTER.CONST>
1

>  <SCORE.INTER.POLAR>
0

>  <SCORE.INTER.ROT>
5

>  <SCORE.INTER.SOLV>
13.6188

>  <SCORE.INTER.VDW>
-16.9096

>  <SCORE.INTER.norm>
-0.815494

>  <SCORE.INTRA>
-0.294796

>  <SCORE.INTRA.DIHEDRAL>
-1.52476

>  <SCORE.INTRA.DIHEDRAL.0>
3.67053

>  <SCORE.INTRA.POLAR>
0

>  <SCORE.INTRA.POLAR.0>
0

>  <SCORE.INTRA.REPUL>
0

>  <SCORE.INTRA.REPUL.0>
0

>  <SCORE.INTRA.SOLV>
-0.561717

>  <SCORE.INTRA.SOLV.lig_0>
-32.0553

>  <SCORE.INTRA.VDW>
0.748441

>  <SCORE.INTRA.VDW.0>
-0.571921

>  <SCORE.INTRA.norm>
-0.0294796

>  <SCORE.RESTR>
0

>  <SCORE.RESTR.CAVITY>
0

>  <SCORE.RESTR.norm>
0

>  <SCORE.SYSTEM>
0

>  <SCORE.SYSTEM.CONST>
0

>  <SCORE.SYSTEM.DIHEDRAL>
0

>  <SCORE.SYSTEM.SOLV>
0

>  <SCORE.SYSTEM.norm>
0

>  <SCORE.heavy>
10

>  <SCORE.norm>
-0.844974

>  <RMSD>
5.291

$$$$
ligand
 OpenBabel11021811473D
libRbt.so/2013.1/901 2013/11/27
 10  9  0  0  0  0  0  0  0  0999 V2000
   25.5663   14.8419   20.8839 N   0  0  0  0  0  0  0  0  0  0  0  0
   26.8981   15.4654   20.6214 C   0  0  2  0  0  0  0  0  0  0  0  0
   27.4260   15.1002   19.2404 C   0  0  0  0  0  0  0  0  0  0  0  0
   28.0203   15.9184   18.5469 O   0  0  0  0  0  0  0  0  0  0  0  0
   27.9050   15.0847   21.7097 C   0  0  0  0  0  0  0  0  0  0  0  0
   29.1883   15.8963   21.6660 C   0  0  0  0  0  0  0  0  0  0  0  0
   30.1740   15.3358   20.6484 C   0  0  0  0  0  0  0  0  0  0  0  0
   31.3512   16.2795   20.4645 C   0  0  0  0  0  0  0  0  0  0  0  0
   32.1213   16.5043   21.7393 N   0  0  0  0  0  0  0  0  0  0  0  0
   27.3091   13.9748   18.7749 O   0  0  0  0  0  0  0  0  0  0  0  0
  2  1  1  1  0  0  0
  2  3  1  0  0  0  0
  2  5  1  0  0  0  0
  3  4  1  0  0  0  0
  3 10  1  0  0  0  0
  5  6  1  0  0  0  0
  6  7  1  0  0  0  0
  7  8  1  0  0  0  0
  8  9  1  0  0  0  0
M  END
>  <CHROM.1>
141.16284560,-168.36601639,-82.81511169,171.15514340,60.42070020,28.59868225
15.43094885,20.39545708,2.83549077,-0.25413601,-1.67801182

>  <Name>
ligand

>  <RI>
0

>  <Rbt.Current_Directory>
/home/itssahil/PROJECTS/Mol_Feturizer/New_Systems/rnas/3DIZ

>  <Rbt.Executable>
rbdock ($Id: //depot/dev/client3/rdock/2013.1/src/exe/rbdock.cxx#4 $)

>  <Rbt.Library>
libRbt.so (2013.1, Build901 2013/11/27)

>  <Rbt.Parameter_File>
/export/apps/rDock/src/rDock_2013.1_src/data/scripts/dock_solv.prm

>  <Rbt.Receptor>
prm/pocket_docking_3.prm

>  <SCORE>
-7.90106

>  <SCORE.INTER>
-7.61244

>  <SCORE.INTER.CONST>
1

>  <SCORE.INTER.POLAR>
0

>  <SCORE.INTER.ROT>
5

>  <SCORE.INTER.SOLV>
18.403

>  <SCORE.INTER.VDW>
-18.1426

>  <SCORE.INTER.norm>
-0.761244

>  <SCORE.INTRA>
-0.288614

>  <SCORE.INTRA.DIHEDRAL>
0.530517

>  <SCORE.INTRA.DIHEDRAL.0>
3.67053

>  <SCORE.INTRA.POLAR>
0

>  <SCORE.INTRA.POLAR.0>
0

>  <SCORE.INTRA.REPUL>
0

>  <SCORE.INTRA.REPUL.0>
0

>  <SCORE.INTRA.SOLV>
-0.712312

>  <SCORE.INTRA.SOLV.lig_0>
-32.0553

>  <SCORE.INTRA.VDW>
-0.197717

>  <SCORE.INTRA.VDW.0>
-0.571921

>  <SCORE.INTRA.norm>
-0.0288614

>  <SCORE.RESTR>
0

>  <SCORE.RESTR.CAVITY>
0

>  <SCORE.RESTR.norm>
0

>  <SCORE.SYSTEM>
0

>  <SCORE.SYSTEM.CONST>
0

>  <SCORE.SYSTEM.DIHEDRAL>
0

>  <SCORE.SYSTEM.SOLV>
0

>  <SCORE.SYSTEM.norm>
0

>  <SCORE.heavy>
10

>  <SCORE.norm>
-0.790106

>  <RMSD>
5.292

$$$$
ligand
 OpenBabel11021811473D
libRbt.so/2013.1/901 2013/11/27
 10  9  0  0  0  0  0  0  0  0999 V2000
   25.8820   15.5723   19.9848 N   0  0  0  0  0  0  0  0  0  0  0  0
   27.3585   15.3954   20.1270 C   0  0  2  0  0  0  0  0  0  0  0  0
   27.9229   14.4937   19.0373 C   0  0  0  0  0  0  0  0  0  0  0  0
   27.2004   13.7403   18.3939 O   0  0  0  0  0  0  0  0  0  0  0  0
   27.7147   14.8619   21.5168 C   0  0  0  0  0  0  0  0  0  0  0  0
   29.2071   14.8410   21.7995 C   0  0  0  0  0  0  0  0  0  0  0  0
   29.7851   16.2487   21.8754 C   0  0  0  0  0  0  0  0  0  0  0  0
   31.2849   16.2014   22.1171 C   0  0  0  0  0  0  0  0  0  0  0  0
   31.9121   17.5704   22.1512 N   0  0  0  0  0  0  0  0  0  0  0  0
   29.1085   14.5006   18.7351 O   0  0  0  0  0  0  0  0  0  0  0  0
  2  1  1  1  0  0  0
  2  3  1  0  0  0  0
  2  5  1  0  0  0  0
  3  4  1  0  0  0  0
  3 10  1  0  0  0  0
  5  6  1  0  0  0  0
  6  7  1  0  0  0  0
  7  8  1  0  0  0  0
  8  9  1  0  0  0  0
M  END
>  <CHROM.1>
-18.76387000,-171.93366148,66.65952737,-178.29810494,177.95628389,28.74275706
15.31979237,20.54265231,2.40809916,-0.12139792,-2.06525465

>  <Name>
ligand

>  <RI>
0

>  <Rbt.Current_Directory>
/home/itssahil/PROJECTS/Mol_Feturizer/New_Systems/rnas/3DIZ

>  <Rbt.Executable>
rbdock ($Id: //depot/dev/client3/rdock/2013.1/src/exe/rbdock.cxx#4 $)

>  <Rbt.Library>
libRbt.so (2013.1, Build901 2013/11/27)

>  <Rbt.Parameter_File>
/export/apps/rDock/src/rDock_2013.1_src/data/scripts/dock_solv.prm

>  <Rbt.Receptor>
prm/blind_docking_60.prm

>  <SCORE>
-9.30232

>  <SCORE.INTER>
-7.73142

>  <SCORE.INTER.CONST>
1

>  <SCORE.INTER.POLAR>
0

>  <SCORE.INTER.ROT>
5

>  <SCORE.INTER.SOLV>
17.2415

>  <SCORE.INTER.VDW>
-17.8348

>  <SCORE.INTER.norm>
-0.773142

>  <SCORE.INTRA>
-1.5709

>  <SCORE.INTRA.DIHEDRAL>
-1.6674

>  <SCORE.INTRA.DIHEDRAL.0>
3.67053

>  <SCORE.INTRA.POLAR>
0

>  <SCORE.INTRA.POLAR.0>
0

>  <SCORE.INTRA.REPUL>
0

>  <SCORE.INTRA.REPUL.0>
0

>  <SCORE.INTRA.SOLV>
-1.43452

>  <SCORE.INTRA.SOLV.lig_0>
-32.0553

>  <SCORE.INTRA.VDW>
-0.0199355

>  <SCORE.INTRA.VDW.0>
-0.571921

>  <SCORE.INTRA.norm>
-0.15709

>  <SCORE.RESTR>
0

>  <SCORE.RESTR.CAVITY>
0

>  <SCORE.RESTR.norm>
0

>  <SCORE.SYSTEM>
0

>  <SCORE.SYSTEM.CONST>
0

>  <SCORE.SYSTEM.DIHEDRAL>
0

>  <SCORE.SYSTEM.SOLV>
0

>  <SCORE.SYSTEM.norm>
0

>  <SCORE.heavy>
10

>  <SCORE.norm>
-0.930232

>  <RMSD>
5.293

$$$$
ligand
 OpenBabel11021811473D
libRbt.so/2013.1/901 2013/11/27
 10  9  0  0  0  0  0  0  0  0999 V2000
   27.2176   13.8868   18.7298 N   0  0  0  0  0  0  0  0  0  0  0  0
   27.7688   14.7775   19.7949 C   0  0  2  0  0  0  0  0  0  0  0  0
   26.7942   14.9347   20.9545 C   0  0  0  0  0  0  0  0  0  0  0  0
   27.1889   15.1404   22.0970 O   0  0  0  0  0  0  0  0  0  0  0  0
   28.1591   16.1414   19.2201 C   0  0  0  0  0  0  0  0  0  0  0  0
   28.8361   17.0572   20.2254 C   0  0  0  0  0  0  0  0  0  0  0  0
   30.2189   16.5460   20.6100 C   0  0  0  0  0  0  0  0  0  0  0  0
   30.8511   17.4448   21.6601 C   0  0  0  0  0  0  0  0  0  0  0  0
   32.2411   17.0065   22.0403 N   0  0  0  0  0  0  0  0  0  0  0  0
   25.5816   14.8934   20.7966 O   0  0  0  0  0  0  0  0  0  0  0  0
  2  1  1  6  0  0  0
  2  3  1  0  0  0  0
  2  5  1  0  0  0  0
  3  4  1  0  0  0  0
  3 10  1  0  0  0  0
  5  6  1  0  0  0  0
  6  7  1  0  0  0  0
  7  8  1  0  0  0  0
  8  9  1  0  0  0  0
M  END
>  <CHROM.1>
150.58211937,-175.11617253,68.56679846,-177.55753194,-178.06927738,28.45593442
15.78084273,20.63721859,-2.82328423,0.43767642,1.38833864

>  <Name>
ligand

>  <RI>
0

>  <Rbt.Current_Directory>
/home/itssahil/PROJECTS/Mol_Feturizer/New_Systems/rnas/3DIZ

>  <Rbt.Executable>
rbdock ($Id: //depot/dev/client3/rdock/2013.1/src/exe/rbdock.cxx#4 $)

>  <Rbt.Library>
libRbt.so (2013.1, Build901 2013/11/27)

>  <Rbt.Parameter_File>
/export/apps/rDock/src/rDock_2013.1_src/data/scripts/dock_solv.prm

>  <Rbt.Receptor>
prm/pocket_docking_6.prm

>  <SCORE>
-10.7524

>  <SCORE.INTER>
-9.00295

>  <SCORE.INTER.CONST>
1

>  <SCORE.INTER.POLAR>
0

>  <SCORE.INTER.ROT>
5

>  <SCORE.INTER.SOLV>
15.8502

>  <SCORE.INTER.VDW>
-18.2187

>  <SCORE.INTER.norm>
-0.900295

>  <SCORE.INTRA>
-1.74944

>  <SCORE.INTRA.DIHEDRAL>
-1.80545

>  <SCORE.INTRA.DIHEDRAL.0>
3.67053

>  <SCORE.INTRA.POLAR>
0

>  <SCORE.INTRA.POLAR.0>
0

>  <SCORE.INTRA.REPUL>
0

>  <SCORE.INTRA.REPUL.0>
0

>  <SCORE.INTRA.SOLV>
-1.48483

>  <SCORE.INTRA.SOLV.lig_0>
-32.0553

>  <SCORE.INTRA.VDW>
-0.104298

>  <SCORE.INTRA.VDW.0>
-0.571921

>  <SCORE.INTRA.norm>
-0.174944

>  <SCORE.RESTR>
0

>  <SCORE.RESTR.CAVITY>
0

>  <SCORE.RESTR.norm>
0

>  <SCORE.SYSTEM>
0

>  <SCORE.SYSTEM.CONST>
0

>  <SCORE.SYSTEM.DIHEDRAL>
0

>  <SCORE.SYSTEM.SOLV>
0

>  <SCORE.SYSTEM.norm>
0

>  <SCORE.heavy>
10

>  <SCORE.norm>
-1.07524

>  <RMSD>
5.293

$$$$
ligand
 OpenBabel11021811473D
libRbt.so/2013.1/901 2013/11/27
 10  9  0  0  0  0  0  0  0  0999 V2000
   28.0160   14.6821   18.8230 N   0  0  0  0  0  0  0  0  0  0  0  0
   28.2595   14.8468   20.2876 C   0  0  2  0  0  0  0  0  0  0  0  0
   26.9606   15.0710   21.0504 C   0  0  0  0  0  0  0  0  0  0  0  0
   26.9451   15.1581   22.2734 O   0  0  0  0  0  0  0  0  0  0  0  0
   29.2522   15.9812   20.5535 C   0  0  0  0  0  0  0  0  0  0  0  0
   29.7159   16.0617   21.9978 C   0  0  0  0  0  0  0  0  0  0  0  0
   30.7104   17.1969   22.2069 C   0  0  0  0  0  0  0  0  0  0  0  0
   32.0478   16.8645   21.5657 C   0  0  0  0  0  0  0  0  0  0  0  0
   33.0821   17.9366   21.7884 N   0  0  0  0  0  0  0  0  0  0  0  0
   25.8855   15.2034   20.4816 O   0  0  0  0  0  0  0  0  0  0  0  0
  2  1  1  6  0  0  0
  2  3  1  0  0  0  0
  2  5  1  0  0  0  0
  3  4  1  0  0  0  0
  3 10  1  0  0  0  0
  5  6  1  0  0  0  0
  6  7  1  0  0  0  0
  7  8  1  0  0  0  0
  8  9  1  0  0  0  0
M  END
>  <CHROM.1>
176.12503627,-170.78814968,179.48453993,-71.58112422,-177.92444086,29.04867548
15.89936620,21.11730986,-2.81533070,0.33920412,1.25607305

>  <Name>
ligand

>  <RI>
0

>  <Rbt.Current_Directory>
/home/itssahil/PROJECTS/Mol_Feturizer/New_Systems/rnas/3DIZ

>  <Rbt.Executable>
rbdock ($Id: //depot/dev/client3/rdock/2013.1/src/exe/rbdock.cxx#4 $)

>  <Rbt.Library>
libRbt.so (2013.1, Build901 2013/11/27)

>  <Rbt.Parameter_File>
/export/apps/rDock/src/rDock_2013.1_src/data/scripts/dock_solv.prm

>  <Rbt.Receptor>
prm/pocket_docking_4.prm

>  <SCORE>
-9.54129

>  <SCORE.INTER>
-8.85671

>  <SCORE.INTER.CONST>
1

>  <SCORE.INTER.POLAR>
0

>  <SCORE.INTER.ROT>
5

>  <SCORE.INTER.SOLV>
13.2903

>  <SCORE.INTER.VDW>
-17.2679

>  <SCORE.INTER.norm>
-0.885671

>  <SCORE.INTRA>
-0.684583

>  <SCORE.INTRA.DIHEDRAL>
-1.31451

>  <SCORE.INTRA.DIHEDRAL.0>
3.67053

>  <SCORE.INTRA.POLAR>
0

>  <SCORE.INTRA.POLAR.0>
0

>  <SCORE.INTRA.REPUL>
0

>  <SCORE.INTRA.REPUL.0>
0

>  <SCORE.INTRA.SOLV>
-1.50643

>  <SCORE.INTRA.SOLV.lig_0>
-32.0553

>  <SCORE.INTRA.VDW>
0.725884

>  <SCORE.INTRA.VDW.0>
-0.571921

>  <SCORE.INTRA.norm>
-0.0684583

>  <SCORE.RESTR>
0

>  <SCORE.RESTR.CAVITY>
0

>  <SCORE.RESTR.norm>
0

>  <SCORE.SYSTEM>
0

>  <SCORE.SYSTEM.CONST>
0

>  <SCORE.SYSTEM.DIHEDRAL>
0

>  <SCORE.SYSTEM.SOLV>
0

>  <SCORE.SYSTEM.norm>
0

>  <SCORE.heavy>
10

>  <SCORE.norm>
-0.954129

>  <RMSD>
5.295

$$$$
ligand
 OpenBabel11021811473D
libRbt.so/2013.1/901 2013/11/27
 10  9  0  0  0  0  0  0  0  0999 V2000
   27.2195   13.9192   18.7228 N   0  0  0  0  0  0  0  0  0  0  0  0
   27.7715   14.7958   19.7991 C   0  0  2  0  0  0  0  0  0  0  0  0
   26.7988   14.9361   20.9623 C   0  0  0  0  0  0  0  0  0  0  0  0
   25.5866   14.8603   20.7939 O   0  0  0  0  0  0  0  0  0  0  0  0
   28.1595   16.1679   19.2425 C   0  0  0  0  0  0  0  0  0  0  0  0
   28.8327   17.0724   20.2605 C   0  0  0  0  0  0  0  0  0  0  0  0
   30.2024   16.5420   20.6655 C   0  0  0  0  0  0  0  0  0  0  0  0
   30.8505   17.4562   21.6923 C   0  0  0  0  0  0  0  0  0  0  0  0
   32.2358   17.0080   22.0781 N   0  0  0  0  0  0  0  0  0  0  0  0
   27.1792   15.0995   22.1137 O   0  0  0  0  0  0  0  0  0  0  0  0
  2  1  1  6  0  0  0
  2  3  1  0  0  0  0
  2  5  1  0  0  0  0
  3  4  1  0  0  0  0
  3 10  1  0  0  0  0
  5  6  1  0  0  0  0
  6  7  1  0  0  0  0
  7  8  1  0  0  0  0
  8  9  1  0  0  0  0
M  END
>  <CHROM.1>
-29.24849380,-175.32808501,67.22161334,-179.52065779,-177.35428392,28.45369921
15.78251564,20.65733810,-2.82728388,0.44650465,1.41318253

>  <Name>
ligand

>  <RI>
0

>  <Rbt.Current_Directory>
/home/itssahil/PROJECTS/Mol_Feturizer/New_Systems/rnas/3DIZ

>  <Rbt.Executable>
rbdock ($Id: //depot/dev/client3/rdock/2013.1/src/exe/rbdock.cxx#4 $)

>  <Rbt.Library>
libRbt.so (2013.1, Build901 2013/11/27)

>  <Rbt.Parameter_File>
/export/apps/rDock/src/rDock_2013.1_src/data/scripts/dock_solv.prm

>  <Rbt.Receptor>
prm/blind_docking_60.prm

>  <SCORE>
-10.6466

>  <SCORE.INTER>
-8.94142

>  <SCORE.INTER.CONST>
1

>  <SCORE.INTER.POLAR>
0

>  <SCORE.INTER.ROT>
5

>  <SCORE.INTER.SOLV>
15.8661

>  <SCORE.INTER.VDW>
-18.183

>  <SCORE.INTER.norm>
-0.894142

>  <SCORE.INTRA>
-1.70516

>  <SCORE.INTRA.DIHEDRAL>
-1.78814

>  <SCORE.INTRA.DIHEDRAL.0>
3.67053

>  <SCORE.INTRA.POLAR>
0

>  <SCORE.INTRA.POLAR.0>
0

>  <SCORE.INTRA.REPUL>
0

>  <SCORE.INTRA.REPUL.0>
0

>  <SCORE.INTRA.SOLV>
-1.4652

>  <SCORE.INTRA.SOLV.lig_0>
-32.0553

>  <SCORE.INTRA.VDW>
-0.0784898

>  <SCORE.INTRA.VDW.0>
-0.571921

>  <SCORE.INTRA.norm>
-0.170516

>  <SCORE.RESTR>
0

>  <SCORE.RESTR.CAVITY>
0

>  <SCORE.RESTR.norm>
0

>  <SCORE.SYSTEM>
0

>  <SCORE.SYSTEM.CONST>
0

>  <SCORE.SYSTEM.DIHEDRAL>
0

>  <SCORE.SYSTEM.SOLV>
0

>  <SCORE.SYSTEM.norm>
0

>  <SCORE.heavy>
10

>  <SCORE.norm>
-1.06466

>  <RMSD>
5.296

$$$$
ligand
 OpenBabel11021811473D
libRbt.so/2013.1/901 2013/11/27
 10  9  0  0  0  0  0  0  0  0999 V2000
   25.5960   14.8090   20.8755 N   0  0  0  0  0  0  0  0  0  0  0  0
   26.9239   15.4365   20.6026 C   0  0  2  0  0  0  0  0  0  0  0  0
   27.4559   15.0487   19.2294 C   0  0  0  0  0  0  0  0  0  0  0  0
   27.3390   13.9068   18.7982 O   0  0  0  0  0  0  0  0  0  0  0  0
   27.9320   15.0834   21.6990 C   0  0  0  0  0  0  0  0  0  0  0  0
   29.1999   15.9191   21.6557 C   0  0  0  0  0  0  0  0  0  0  0  0
   30.1713   15.4131   20.5966 C   0  0  0  0  0  0  0  0  0  0  0  0
   31.3455   16.3662   20.4454 C   0  0  0  0  0  0  0  0  0  0  0  0
   32.1425   16.5134   21.7150 N   0  0  0  0  0  0  0  0  0  0  0  0
   27.9934   15.8587   18.4863 O   0  0  0  0  0  0  0  0  0  0  0  0
  2  1  1  1  0  0  0
  2  3  1  0  0  0  0
  2  5  1  0  0  0  0
  3  4  1  0  0  0  0
  3 10  1  0  0  0  0
  5  6  1  0  0  0  0
  6  7  1  0  0  0  0
  7  8  1  0  0  0  0
  8  9  1  0  0  0  0
M  END
>  <CHROM.1>
-40.49088146,-167.37840476,-79.84505356,172.58811432,61.05475643,28.61201949
15.42547050,20.37618451,2.83135672,-0.27112761,-1.68711884

>  <Name>
ligand

>  <RI>
0

>  <Rbt.Current_Directory>
/home/itssahil/PROJECTS/Mol_Feturizer/New_Systems/rnas/3DIZ

>  <Rbt.Executable>
rbdock ($Id: //depot/dev/client3/rdock/2013.1/src/exe/rbdock.cxx#4 $)

>  <Rbt.Library>
libRbt.so (2013.1, Build901 2013/11/27)

>  <Rbt.Parameter_File>
/export/apps/rDock/src/rDock_2013.1_src/data/scripts/dock_solv.prm

>  <Rbt.Receptor>
prm/pocket_docking_3.prm

>  <SCORE>
-7.87232

>  <SCORE.INTER>
-7.49986

>  <SCORE.INTER.CONST>
1

>  <SCORE.INTER.POLAR>
0

>  <SCORE.INTER.ROT>
5

>  <SCORE.INTER.SOLV>
18.2864

>  <SCORE.INTER.VDW>
-18.0287

>  <SCORE.INTER.norm>
-0.749986

>  <SCORE.INTRA>
-0.372458

>  <SCORE.INTRA.DIHEDRAL>
0.200885

>  <SCORE.INTRA.DIHEDRAL.0>
3.67053

>  <SCORE.INTRA.POLAR>
0

>  <SCORE.INTRA.POLAR.0>
0

>  <SCORE.INTRA.REPUL>
0

>  <SCORE.INTRA.REPUL.0>
0

>  <SCORE.INTRA.SOLV>
-0.686594

>  <SCORE.INTRA.SOLV.lig_0>
-32.0553

>  <SCORE.INTRA.VDW>
-0.129604

>  <SCORE.INTRA.VDW.0>
-0.571921

>  <SCORE.INTRA.norm>
-0.0372458

>  <SCORE.RESTR>
0

>  <SCORE.RESTR.CAVITY>
0

>  <SCORE.RESTR.norm>
0

>  <SCORE.SYSTEM>
0

>  <SCORE.SYSTEM.CONST>
0

>  <SCORE.SYSTEM.DIHEDRAL>
0

>  <SCORE.SYSTEM.SOLV>
0

>  <SCORE.SYSTEM.norm>
0

>  <SCORE.heavy>
10

>  <SCORE.norm>
-0.787232

>  <RMSD>
5.297

$$$$
ligand
 OpenBabel11021811473D
libRbt.so/2013.1/901 2013/11/27
 10  9  0  0  0  0  0  0  0  0999 V2000
   27.2108   13.8742   18.7511 N   0  0  0  0  0  0  0  0  0  0  0  0
   27.7715   14.7651   19.8110 C   0  0  2  0  0  0  0  0  0  0  0  0
   26.7951   14.9466   20.9655 C   0  0  0  0  0  0  0  0  0  0  0  0
   25.5825   14.8946   20.7906 O   0  0  0  0  0  0  0  0  0  0  0  0
   28.1848   16.1182   19.2268 C   0  0  0  0  0  0  0  0  0  0  0  0
   28.8504   17.0409   20.2333 C   0  0  0  0  0  0  0  0  0  0  0  0
   30.2178   16.5188   20.6567 C   0  0  0  0  0  0  0  0  0  0  0  0
   30.8593   17.4527   21.6699 C   0  0  0  0  0  0  0  0  0  0  0  0
   32.2465   17.0183   22.0645 N   0  0  0  0  0  0  0  0  0  0  0  0
   27.1720   15.1214   22.1163 O   0  0  0  0  0  0  0  0  0  0  0  0
  2  1  1  6  0  0  0
  2  3  1  0  0  0  0
  2  5  1  0  0  0  0
  3  4  1  0  0  0  0
  3 10  1  0  0  0  0
  5  6  1  0  0  0  0
  6  7  1  0  0  0  0
  7  8  1  0  0  0  0
  8  9  1  0  0  0  0
M  END
>  <CHROM.1>
-29.67983251,-176.10590759,68.25197872,-179.61308787,-176.90409582,28.45901044
15.77278452,20.65270375,-2.81955732,0.43685346,1.38394454

>  <Name>
ligand

>  <RI>
0

>  <Rbt.Current_Directory>
/home/itssahil/PROJECTS/Mol_Feturizer/New_Systems/rnas/3DIZ

>  <Rbt.Executable>
rbdock ($Id: //depot/dev/client3/rdock/2013.1/src/exe/rbdock.cxx#4 $)

>  <Rbt.Library>
libRbt.so (2013.1, Build901 2013/11/27)

>  <Rbt.Parameter_File>
/export/apps/rDock/src/rDock_2013.1_src/data/scripts/dock_solv.prm

>  <Rbt.Receptor>
prm/pocket_docking_4.prm

>  <SCORE>
-10.6295

>  <SCORE.INTER>
-8.93911

>  <SCORE.INTER.CONST>
1

>  <SCORE.INTER.POLAR>
0

>  <SCORE.INTER.ROT>
5

>  <SCORE.INTER.SOLV>
15.878

>  <SCORE.INTER.VDW>
-18.1854

>  <SCORE.INTER.norm>
-0.893911

>  <SCORE.INTRA>
-1.69041

>  <SCORE.INTRA.DIHEDRAL>
-1.73809

>  <SCORE.INTRA.DIHEDRAL.0>
3.67053

>  <SCORE.INTRA.POLAR>
0

>  <SCORE.INTRA.POLAR.0>
0

>  <SCORE.INTRA.REPUL>
0

>  <SCORE.INTRA.REPUL.0>
0

>  <SCORE.INTRA.SOLV>
-1.47602

>  <SCORE.INTRA.SOLV.lig_0>
-32.0553

>  <SCORE.INTRA.VDW>
-0.0833546

>  <SCORE.INTRA.VDW.0>
-0.571921

>  <SCORE.INTRA.norm>
-0.169041

>  <SCORE.RESTR>
0

>  <SCORE.RESTR.CAVITY>
0

>  <SCORE.RESTR.norm>
0

>  <SCORE.SYSTEM>
0

>  <SCORE.SYSTEM.CONST>
0

>  <SCORE.SYSTEM.DIHEDRAL>
0

>  <SCORE.SYSTEM.SOLV>
0

>  <SCORE.SYSTEM.norm>
0

>  <SCORE.heavy>
10

>  <SCORE.norm>
-1.06295

>  <RMSD>
5.297

$$$$
ligand
 OpenBabel11021811473D
libRbt.so/2013.1/901 2013/11/27
 10  9  0  0  0  0  0  0  0  0999 V2000
   28.0162   14.6746   18.8343 N   0  0  0  0  0  0  0  0  0  0  0  0
   28.2591   14.8513   20.2976 C   0  0  2  0  0  0  0  0  0  0  0  0
   26.9607   15.0884   21.0572 C   0  0  0  0  0  0  0  0  0  0  0  0
   25.8880   15.1904   20.4721 O   0  0  0  0  0  0  0  0  0  0  0  0
   29.2570   15.9833   20.5542 C   0  0  0  0  0  0  0  0  0  0  0  0
   29.7093   16.0833   22.0009 C   0  0  0  0  0  0  0  0  0  0  0  0
   30.7169   17.2089   22.1989 C   0  0  0  0  0  0  0  0  0  0  0  0
   32.0548   16.8484   21.5742 C   0  0  0  0  0  0  0  0  0  0  0  0
   33.0999   17.9128   21.7830 N   0  0  0  0  0  0  0  0  0  0  0  0
   26.9235   15.1577   22.2782 O   0  0  0  0  0  0  0  0  0  0  0  0
  2  1  1  6  0  0  0
  2  3  1  0  0  0  0
  2  5  1  0  0  0  0
  3  4  1  0  0  0  0
  3 10  1  0  0  0  0
  5  6  1  0  0  0  0
  6  7  1  0  0  0  0
  7  8  1  0  0  0  0
  8  9  1  0  0  0  0
M  END
>  <CHROM.1>
-3.94283034,-171.35884948,179.08231395,-71.52442096,-178.11646810,29.04944334
15.89859531,21.11928935,-2.81635880,0.33593416,1.25207601

>  <Name>
ligand

>  <RI>
0

>  <Rbt.Current_Directory>
/home/itssahil/PROJECTS/Mol_Feturizer/New_Systems/rnas/3DIZ

>  <Rbt.Executable>
rbdock ($Id: //depot/dev/client3/rdock/2013.1/src/exe/rbdock.cxx#4 $)

>  <Rbt.Library>
libRbt.so (2013.1, Build901 2013/11/27)

>  <Rbt.Parameter_File>
/export/apps/rDock/src/rDock_2013.1_src/data/scripts/dock_solv.prm

>  <Rbt.Receptor>
prm/pocket_docking_6.prm

>  <SCORE>
-9.55322

>  <SCORE.INTER>
-8.83398

>  <SCORE.INTER.CONST>
1

>  <SCORE.INTER.POLAR>
0

>  <SCORE.INTER.ROT>
5

>  <SCORE.INTER.SOLV>
13.3054

>  <SCORE.INTER.VDW>
-17.2578

>  <SCORE.INTER.norm>
-0.883398

>  <SCORE.INTRA>
-0.71924

>  <SCORE.INTRA.DIHEDRAL>
-1.32299

>  <SCORE.INTRA.DIHEDRAL.0>
3.67053

>  <SCORE.INTRA.POLAR>
0

>  <SCORE.INTRA.POLAR.0>
0

>  <SCORE.INTRA.REPUL>
0

>  <SCORE.INTRA.REPUL.0>
0

>  <SCORE.INTRA.SOLV>
-1.49722

>  <SCORE.INTRA.SOLV.lig_0>
-32.0553

>  <SCORE.INTRA.VDW>
0.690861

>  <SCORE.INTRA.VDW.0>
-0.571921

>  <SCORE.INTRA.norm>
-0.071924

>  <SCORE.RESTR>
0

>  <SCORE.RESTR.CAVITY>
0

>  <SCORE.RESTR.norm>
0

>  <SCORE.SYSTEM>
0

>  <SCORE.SYSTEM.CONST>
0

>  <SCORE.SYSTEM.DIHEDRAL>
0

>  <SCORE.SYSTEM.SOLV>
0

>  <SCORE.SYSTEM.norm>
0

>  <SCORE.heavy>
10

>  <SCORE.norm>
-0.955322

>  <RMSD>
5.297

$$$$
ligand
 OpenBabel11021811473D
libRbt.so/2013.1/901 2013/11/27
 10  9  0  0  0  0  0  0  0  0999 V2000
   28.5778   14.2999   19.0944 N   0  0  0  0  0  0  0  0  0  0  0  0
   28.1485   14.4217   20.5200 C   0  0  2  0  0  0  0  0  0  0  0  0
   26.7475   15.0074   20.6359 C   0  0  0  0  0  0  0  0  0  0  0  0
   26.0070   14.7125   21.5676 O   0  0  0  0  0  0  0  0  0  0  0  0
   29.1544   15.2471   21.3262 C   0  0  0  0  0  0  0  0  0  0  0  0
   29.3455   16.6599   20.8018 C   0  0  0  0  0  0  0  0  0  0  0  0
   30.4462   17.3958   21.5557 C   0  0  0  0  0  0  0  0  0  0  0  0
   31.8100   16.8187   21.2135 C   0  0  0  0  0  0  0  0  0  0  0  0
   32.9394   17.5622   21.8772 N   0  0  0  0  0  0  0  0  0  0  0  0
   26.3104   15.8155   19.8279 O   0  0  0  0  0  0  0  0  0  0  0  0
  2  1  1  6  0  0  0
  2  3  1  0  0  0  0
  2  5  1  0  0  0  0
  3  4  1  0  0  0  0
  3 10  1  0  0  0  0
  5  6  1  0  0  0  0
  6  7  1  0  0  0  0
  7  8  1  0  0  0  0
  8  9  1  0  0  0  0
M  END
>  <CHROM.1>
150.00206115,59.51393100,-174.74316279,70.29935111,176.87709244,28.90732566
15.80024482,20.84335059,-2.71706137,0.16398408,0.77315741

>  <Name>
ligand

>  <RI>
0

>  <Rbt.Current_Directory>
/home/itssahil/PROJECTS/Mol_Feturizer/New_Systems/rnas/3DIZ

>  <Rbt.Executable>
rbdock ($Id: //depot/dev/client3/rdock/2013.1/src/exe/rbdock.cxx#4 $)

>  <Rbt.Library>
libRbt.so (2013.1, Build901 2013/11/27)

>  <Rbt.Parameter_File>
/export/apps/rDock/src/rDock_2013.1_src/data/scripts/dock_solv.prm

>  <Rbt.Receptor>
prm/pocket_docking_6.prm

>  <SCORE>
-9.16849

>  <SCORE.INTER>
-8.48816

>  <SCORE.INTER.CONST>
1

>  <SCORE.INTER.POLAR>
0

>  <SCORE.INTER.ROT>
5

>  <SCORE.INTER.SOLV>
13.801

>  <SCORE.INTER.VDW>
-17.1924

>  <SCORE.INTER.norm>
-0.848816

>  <SCORE.INTRA>
-0.680327

>  <SCORE.INTRA.DIHEDRAL>
-1.64139

>  <SCORE.INTRA.DIHEDRAL.0>
3.67053

>  <SCORE.INTRA.POLAR>
0

>  <SCORE.INTRA.POLAR.0>
0

>  <SCORE.INTRA.REPUL>
0

>  <SCORE.INTRA.REPUL.0>
0

>  <SCORE.INTRA.SOLV>
-0.527764

>  <SCORE.INTRA.SOLV.lig_0>
-32.0553

>  <SCORE.INTRA.VDW>
0.404253

>  <SCORE.INTRA.VDW.0>
-0.571921

>  <SCORE.INTRA.norm>
-0.0680327

>  <SCORE.RESTR>
0

>  <SCORE.RESTR.CAVITY>
0

>  <SCORE.RESTR.norm>
0

>  <SCORE.SYSTEM>
0

>  <SCORE.SYSTEM.CONST>
0

>  <SCORE.SYSTEM.DIHEDRAL>
0

>  <SCORE.SYSTEM.SOLV>
0

>  <SCORE.SYSTEM.norm>
0

>  <SCORE.heavy>
10

>  <SCORE.norm>
-0.916849

>  <RMSD>
5.297

$$$$
ligand
 OpenBabel11021811473D
libRbt.so/2013.1/901 2013/11/27
 10  9  0  0  0  0  0  0  0  0999 V2000
   27.6656   14.6039   18.7717 N   0  0  0  0  0  0  0  0  0  0  0  0
   28.0210   14.5813   20.2225 C   0  0  2  0  0  0  0  0  0  0  0  0
   26.8394   14.9813   21.0958 C   0  0  0  0  0  0  0  0  0  0  0  0
   25.7115   15.0996   20.6293 O   0  0  0  0  0  0  0  0  0  0  0  0
   29.2342   15.4716   20.5029 C   0  0  0  0  0  0  0  0  0  0  0  0
   29.8431   15.2595   21.8783 C   0  0  0  0  0  0  0  0  0  0  0  0
   31.1735   15.9880   22.0230 C   0  0  0  0  0  0  0  0  0  0  0  0
   30.9646   17.4935   22.0214 C   0  0  0  0  0  0  0  0  0  0  0  0
   32.2566   18.2601   22.1299 N   0  0  0  0  0  0  0  0  0  0  0  0
   26.9536   15.1725   22.2989 O   0  0  0  0  0  0  0  0  0  0  0  0
  2  1  1  6  0  0  0
  2  3  1  0  0  0  0
  2  5  1  0  0  0  0
  3  4  1  0  0  0  0
  3 10  1  0  0  0  0
  5  6  1  0  0  0  0
  6  7  1  0  0  0  0
  7  8  1  0  0  0  0
  8  9  1  0  0  0  0
M  END
>  <CHROM.1>
9.97887158,-166.97145005,170.42234157,68.05701898,-178.65441278,28.83014500
15.69348550,21.17370354,-2.70821106,0.33160600,1.17950249

>  <Name>
ligand

>  <RI>
0

>  <Rbt.Current_Directory>
/home/itssahil/PROJECTS/Mol_Feturizer/New_Systems/rnas/3DIZ

>  <Rbt.Executable>
rbdock ($Id: //depot/dev/client3/rdock/2013.1/src/exe/rbdock.cxx#4 $)

>  <Rbt.Library>
libRbt.so (2013.1, Build901 2013/11/27)

>  <Rbt.Parameter_File>
/export/apps/rDock/src/rDock_2013.1_src/data/scripts/dock_solv.prm

>  <Rbt.Receptor>
prm/pocket_docking_8.prm

>  <SCORE>
-9.65306

>  <SCORE.INTER>
-9.3523

>  <SCORE.INTER.CONST>
1

>  <SCORE.INTER.POLAR>
0

>  <SCORE.INTER.ROT>
5

>  <SCORE.INTER.SOLV>
14.5142

>  <SCORE.INTER.VDW>
-18.0063

>  <SCORE.INTER.norm>
-0.93523

>  <SCORE.INTRA>
-0.300754

>  <SCORE.INTRA.DIHEDRAL>
-0.926098

>  <SCORE.INTRA.DIHEDRAL.0>
3.67053

>  <SCORE.INTRA.POLAR>
0

>  <SCORE.INTRA.POLAR.0>
0

>  <SCORE.INTRA.REPUL>
0

>  <SCORE.INTRA.REPUL.0>
0

>  <SCORE.INTRA.SOLV>
-1.45537

>  <SCORE.INTRA.SOLV.lig_0>
-32.0553

>  <SCORE.INTRA.VDW>
0.88998

>  <SCORE.INTRA.VDW.0>
-0.571921

>  <SCORE.INTRA.norm>
-0.0300754

>  <SCORE.RESTR>
0

>  <SCORE.RESTR.CAVITY>
0

>  <SCORE.RESTR.norm>
0

>  <SCORE.SYSTEM>
0

>  <SCORE.SYSTEM.CONST>
0

>  <SCORE.SYSTEM.DIHEDRAL>
0

>  <SCORE.SYSTEM.SOLV>
0

>  <SCORE.SYSTEM.norm>
0

>  <SCORE.heavy>
10

>  <SCORE.norm>
-0.965306

>  <RMSD>
5.298

$$$$
ligand
 OpenBabel11021811473D
libRbt.so/2013.1/901 2013/11/27
 10  9  0  0  0  0  0  0  0  0999 V2000
   28.0048   14.6981   18.8164 N   0  0  0  0  0  0  0  0  0  0  0  0
   28.2518   14.8588   20.2809 C   0  0  2  0  0  0  0  0  0  0  0  0
   26.9550   15.0827   21.0472 C   0  0  0  0  0  0  0  0  0  0  0  0
   25.8768   15.1624   20.4686 O   0  0  0  0  0  0  0  0  0  0  0  0
   29.2466   15.9913   20.5472 C   0  0  0  0  0  0  0  0  0  0  0  0
   29.7058   16.0741   21.9929 C   0  0  0  0  0  0  0  0  0  0  0  0
   30.7066   17.2039   22.2014 C   0  0  0  0  0  0  0  0  0  0  0  0
   32.0470   16.8567   21.5746 C   0  0  0  0  0  0  0  0  0  0  0  0
   33.0849   17.9267   21.7910 N   0  0  0  0  0  0  0  0  0  0  0  0
   26.9250   15.1628   22.2677 O   0  0  0  0  0  0  0  0  0  0  0  0
  2  1  1  6  0  0  0
  2  3  1  0  0  0  0
  2  5  1  0  0  0  0
  3  4  1  0  0  0  0
  3 10  1  0  0  0  0
  5  6  1  0  0  0  0
  6  7  1  0  0  0  0
  7  8  1  0  0  0  0
  8  9  1  0  0  0  0
M  END
>  <CHROM.1>
-2.54730179,-171.21756376,179.26545733,-71.98486060,-178.24229823,29.04139439
15.90012284,21.11312975,-2.81582591,0.33967692,1.26025572

>  <Name>
ligand

>  <RI>
0

>  <Rbt.Current_Directory>
/home/itssahil/PROJECTS/Mol_Feturizer/New_Systems/rnas/3DIZ

>  <Rbt.Executable>
rbdock ($Id: //depot/dev/client3/rdock/2013.1/src/exe/rbdock.cxx#4 $)

>  <Rbt.Library>
libRbt.so (2013.1, Build901 2013/11/27)

>  <Rbt.Parameter_File>
/export/apps/rDock/src/rDock_2013.1_src/data/scripts/dock_solv.prm

>  <Rbt.Receptor>
prm/pocket_docking_6.prm

>  <SCORE>
-9.55288

>  <SCORE.INTER>
-8.86374

>  <SCORE.INTER.CONST>
1

>  <SCORE.INTER.POLAR>
0

>  <SCORE.INTER.ROT>
5

>  <SCORE.INTER.SOLV>
13.2901

>  <SCORE.INTER.VDW>
-17.2725

>  <SCORE.INTER.norm>
-0.886374

>  <SCORE.INTRA>
-0.689142

>  <SCORE.INTRA.DIHEDRAL>
-1.27866

>  <SCORE.INTRA.DIHEDRAL.0>
3.67053

>  <SCORE.INTRA.POLAR>
0

>  <SCORE.INTRA.POLAR.0>
0

>  <SCORE.INTRA.REPUL>
0

>  <SCORE.INTRA.REPUL.0>
0

>  <SCORE.INTRA.SOLV>
-1.49955

>  <SCORE.INTRA.SOLV.lig_0>
-32.0553

>  <SCORE.INTRA.VDW>
0.699965

>  <SCORE.INTRA.VDW.0>
-0.571921

>  <SCORE.INTRA.norm>
-0.0689142

>  <SCORE.RESTR>
0

>  <SCORE.RESTR.CAVITY>
0

>  <SCORE.RESTR.norm>
0

>  <SCORE.SYSTEM>
0

>  <SCORE.SYSTEM.CONST>
0

>  <SCORE.SYSTEM.DIHEDRAL>
0

>  <SCORE.SYSTEM.SOLV>
0

>  <SCORE.SYSTEM.norm>
0

>  <SCORE.heavy>
10

>  <SCORE.norm>
-0.955288

>  <RMSD>
5.300

$$$$
ligand
 OpenBabel11021811473D
libRbt.so/2013.1/901 2013/11/27
 10  9  0  0  0  0  0  0  0  0999 V2000
   27.2238   13.9014   18.7279 N   0  0  0  0  0  0  0  0  0  0  0  0
   27.7726   14.7876   19.7980 C   0  0  2  0  0  0  0  0  0  0  0  0
   26.7941   14.9428   20.9544 C   0  0  0  0  0  0  0  0  0  0  0  0
   25.5823   14.8759   20.7791 O   0  0  0  0  0  0  0  0  0  0  0  0
   28.1676   16.1527   19.2292 C   0  0  0  0  0  0  0  0  0  0  0  0
   28.8301   17.0690   20.2436 C   0  0  0  0  0  0  0  0  0  0  0  0
   30.2145   16.5673   20.6350 C   0  0  0  0  0  0  0  0  0  0  0  0
   30.8441   17.4824   21.6725 C   0  0  0  0  0  0  0  0  0  0  0  0
   32.2355   17.0537   22.0585 N   0  0  0  0  0  0  0  0  0  0  0  0
   27.1688   15.1100   22.1071 O   0  0  0  0  0  0  0  0  0  0  0  0
  2  1  1  6  0  0  0
  2  3  1  0  0  0  0
  2  5  1  0  0  0  0
  3  4  1  0  0  0  0
  3 10  1  0  0  0  0
  5  6  1  0  0  0  0
  6  7  1  0  0  0  0
  7  8  1  0  0  0  0
  8  9  1  0  0  0  0
M  END
>  <CHROM.1>
-29.64950041,-175.68434400,69.11662162,-178.74631744,-178.06451130,28.45326889
15.79131361,20.64469431,-2.82315540,0.44714661,1.39567505

>  <Name>
ligand

>  <RI>
0

>  <Rbt.Current_Directory>
/home/itssahil/PROJECTS/Mol_Feturizer/New_Systems/rnas/3DIZ

>  <Rbt.Executable>
rbdock ($Id: //depot/dev/client3/rdock/2013.1/src/exe/rbdock.cxx#4 $)

>  <Rbt.Library>
libRbt.so (2013.1, Build901 2013/11/27)

>  <Rbt.Parameter_File>
/export/apps/rDock/src/rDock_2013.1_src/data/scripts/dock_solv.prm

>  <Rbt.Receptor>
prm/pocket_docking_3.prm

>  <SCORE>
-10.6331

>  <SCORE.INTER>
-8.9486

>  <SCORE.INTER.CONST>
1

>  <SCORE.INTER.POLAR>
0

>  <SCORE.INTER.ROT>
5

>  <SCORE.INTER.SOLV>
15.8027

>  <SCORE.INTER.VDW>
-18.1666

>  <SCORE.INTER.norm>
-0.89486

>  <SCORE.INTRA>
-1.68453

>  <SCORE.INTRA.DIHEDRAL>
-1.6807

>  <SCORE.INTRA.DIHEDRAL.0>
3.67053

>  <SCORE.INTRA.POLAR>
0

>  <SCORE.INTRA.POLAR.0>
0

>  <SCORE.INTRA.REPUL>
0

>  <SCORE.INTRA.REPUL.0>
0

>  <SCORE.INTRA.SOLV>
-1.478

>  <SCORE.INTRA.SOLV.lig_0>
-32.0553

>  <SCORE.INTRA.VDW>
-0.105182

>  <SCORE.INTRA.VDW.0>
-0.571921

>  <SCORE.INTRA.norm>
-0.168453

>  <SCORE.RESTR>
0

>  <SCORE.RESTR.CAVITY>
0

>  <SCORE.RESTR.norm>
0

>  <SCORE.SYSTEM>
0

>  <SCORE.SYSTEM.CONST>
0

>  <SCORE.SYSTEM.DIHEDRAL>
0

>  <SCORE.SYSTEM.SOLV>
0

>  <SCORE.SYSTEM.norm>
0

>  <SCORE.heavy>
10

>  <SCORE.norm>
-1.06331

>  <RMSD>
5.301

$$$$
ligand
 OpenBabel11021811473D
libRbt.so/2013.1/901 2013/11/27
 10  9  0  0  0  0  0  0  0  0999 V2000
   27.9664   14.7464   18.8119 N   0  0  0  0  0  0  0  0  0  0  0  0
   28.2359   14.8820   20.2750 C   0  0  2  0  0  0  0  0  0  0  0  0
   26.9512   15.0946   21.0646 C   0  0  0  0  0  0  0  0  0  0  0  0
   25.8637   15.1792   20.5043 O   0  0  0  0  0  0  0  0  0  0  0  0
   29.2364   16.0085   20.5453 C   0  0  0  0  0  0  0  0  0  0  0  0
   29.7022   16.0787   21.9895 C   0  0  0  0  0  0  0  0  0  0  0  0
   30.7030   17.2074   22.2036 C   0  0  0  0  0  0  0  0  0  0  0  0
   32.0490   16.8552   21.5917 C   0  0  0  0  0  0  0  0  0  0  0  0
   33.0725   17.9457   21.7705 N   0  0  0  0  0  0  0  0  0  0  0  0
   26.9406   15.1603   22.2863 O   0  0  0  0  0  0  0  0  0  0  0  0
  2  1  1  6  0  0  0
  2  3  1  0  0  0  0
  2  5  1  0  0  0  0
  3  4  1  0  0  0  0
  3 10  1  0  0  0  0
  5  6  1  0  0  0  0
  6  7  1  0  0  0  0
  7  8  1  0  0  0  0
  8  9  1  0  0  0  0
M  END
>  <CHROM.1>
-2.19867800,-172.05354209,179.55779064,-73.11969034,179.66254182,29.03329305
15.91391488,21.11911469,-2.82543646,0.34464710,1.27885317

>  <Name>
ligand

>  <RI>
0

>  <Rbt.Current_Directory>
/home/itssahil/PROJECTS/Mol_Feturizer/New_Systems/rnas/3DIZ

>  <Rbt.Executable>
rbdock ($Id: //depot/dev/client3/rdock/2013.1/src/exe/rbdock.cxx#4 $)

>  <Rbt.Library>
libRbt.so (2013.1, Build901 2013/11/27)

>  <Rbt.Parameter_File>
/export/apps/rDock/src/rDock_2013.1_src/data/scripts/dock_solv.prm

>  <Rbt.Receptor>
prm/pocket_docking_3.prm

>  <SCORE>
-9.50915

>  <SCORE.INTER>
-8.8465

>  <SCORE.INTER.CONST>
1

>  <SCORE.INTER.POLAR>
0

>  <SCORE.INTER.ROT>
5

>  <SCORE.INTER.SOLV>
13.2642

>  <SCORE.INTER.VDW>
-17.2524

>  <SCORE.INTER.norm>
-0.88465

>  <SCORE.INTRA>
-0.662647

>  <SCORE.INTRA.DIHEDRAL>
-1.23308

>  <SCORE.INTRA.DIHEDRAL.0>
3.67053

>  <SCORE.INTRA.POLAR>
0

>  <SCORE.INTRA.POLAR.0>
0

>  <SCORE.INTRA.REPUL>
0

>  <SCORE.INTRA.REPUL.0>
0

>  <SCORE.INTRA.SOLV>
-1.49635

>  <SCORE.INTRA.SOLV.lig_0>
-32.0553

>  <SCORE.INTRA.VDW>
0.702067

>  <SCORE.INTRA.VDW.0>
-0.571921

>  <SCORE.INTRA.norm>
-0.0662647

>  <SCORE.RESTR>
0

>  <SCORE.RESTR.CAVITY>
0

>  <SCORE.RESTR.norm>
0

>  <SCORE.SYSTEM>
0

>  <SCORE.SYSTEM.CONST>
0

>  <SCORE.SYSTEM.DIHEDRAL>
0

>  <SCORE.SYSTEM.SOLV>
0

>  <SCORE.SYSTEM.norm>
0

>  <SCORE.heavy>
10

>  <SCORE.norm>
-0.950915

>  <RMSD>
5.301

$$$$
ligand
 OpenBabel11021811473D
libRbt.so/2013.1/901 2013/11/27
 10  9  0  0  0  0  0  0  0  0999 V2000
   27.9955   14.7031   18.8253 N   0  0  0  0  0  0  0  0  0  0  0  0
   28.2521   14.8650   20.2880 C   0  0  2  0  0  0  0  0  0  0  0  0
   26.9604   15.0895   21.0627 C   0  0  0  0  0  0  0  0  0  0  0  0
   25.8781   15.1657   20.4915 O   0  0  0  0  0  0  0  0  0  0  0  0
   29.2486   15.9977   20.5469 C   0  0  0  0  0  0  0  0  0  0  0  0
   29.7270   16.0739   21.9867 C   0  0  0  0  0  0  0  0  0  0  0  0
   30.7229   17.2090   22.1893 C   0  0  0  0  0  0  0  0  0  0  0  0
   32.0618   16.8686   21.5557 C   0  0  0  0  0  0  0  0  0  0  0  0
   33.1019   17.9334   21.7859 N   0  0  0  0  0  0  0  0  0  0  0  0
   26.9389   15.1735   22.2832 O   0  0  0  0  0  0  0  0  0  0  0  0
  2  1  1  6  0  0  0
  2  3  1  0  0  0  0
  2  5  1  0  0  0  0
  3  4  1  0  0  0  0
  3 10  1  0  0  0  0
  5  6  1  0  0  0  0
  6  7  1  0  0  0  0
  7  8  1  0  0  0  0
  8  9  1  0  0  0  0
M  END
>  <CHROM.1>
-2.38372117,-170.69304654,179.57782545,-72.63044859,-177.26974473,29.04974831
15.90630746,21.11609684,-2.82103920,0.34083784,1.26157444

>  <Name>
ligand

>  <RI>
0

>  <Rbt.Current_Directory>
/home/itssahil/PROJECTS/Mol_Feturizer/New_Systems/rnas/3DIZ

>  <Rbt.Executable>
rbdock ($Id: //depot/dev/client3/rdock/2013.1/src/exe/rbdock.cxx#4 $)

>  <Rbt.Library>
libRbt.so (2013.1, Build901 2013/11/27)

>  <Rbt.Parameter_File>
/export/apps/rDock/src/rDock_2013.1_src/data/scripts/dock_solv.prm

>  <Rbt.Receptor>
prm/pocket_docking_5.prm

>  <SCORE>
-9.55212

>  <SCORE.INTER>
-8.87677

>  <SCORE.INTER.CONST>
1

>  <SCORE.INTER.POLAR>
0

>  <SCORE.INTER.ROT>
5

>  <SCORE.INTER.SOLV>
13.3051

>  <SCORE.INTER.VDW>
-17.2862

>  <SCORE.INTER.norm>
-0.887677

>  <SCORE.INTRA>
-0.675346

>  <SCORE.INTRA.DIHEDRAL>
-1.1671

>  <SCORE.INTRA.DIHEDRAL.0>
3.67053

>  <SCORE.INTRA.POLAR>
0

>  <SCORE.INTRA.POLAR.0>
0

>  <SCORE.INTRA.REPUL>
0

>  <SCORE.INTRA.REPUL.0>
0

>  <SCORE.INTRA.SOLV>
-1.50823

>  <SCORE.INTRA.SOLV.lig_0>
-32.0553

>  <SCORE.INTRA.VDW>
0.662317

>  <SCORE.INTRA.VDW.0>
-0.571921

>  <SCORE.INTRA.norm>
-0.0675346

>  <SCORE.RESTR>
0

>  <SCORE.RESTR.CAVITY>
0

>  <SCORE.RESTR.norm>
0

>  <SCORE.SYSTEM>
0

>  <SCORE.SYSTEM.CONST>
0

>  <SCORE.SYSTEM.DIHEDRAL>
0

>  <SCORE.SYSTEM.SOLV>
0

>  <SCORE.SYSTEM.norm>
0

>  <SCORE.heavy>
10

>  <SCORE.norm>
-0.955212

>  <RMSD>
5.301

$$$$
ligand
 OpenBabel11021811473D
libRbt.so/2013.1/901 2013/11/27
 10  9  0  0  0  0  0  0  0  0999 V2000
   27.1306   13.8182   18.7444 N   0  0  0  0  0  0  0  0  0  0  0  0
   27.7164   14.7324   19.7704 C   0  0  2  0  0  0  0  0  0  0  0  0
   26.7753   14.9259   20.9519 C   0  0  0  0  0  0  0  0  0  0  0  0
   25.5578   14.8867   20.8118 O   0  0  0  0  0  0  0  0  0  0  0  0
   28.0986   16.0785   19.1499 C   0  0  0  0  0  0  0  0  0  0  0  0
   28.7459   17.0417   20.1302 C   0  0  0  0  0  0  0  0  0  0  0  0
   30.1097   16.5429   20.5915 C   0  0  0  0  0  0  0  0  0  0  0  0
   30.7125   17.4941   21.6122 C   0  0  0  0  0  0  0  0  0  0  0  0
   32.0713   17.0514   22.0884 N   0  0  0  0  0  0  0  0  0  0  0  0
   27.1869   15.0982   22.0912 O   0  0  0  0  0  0  0  0  0  0  0  0
  2  1  1  6  0  0  0
  2  3  1  0  0  0  0
  2  5  1  0  0  0  0
  3  4  1  0  0  0  0
  3 10  1  0  0  0  0
  5  6  1  0  0  0  0
  6  7  1  0  0  0  0
  7  8  1  0  0  0  0
  8  9  1  0  0  0  0
M  END
>  <CHROM.1>
-31.14035059,-178.01382303,66.76350400,-177.75133639,-179.35468260,28.38149523
15.76484705,20.61897836,-2.81842372,0.46575182,1.40575065

>  <Name>
ligand

>  <RI>
0

>  <Rbt.Current_Directory>
/home/itssahil/PROJECTS/Mol_Feturizer/New_Systems/rnas/3DIZ

>  <Rbt.Executable>
rbdock ($Id: //depot/dev/client3/rdock/2013.1/src/exe/rbdock.cxx#4 $)

>  <Rbt.Library>
libRbt.so (2013.1, Build901 2013/11/27)

>  <Rbt.Parameter_File>
/export/apps/rDock/src/rDock_2013.1_src/data/scripts/dock_solv.prm

>  <Rbt.Receptor>
prm/pocket_docking_7.prm

>  <SCORE>
-10.6483

>  <SCORE.INTER>
-8.92888

>  <SCORE.INTER.CONST>
1

>  <SCORE.INTER.POLAR>
0

>  <SCORE.INTER.ROT>
5

>  <SCORE.INTER.SOLV>
15.808

>  <SCORE.INTER.VDW>
-18.1552

>  <SCORE.INTER.norm>
-0.892888

>  <SCORE.INTRA>
-1.71942

>  <SCORE.INTRA.DIHEDRAL>
-1.88373

>  <SCORE.INTRA.DIHEDRAL.0>
3.67053

>  <SCORE.INTRA.POLAR>
0

>  <SCORE.INTRA.POLAR.0>
0

>  <SCORE.INTRA.REPUL>
0

>  <SCORE.INTRA.REPUL.0>
0

>  <SCORE.INTRA.SOLV>
-1.48066

>  <SCORE.INTRA.SOLV.lig_0>
-32.0553

>  <SCORE.INTRA.VDW>
-0.0372277

>  <SCORE.INTRA.VDW.0>
-0.571921

>  <SCORE.INTRA.norm>
-0.171942

>  <SCORE.RESTR>
0

>  <SCORE.RESTR.CAVITY>
0

>  <SCORE.RESTR.norm>
0

>  <SCORE.SYSTEM>
0

>  <SCORE.SYSTEM.CONST>
0

>  <SCORE.SYSTEM.DIHEDRAL>
0

>  <SCORE.SYSTEM.SOLV>
0

>  <SCORE.SYSTEM.norm>
0

>  <SCORE.heavy>
10

>  <SCORE.norm>
-1.06483

>  <RMSD>
5.301

$$$$
ligand
 OpenBabel11021811473D
libRbt.so/2013.1/901 2013/11/27
 10  9  0  0  0  0  0  0  0  0999 V2000
   28.5975   14.2486   19.1211 N   0  0  0  0  0  0  0  0  0  0  0  0
   28.1397   14.4145   20.5333 C   0  0  2  0  0  0  0  0  0  0  0  0
   26.7450   15.0218   20.6032 C   0  0  0  0  0  0  0  0  0  0  0  0
   25.9318   14.6588   21.4461 O   0  0  0  0  0  0  0  0  0  0  0  0
   29.1397   15.2478   21.3388 C   0  0  0  0  0  0  0  0  0  0  0  0
   29.3575   16.6452   20.7843 C   0  0  0  0  0  0  0  0  0  0  0  0
   30.4465   17.3896   21.5468 C   0  0  0  0  0  0  0  0  0  0  0  0
   31.8153   16.8082   21.2332 C   0  0  0  0  0  0  0  0  0  0  0  0
   32.9355   17.5689   21.8928 N   0  0  0  0  0  0  0  0  0  0  0  0
   26.3840   15.9136   19.8473 O   0  0  0  0  0  0  0  0  0  0  0  0
  2  1  1  6  0  0  0
  2  3  1  0  0  0  0
  2  5  1  0  0  0  0
  3  4  1  0  0  0  0
  3 10  1  0  0  0  0
  5  6  1  0  0  0  0
  6  7  1  0  0  0  0
  7  8  1  0  0  0  0
  8  9  1  0  0  0  0
M  END
>  <CHROM.1>
142.35572959,59.74044807,-175.08197651,71.35130324,176.20558829,28.90797466
15.79834865,20.83498989,-2.70030474,0.11698730,0.67698552

>  <Name>
ligand

>  <RI>
0

>  <Rbt.Current_Directory>
/home/itssahil/PROJECTS/Mol_Feturizer/New_Systems/rnas/3DIZ

>  <Rbt.Executable>
rbdock ($Id: //depot/dev/client3/rdock/2013.1/src/exe/rbdock.cxx#4 $)

>  <Rbt.Library>
libRbt.so (2013.1, Build901 2013/11/27)

>  <Rbt.Parameter_File>
/export/apps/rDock/src/rDock_2013.1_src/data/scripts/dock_solv.prm

>  <Rbt.Receptor>
prm/pocket_docking_3.prm

>  <SCORE>
-9.22962

>  <SCORE.INTER>
-8.55265

>  <SCORE.INTER.CONST>
1

>  <SCORE.INTER.POLAR>
0

>  <SCORE.INTER.ROT>
5

>  <SCORE.INTER.SOLV>
14.0092

>  <SCORE.INTER.VDW>
-17.3048

>  <SCORE.INTER.norm>
-0.855265

>  <SCORE.INTRA>
-0.676961

>  <SCORE.INTRA.DIHEDRAL>
-1.5421

>  <SCORE.INTRA.DIHEDRAL.0>
3.67053

>  <SCORE.INTRA.POLAR>
0

>  <SCORE.INTRA.POLAR.0>
0

>  <SCORE.INTRA.REPUL>
0

>  <SCORE.INTRA.REPUL.0>
0

>  <SCORE.INTRA.SOLV>
-0.553101

>  <SCORE.INTRA.SOLV.lig_0>
-32.0553

>  <SCORE.INTRA.VDW>
0.370642

>  <SCORE.INTRA.VDW.0>
-0.571921

>  <SCORE.INTRA.norm>
-0.0676961

>  <SCORE.RESTR>
0

>  <SCORE.RESTR.CAVITY>
0

>  <SCORE.RESTR.norm>
0

>  <SCORE.SYSTEM>
0

>  <SCORE.SYSTEM.CONST>
0

>  <SCORE.SYSTEM.DIHEDRAL>
0

>  <SCORE.SYSTEM.SOLV>
0

>  <SCORE.SYSTEM.norm>
0

>  <SCORE.heavy>
10

>  <SCORE.norm>
-0.922962

>  <RMSD>
5.302

$$$$
ligand
 OpenBabel11021811473D
libRbt.so/2013.1/901 2013/11/27
 10  9  0  0  0  0  0  0  0  0999 V2000
   28.0737   14.6091   18.8526 N   0  0  0  0  0  0  0  0  0  0  0  0
   28.3001   14.7536   20.3220 C   0  0  2  0  0  0  0  0  0  0  0  0
   27.0094   15.0873   21.0582 C   0  0  0  0  0  0  0  0  0  0  0  0
   26.9853   15.2198   22.2770 O   0  0  0  0  0  0  0  0  0  0  0  0
   29.3795   15.8002   20.6094 C   0  0  0  0  0  0  0  0  0  0  0  0
   30.7773   15.3634   20.2056 C   0  0  0  0  0  0  0  0  0  0  0  0
   31.7898   16.4891   20.3765 C   0  0  0  0  0  0  0  0  0  0  0  0
   32.0138   16.7912   21.8491 C   0  0  0  0  0  0  0  0  0  0  0  0
   32.9858   17.9205   22.0699 N   0  0  0  0  0  0  0  0  0  0  0  0
   25.9516   15.2668   20.4701 O   0  0  0  0  0  0  0  0  0  0  0  0
  2  1  1  6  0  0  0
  2  3  1  0  0  0  0
  2  5  1  0  0  0  0
  3  4  1  0  0  0  0
  3 10  1  0  0  0  0
  5  6  1  0  0  0  0
  6  7  1  0  0  0  0
  7  8  1  0  0  0  0
  8  9  1  0  0  0  0
M  END
>  <CHROM.1>
178.56890276,-69.89562082,174.06875382,69.13563758,-178.70965960,29.28680813
15.73250362,20.82485783,-2.87857994,0.27273534,1.14266344

>  <Name>
ligand

>  <RI>
0

>  <Rbt.Current_Directory>
/home/itssahil/PROJECTS/Mol_Feturizer/New_Systems/rnas/3DIZ

>  <Rbt.Executable>
rbdock ($Id: //depot/dev/client3/rdock/2013.1/src/exe/rbdock.cxx#4 $)

>  <Rbt.Library>
libRbt.so (2013.1, Build901 2013/11/27)

>  <Rbt.Parameter_File>
/export/apps/rDock/src/rDock_2013.1_src/data/scripts/dock_solv.prm

>  <Rbt.Receptor>
prm/pocket_docking_7.prm

>  <SCORE>
-9.27302

>  <SCORE.INTER>
-8.80193

>  <SCORE.INTER.CONST>
1

>  <SCORE.INTER.POLAR>
0

>  <SCORE.INTER.ROT>
5

>  <SCORE.INTER.SOLV>
13.2219

>  <SCORE.INTER.VDW>
-17.2086

>  <SCORE.INTER.norm>
-0.880193

>  <SCORE.INTRA>
-0.471097

>  <SCORE.INTRA.DIHEDRAL>
-1.28253

>  <SCORE.INTRA.DIHEDRAL.0>
3.67053

>  <SCORE.INTRA.POLAR>
0

>  <SCORE.INTRA.POLAR.0>
0

>  <SCORE.INTRA.REPUL>
0

>  <SCORE.INTRA.REPUL.0>
0

>  <SCORE.INTRA.SOLV>
-0.673003

>  <SCORE.INTRA.SOLV.lig_0>
-32.0553

>  <SCORE.INTRA.VDW>
0.506671

>  <SCORE.INTRA.VDW.0>
-0.571921

>  <SCORE.INTRA.norm>
-0.0471097

>  <SCORE.RESTR>
0

>  <SCORE.RESTR.CAVITY>
0

>  <SCORE.RESTR.norm>
0

>  <SCORE.SYSTEM>
0

>  <SCORE.SYSTEM.CONST>
0

>  <SCORE.SYSTEM.DIHEDRAL>
0

>  <SCORE.SYSTEM.SOLV>
0

>  <SCORE.SYSTEM.norm>
0

>  <SCORE.heavy>
10

>  <SCORE.norm>
-0.927302

>  <RMSD>
5.302

$$$$
ligand
 OpenBabel11021811473D
libRbt.so/2013.1/901 2013/11/27
 10  9  0  0  0  0  0  0  0  0999 V2000
   28.0976   14.5972   18.8526 N   0  0  0  0  0  0  0  0  0  0  0  0
   28.3053   14.7493   20.3241 C   0  0  2  0  0  0  0  0  0  0  0  0
   27.0064   15.0915   21.0415 C   0  0  0  0  0  0  0  0  0  0  0  0
   26.9596   15.1966   22.2623 O   0  0  0  0  0  0  0  0  0  0  0  0
   29.3845   15.7939   20.6196 C   0  0  0  0  0  0  0  0  0  0  0  0
   30.7836   15.3571   20.2205 C   0  0  0  0  0  0  0  0  0  0  0  0
   31.7914   16.4897   20.3725 C   0  0  0  0  0  0  0  0  0  0  0  0
   32.0217   16.8106   21.8402 C   0  0  0  0  0  0  0  0  0  0  0  0
   32.9732   17.9607   22.0419 N   0  0  0  0  0  0  0  0  0  0  0  0
   25.9646   15.3051   20.4365 O   0  0  0  0  0  0  0  0  0  0  0  0
  2  1  1  6  0  0  0
  2  3  1  0  0  0  0
  2  5  1  0  0  0  0
  3  4  1  0  0  0  0
  3 10  1  0  0  0  0
  5  6  1  0  0  0  0
  6  7  1  0  0  0  0
  7  8  1  0  0  0  0
  8  9  1  0  0  0  0
M  END
>  <CHROM.1>
176.63606593,-69.17342167,172.90672928,69.43323607,-177.84858344,29.28877851
15.73771590,20.81659070,-2.87513834,0.27236789,1.13112119

>  <Name>
ligand

>  <RI>
0

>  <Rbt.Current_Directory>
/home/itssahil/PROJECTS/Mol_Feturizer/New_Systems/rnas/3DIZ

>  <Rbt.Executable>
rbdock ($Id: //depot/dev/client3/rdock/2013.1/src/exe/rbdock.cxx#4 $)

>  <Rbt.Library>
libRbt.so (2013.1, Build901 2013/11/27)

>  <Rbt.Parameter_File>
/export/apps/rDock/src/rDock_2013.1_src/data/scripts/dock_solv.prm

>  <Rbt.Receptor>
prm/pocket_docking_3.prm

>  <SCORE>
-9.26849

>  <SCORE.INTER>
-8.79827

>  <SCORE.INTER.CONST>
1

>  <SCORE.INTER.POLAR>
0

>  <SCORE.INTER.ROT>
5

>  <SCORE.INTER.SOLV>
13.2188

>  <SCORE.INTER.VDW>
-17.2051

>  <SCORE.INTER.norm>
-0.879827

>  <SCORE.INTRA>
-0.470217

>  <SCORE.INTRA.DIHEDRAL>
-1.24644

>  <SCORE.INTRA.DIHEDRAL.0>
3.67053

>  <SCORE.INTRA.POLAR>
0

>  <SCORE.INTRA.POLAR.0>
0

>  <SCORE.INTRA.REPUL>
0

>  <SCORE.INTRA.REPUL.0>
0

>  <SCORE.INTRA.SOLV>
-0.653446

>  <SCORE.INTRA.SOLV.lig_0>
-32.0553

>  <SCORE.INTRA.VDW>
0.479727

>  <SCORE.INTRA.VDW.0>
-0.571921

>  <SCORE.INTRA.norm>
-0.0470217

>  <SCORE.RESTR>
0

>  <SCORE.RESTR.CAVITY>
0

>  <SCORE.RESTR.norm>
0

>  <SCORE.SYSTEM>
0

>  <SCORE.SYSTEM.CONST>
0

>  <SCORE.SYSTEM.DIHEDRAL>
0

>  <SCORE.SYSTEM.SOLV>
0

>  <SCORE.SYSTEM.norm>
0

>  <SCORE.heavy>
10

>  <SCORE.norm>
-0.926849

>  <RMSD>
5.303

$$$$
ligand
 OpenBabel11021811473D
libRbt.so/2013.1/901 2013/11/27
 10  9  0  0  0  0  0  0  0  0999 V2000
   28.6041   14.8357   19.3871 N   0  0  0  0  0  0  0  0  0  0  0  0
   27.9351   14.6954   20.7153 C   0  0  2  0  0  0  0  0  0  0  0  0
   26.4451   14.9975   20.6276 C   0  0  0  0  0  0  0  0  0  0  0  0
   25.6546   14.5583   21.4556 O   0  0  0  0  0  0  0  0  0  0  0  0
   28.6114   15.5806   21.7652 C   0  0  0  0  0  0  0  0  0  0  0  0
   30.0186   15.1357   22.1250 C   0  0  0  0  0  0  0  0  0  0  0  0
   30.9963   15.3839   20.9831 C   0  0  0  0  0  0  0  0  0  0  0  0
   31.2767   16.8697   20.8292 C   0  0  0  0  0  0  0  0  0  0  0  0
   31.9763   17.4568   22.0270 N   0  0  0  0  0  0  0  0  0  0  0  0
   25.9754   15.7110   19.7516 O   0  0  0  0  0  0  0  0  0  0  0  0
  2  1  1  6  0  0  0
  2  3  1  0  0  0  0
  2  5  1  0  0  0  0
  3  4  1  0  0  0  0
  3 10  1  0  0  0  0
  5  6  1  0  0  0  0
  6  7  1  0  0  0  0
  7  8  1  0  0  0  0
  8  9  1  0  0  0  0
M  END
>  <CHROM.1>
157.08033452,-67.96891571,70.43397315,71.91082305,64.53730378,28.70562462
15.52484082,20.96325901,-3.00060635,0.30854822,1.67184166

>  <Name>
ligand

>  <RI>
0

>  <Rbt.Current_Directory>
/home/itssahil/PROJECTS/Mol_Feturizer/New_Systems/rnas/3DIZ

>  <Rbt.Executable>
rbdock ($Id: //depot/dev/client3/rdock/2013.1/src/exe/rbdock.cxx#4 $)

>  <Rbt.Library>
libRbt.so (2013.1, Build901 2013/11/27)

>  <Rbt.Parameter_File>
/export/apps/rDock/src/rDock_2013.1_src/data/scripts/dock_solv.prm

>  <Rbt.Receptor>
prm/pocket_docking_5.prm

>  <SCORE>
-8.79141

>  <SCORE.INTER>
-10.1945

>  <SCORE.INTER.CONST>
1

>  <SCORE.INTER.POLAR>
0

>  <SCORE.INTER.ROT>
5

>  <SCORE.INTER.SOLV>
10.4214

>  <SCORE.INTER.VDW>
-17.2034

>  <SCORE.INTER.norm>
-1.01945

>  <SCORE.INTRA>
1.40306

>  <SCORE.INTRA.DIHEDRAL>
-0.863856

>  <SCORE.INTRA.DIHEDRAL.0>
3.67053

>  <SCORE.INTRA.POLAR>
0

>  <SCORE.INTRA.POLAR.0>
0

>  <SCORE.INTRA.REPUL>
0

>  <SCORE.INTRA.REPUL.0>
0

>  <SCORE.INTRA.SOLV>
2.34183

>  <SCORE.INTRA.SOLV.lig_0>
-32.0553

>  <SCORE.INTRA.VDW>
0.664074

>  <SCORE.INTRA.VDW.0>
-0.571921

>  <SCORE.INTRA.norm>
0.140306

>  <SCORE.RESTR>
0

>  <SCORE.RESTR.CAVITY>
0

>  <SCORE.RESTR.norm>
0

>  <SCORE.SYSTEM>
0

>  <SCORE.SYSTEM.CONST>
0

>  <SCORE.SYSTEM.DIHEDRAL>
0

>  <SCORE.SYSTEM.SOLV>
0

>  <SCORE.SYSTEM.norm>
0

>  <SCORE.heavy>
10

>  <SCORE.norm>
-0.879141

>  <RMSD>
5.303

$$$$
ligand
 OpenBabel11021811473D
libRbt.so/2013.1/901 2013/11/27
 10  9  0  0  0  0  0  0  0  0999 V2000
   25.8233   15.5630   19.9224 N   0  0  0  0  0  0  0  0  0  0  0  0
   27.2949   15.3774   20.0997 C   0  0  2  0  0  0  0  0  0  0  0  0
   27.8805   14.4757   19.0212 C   0  0  0  0  0  0  0  0  0  0  0  0
   27.1733   13.7094   18.3760 O   0  0  0  0  0  0  0  0  0  0  0  0
   27.6144   14.8377   21.4961 C   0  0  0  0  0  0  0  0  0  0  0  0
   29.1005   14.7879   21.8068 C   0  0  0  0  0  0  0  0  0  0  0  0
   29.7141   16.1819   21.8461 C   0  0  0  0  0  0  0  0  0  0  0  0
   31.2080   16.1041   22.1146 C   0  0  0  0  0  0  0  0  0  0  0  0
   31.8739   17.4549   22.0942 N   0  0  0  0  0  0  0  0  0  0  0  0
   29.0687   14.4954   18.7299 O   0  0  0  0  0  0  0  0  0  0  0  0
  2  1  1  6  0  0  0
  2  3  1  0  0  0  0
  2  5  1  0  0  0  0
  3  4  1  0  0  0  0
  3 10  1  0  0  0  0
  5  6  1  0  0  0  0
  6  7  1  0  0  0  0
  7  8  1  0  0  0  0
  8  9  1  0  0  0  0
M  END
>  <CHROM.1>
-20.20596613,-172.80594401,64.69965465,-178.20317484,177.11270018,28.68082816
15.27613575,20.51979045,2.41673173,-0.11776138,-2.04955233

>  <Name>
ligand

>  <RI>
0

>  <Rbt.Current_Directory>
/home/itssahil/PROJECTS/Mol_Feturizer/New_Systems/rnas/3DIZ

>  <Rbt.Executable>
rbdock ($Id: //depot/dev/client3/rdock/2013.1/src/exe/rbdock.cxx#4 $)

>  <Rbt.Library>
libRbt.so (2013.1, Build901 2013/11/27)

>  <Rbt.Parameter_File>
/export/apps/rDock/src/rDock_2013.1_src/data/scripts/dock_solv.prm

>  <Rbt.Receptor>
prm/pocket_docking_8.prm

>  <SCORE>
-9.29614

>  <SCORE.INTER>
-7.69853

>  <SCORE.INTER.CONST>
1

>  <SCORE.INTER.POLAR>
0

>  <SCORE.INTER.ROT>
5

>  <SCORE.INTER.SOLV>
17.2649

>  <SCORE.INTER.VDW>
-17.8206

>  <SCORE.INTER.norm>
-0.769853

>  <SCORE.INTRA>
-1.59761

>  <SCORE.INTRA.DIHEDRAL>
-1.78948

>  <SCORE.INTRA.DIHEDRAL.0>
3.67053

>  <SCORE.INTRA.POLAR>
0

>  <SCORE.INTRA.POLAR.0>
0

>  <SCORE.INTRA.REPUL>
0

>  <SCORE.INTRA.REPUL.0>
0

>  <SCORE.INTRA.SOLV>
-1.43097

>  <SCORE.INTRA.SOLV.lig_0>
-32.0553

>  <SCORE.INTRA.VDW>
0.0126153

>  <SCORE.INTRA.VDW.0>
-0.571921

>  <SCORE.INTRA.norm>
-0.159761

>  <SCORE.RESTR>
0

>  <SCORE.RESTR.CAVITY>
0

>  <SCORE.RESTR.norm>
0

>  <SCORE.SYSTEM>
0

>  <SCORE.SYSTEM.CONST>
0

>  <SCORE.SYSTEM.DIHEDRAL>
0

>  <SCORE.SYSTEM.SOLV>
0

>  <SCORE.SYSTEM.norm>
0

>  <SCORE.heavy>
10

>  <SCORE.norm>
-0.929614

>  <RMSD>
5.303

$$$$
ligand
 OpenBabel11021811473D
libRbt.so/2013.1/901 2013/11/27
 10  9  0  0  0  0  0  0  0  0999 V2000
   28.5934   14.2526   19.1187 N   0  0  0  0  0  0  0  0  0  0  0  0
   28.1361   14.4147   20.5316 C   0  0  2  0  0  0  0  0  0  0  0  0
   26.7395   15.0177   20.6035 C   0  0  0  0  0  0  0  0  0  0  0  0
   25.9321   14.6591   21.4538 O   0  0  0  0  0  0  0  0  0  0  0  0
   29.1341   15.2498   21.3377 C   0  0  0  0  0  0  0  0  0  0  0  0
   29.3605   16.6426   20.7752 C   0  0  0  0  0  0  0  0  0  0  0  0
   30.4518   17.3859   21.5356 C   0  0  0  0  0  0  0  0  0  0  0  0
   31.8197   16.8057   21.2160 C   0  0  0  0  0  0  0  0  0  0  0  0
   32.9416   17.5627   21.8772 N   0  0  0  0  0  0  0  0  0  0  0  0
   26.3714   15.9016   19.8417 O   0  0  0  0  0  0  0  0  0  0  0  0
  2  1  1  6  0  0  0
  2  3  1  0  0  0  0
  2  5  1  0  0  0  0
  3  4  1  0  0  0  0
  3 10  1  0  0  0  0
  5  6  1  0  0  0  0
  6  7  1  0  0  0  0
  7  8  1  0  0  0  0
  8  9  1  0  0  0  0
M  END
>  <CHROM.1>
143.00426558,59.00572996,-174.82808779,72.00531783,176.39884594,28.90666070
15.79582022,20.82946633,-2.70427714,0.12302954,0.68633525

>  <Name>
ligand

>  <RI>
0

>  <Rbt.Current_Directory>
/home/itssahil/PROJECTS/Mol_Feturizer/New_Systems/rnas/3DIZ

>  <Rbt.Executable>
rbdock ($Id: //depot/dev/client3/rdock/2013.1/src/exe/rbdock.cxx#4 $)

>  <Rbt.Library>
libRbt.so (2013.1, Build901 2013/11/27)

>  <Rbt.Parameter_File>
/export/apps/rDock/src/rDock_2013.1_src/data/scripts/dock_solv.prm

>  <Rbt.Receptor>
prm/pocket_docking_7.prm

>  <SCORE>
-9.2281

>  <SCORE.INTER>
-8.56192

>  <SCORE.INTER.CONST>
1

>  <SCORE.INTER.POLAR>
0

>  <SCORE.INTER.ROT>
5

>  <SCORE.INTER.SOLV>
13.9874

>  <SCORE.INTER.VDW>
-17.3038

>  <SCORE.INTER.norm>
-0.856192

>  <SCORE.INTRA>
-0.666171

>  <SCORE.INTRA.DIHEDRAL>
-1.47234

>  <SCORE.INTRA.DIHEDRAL.0>
3.67053

>  <SCORE.INTRA.POLAR>
0

>  <SCORE.INTRA.POLAR.0>
0

>  <SCORE.INTRA.REPUL>
0

>  <SCORE.INTRA.REPUL.0>
0

>  <SCORE.INTRA.SOLV>
-0.542437

>  <SCORE.INTRA.SOLV.lig_0>
-32.0553

>  <SCORE.INTRA.VDW>
0.341216

>  <SCORE.INTRA.VDW.0>
-0.571921

>  <SCORE.INTRA.norm>
-0.0666171

>  <SCORE.RESTR>
0

>  <SCORE.RESTR.CAVITY>
0

>  <SCORE.RESTR.norm>
0

>  <SCORE.SYSTEM>
0

>  <SCORE.SYSTEM.CONST>
0

>  <SCORE.SYSTEM.DIHEDRAL>
0

>  <SCORE.SYSTEM.SOLV>
0

>  <SCORE.SYSTEM.norm>
0

>  <SCORE.heavy>
10

>  <SCORE.norm>
-0.92281

>  <RMSD>
5.304

$$$$
ligand
 OpenBabel11021811473D
libRbt.so/2013.1/901 2013/11/27
 10  9  0  0  0  0  0  0  0  0999 V2000
   27.3739   13.9248   18.6603 N   0  0  0  0  0  0  0  0  0  0  0  0
   27.8438   14.8066   19.7707 C   0  0  2  0  0  0  0  0  0  0  0  0
   26.7961   14.9328   20.8686 C   0  0  0  0  0  0  0  0  0  0  0  0
   27.1147   15.0011   22.0507 O   0  0  0  0  0  0  0  0  0  0  0  0
   28.2495   16.1845   19.2414 C   0  0  0  0  0  0  0  0  0  0  0  0
   28.8946   17.0759   20.2886 C   0  0  0  0  0  0  0  0  0  0  0  0
   30.2735   16.5664   20.6891 C   0  0  0  0  0  0  0  0  0  0  0  0
   30.9172   17.4983   21.7026 C   0  0  0  0  0  0  0  0  0  0  0  0
   32.3197   17.0850   22.0643 N   0  0  0  0  0  0  0  0  0  0  0  0
   25.5995   15.0015   20.6225 O   0  0  0  0  0  0  0  0  0  0  0  0
  2  1  1  6  0  0  0
  2  3  1  0  0  0  0
  2  5  1  0  0  0  0
  3  4  1  0  0  0  0
  3 10  1  0  0  0  0
  5  6  1  0  0  0  0
  6  7  1  0  0  0  0
  7  8  1  0  0  0  0
  8  9  1  0  0  0  0
M  END
>  <CHROM.1>
143.67080205,-173.01619507,69.30652073,178.13434293,-176.31953208,28.50674684
15.80487655,20.61865167,-2.80110283,0.42960207,1.37014644

>  <Name>
ligand

>  <RI>
0

>  <Rbt.Current_Directory>
/home/itssahil/PROJECTS/Mol_Feturizer/New_Systems/rnas/3DIZ

>  <Rbt.Executable>
rbdock ($Id: //depot/dev/client3/rdock/2013.1/src/exe/rbdock.cxx#4 $)

>  <Rbt.Library>
libRbt.so (2013.1, Build901 2013/11/27)

>  <Rbt.Parameter_File>
/export/apps/rDock/src/rDock_2013.1_src/data/scripts/dock_solv.prm

>  <Rbt.Receptor>
prm/pocket_docking_2.prm

>  <SCORE>
-10.3845

>  <SCORE.INTER>
-8.64404

>  <SCORE.INTER.CONST>
1

>  <SCORE.INTER.POLAR>
0

>  <SCORE.INTER.ROT>
5

>  <SCORE.INTER.SOLV>
15.6296

>  <SCORE.INTER.VDW>
-17.9059

>  <SCORE.INTER.norm>
-0.864404

>  <SCORE.INTRA>
-1.74047

>  <SCORE.INTRA.DIHEDRAL>
-1.62817

>  <SCORE.INTRA.DIHEDRAL.0>
3.67053

>  <SCORE.INTRA.POLAR>
0

>  <SCORE.INTRA.POLAR.0>
0

>  <SCORE.INTRA.REPUL>
0

>  <SCORE.INTRA.REPUL.0>
0

>  <SCORE.INTRA.SOLV>
-1.47757

>  <SCORE.INTRA.SOLV.lig_0>
-32.0553

>  <SCORE.INTRA.VDW>
-0.187603

>  <SCORE.INTRA.VDW.0>
-0.571921

>  <SCORE.INTRA.norm>
-0.174047

>  <SCORE.RESTR>
0

>  <SCORE.RESTR.CAVITY>
0

>  <SCORE.RESTR.norm>
0

>  <SCORE.SYSTEM>
0

>  <SCORE.SYSTEM.CONST>
0

>  <SCORE.SYSTEM.DIHEDRAL>
0

>  <SCORE.SYSTEM.SOLV>
0

>  <SCORE.SYSTEM.norm>
0

>  <SCORE.heavy>
10

>  <SCORE.norm>
-1.03845

>  <RMSD>
5.305

$$$$
ligand
 OpenBabel11021811473D
libRbt.so/2013.1/901 2013/11/27
 10  9  0  0  0  0  0  0  0  0999 V2000
   28.5911   14.2697   19.1099 N   0  0  0  0  0  0  0  0  0  0  0  0
   28.1421   14.4226   20.5264 C   0  0  2  0  0  0  0  0  0  0  0  0
   26.7468   15.0268   20.6105 C   0  0  0  0  0  0  0  0  0  0  0  0
   26.3758   15.8893   19.8218 O   0  0  0  0  0  0  0  0  0  0  0  0
   29.1458   15.2507   21.3326 C   0  0  0  0  0  0  0  0  0  0  0  0
   29.3646   16.6500   20.7834 C   0  0  0  0  0  0  0  0  0  0  0  0
   30.4572   17.3892   21.5458 C   0  0  0  0  0  0  0  0  0  0  0  0
   31.8248   16.8123   21.2187 C   0  0  0  0  0  0  0  0  0  0  0  0
   32.9469   17.5581   21.8921 N   0  0  0  0  0  0  0  0  0  0  0  0
   25.9277   14.6616   21.4427 O   0  0  0  0  0  0  0  0  0  0  0  0
  2  1  1  6  0  0  0
  2  3  1  0  0  0  0
  2  5  1  0  0  0  0
  3  4  1  0  0  0  0
  3 10  1  0  0  0  0
  5  6  1  0  0  0  0
  6  7  1  0  0  0  0
  7  8  1  0  0  0  0
  8  9  1  0  0  0  0
M  END
>  <CHROM.1>
-36.40132292,59.35562799,-175.06798903,71.71377970,176.92734681,28.91075870
15.79927452,20.82827243,-2.70460386,0.12713250,0.70239303

>  <Name>
ligand

>  <RI>
0

>  <Rbt.Current_Directory>
/home/itssahil/PROJECTS/Mol_Feturizer/New_Systems/rnas/3DIZ

>  <Rbt.Executable>
rbdock ($Id: //depot/dev/client3/rdock/2013.1/src/exe/rbdock.cxx#4 $)

>  <Rbt.Library>
libRbt.so (2013.1, Build901 2013/11/27)

>  <Rbt.Parameter_File>
/export/apps/rDock/src/rDock_2013.1_src/data/scripts/dock_solv.prm

>  <Rbt.Receptor>
prm/pocket_docking_3.prm

>  <SCORE>
-9.19544

>  <SCORE.INTER>
-8.57745

>  <SCORE.INTER.CONST>
1

>  <SCORE.INTER.POLAR>
0

>  <SCORE.INTER.ROT>
5

>  <SCORE.INTER.SOLV>
13.9494

>  <SCORE.INTER.VDW>
-17.3014

>  <SCORE.INTER.norm>
-0.857745

>  <SCORE.INTRA>
-0.617994

>  <SCORE.INTRA.DIHEDRAL>
-1.41411

>  <SCORE.INTRA.DIHEDRAL.0>
3.67053

>  <SCORE.INTRA.POLAR>
0

>  <SCORE.INTRA.POLAR.0>
0

>  <SCORE.INTRA.REPUL>
0

>  <SCORE.INTRA.REPUL.0>
0

>  <SCORE.INTRA.SOLV>
-0.53237

>  <SCORE.INTRA.SOLV.lig_0>
-32.0553

>  <SCORE.INTRA.VDW>
0.355248

>  <SCORE.INTRA.VDW.0>
-0.571921

>  <SCORE.INTRA.norm>
-0.0617994

>  <SCORE.RESTR>
0

>  <SCORE.RESTR.CAVITY>
0

>  <SCORE.RESTR.norm>
0

>  <SCORE.SYSTEM>
0

>  <SCORE.SYSTEM.CONST>
0

>  <SCORE.SYSTEM.DIHEDRAL>
0

>  <SCORE.SYSTEM.SOLV>
0

>  <SCORE.SYSTEM.norm>
0

>  <SCORE.heavy>
10

>  <SCORE.norm>
-0.919544

>  <RMSD>
5.305

$$$$
ligand
 OpenBabel11021811473D
libRbt.so/2013.1/901 2013/11/27
 10  9  0  0  0  0  0  0  0  0999 V2000
   28.0859   14.6243   18.8854 N   0  0  0  0  0  0  0  0  0  0  0  0
   28.3082   14.7584   20.3564 C   0  0  2  0  0  0  0  0  0  0  0  0
   27.0157   15.0882   21.0912 C   0  0  0  0  0  0  0  0  0  0  0  0
   25.9571   15.2306   20.4890 O   0  0  0  0  0  0  0  0  0  0  0  0
   29.3878   15.8019   20.6542 C   0  0  0  0  0  0  0  0  0  0  0  0
   30.7828   15.3765   20.2293 C   0  0  0  0  0  0  0  0  0  0  0  0
   31.7912   16.5061   20.3980 C   0  0  0  0  0  0  0  0  0  0  0  0
   32.0307   16.7972   21.8704 C   0  0  0  0  0  0  0  0  0  0  0  0
   32.9968   17.9319   22.0894 N   0  0  0  0  0  0  0  0  0  0  0  0
   26.9679   15.1960   22.3091 O   0  0  0  0  0  0  0  0  0  0  0  0
  2  1  1  6  0  0  0
  2  3  1  0  0  0  0
  2  5  1  0  0  0  0
  3  4  1  0  0  0  0
  3 10  1  0  0  0  0
  5  6  1  0  0  0  0
  6  7  1  0  0  0  0
  7  8  1  0  0  0  0
  8  9  1  0  0  0  0
M  END
>  <CHROM.1>
-0.85756506,-68.89431534,173.42674053,69.08187057,-178.58142016,29.29225234
15.73263038,20.85283706,-2.88241916,0.27938705,1.15142749

>  <Name>
ligand

>  <RI>
0

>  <Rbt.Current_Directory>
/home/itssahil/PROJECTS/Mol_Feturizer/New_Systems/rnas/3DIZ

>  <Rbt.Executable>
rbdock ($Id: //depot/dev/client3/rdock/2013.1/src/exe/rbdock.cxx#4 $)

>  <Rbt.Library>
libRbt.so (2013.1, Build901 2013/11/27)

>  <Rbt.Parameter_File>
/export/apps/rDock/src/rDock_2013.1_src/data/scripts/dock_solv.prm

>  <Rbt.Receptor>
prm/pocket_docking_5.prm

>  <SCORE>
-9.23494

>  <SCORE.INTER>
-8.76327

>  <SCORE.INTER.CONST>
1

>  <SCORE.INTER.POLAR>
0

>  <SCORE.INTER.ROT>
5

>  <SCORE.INTER.SOLV>
13.1973

>  <SCORE.INTER.VDW>
-17.1746

>  <SCORE.INTER.norm>
-0.876327

>  <SCORE.INTRA>
-0.471667

>  <SCORE.INTRA.DIHEDRAL>
-1.30804

>  <SCORE.INTRA.DIHEDRAL.0>
3.67053

>  <SCORE.INTRA.POLAR>
0

>  <SCORE.INTRA.POLAR.0>
0

>  <SCORE.INTRA.REPUL>
0

>  <SCORE.INTRA.REPUL.0>
0

>  <SCORE.INTRA.SOLV>
-0.647782

>  <SCORE.INTRA.SOLV.lig_0>
-32.0553

>  <SCORE.INTRA.VDW>
0.506244

>  <SCORE.INTRA.VDW.0>
-0.571921

>  <SCORE.INTRA.norm>
-0.0471667

>  <SCORE.RESTR>
0

>  <SCORE.RESTR.CAVITY>
0

>  <SCORE.RESTR.norm>
0

>  <SCORE.SYSTEM>
0

>  <SCORE.SYSTEM.CONST>
0

>  <SCORE.SYSTEM.DIHEDRAL>
0

>  <SCORE.SYSTEM.SOLV>
0

>  <SCORE.SYSTEM.norm>
0

>  <SCORE.heavy>
10

>  <SCORE.norm>
-0.923494

>  <RMSD>
5.306

$$$$
ligand
 OpenBabel11021811473D
libRbt.so/2013.1/901 2013/11/27
 10  9  0  0  0  0  0  0  0  0999 V2000
   28.0960   14.6064   18.8670 N   0  0  0  0  0  0  0  0  0  0  0  0
   28.3055   14.7506   20.3390 C   0  0  2  0  0  0  0  0  0  0  0  0
   27.0060   15.0816   21.0608 C   0  0  0  0  0  0  0  0  0  0  0  0
   25.9452   15.1791   20.4536 O   0  0  0  0  0  0  0  0  0  0  0  0
   29.3797   15.7991   20.6390 C   0  0  0  0  0  0  0  0  0  0  0  0
   30.7752   15.3864   20.2035 C   0  0  0  0  0  0  0  0  0  0  0  0
   31.7805   16.5156   20.3923 C   0  0  0  0  0  0  0  0  0  0  0  0
   32.0390   16.7634   21.8694 C   0  0  0  0  0  0  0  0  0  0  0  0
   32.9973   17.9004   22.1096 N   0  0  0  0  0  0  0  0  0  0  0  0
   26.9551   15.2347   22.2736 O   0  0  0  0  0  0  0  0  0  0  0  0
  2  1  1  6  0  0  0
  2  3  1  0  0  0  0
  2  5  1  0  0  0  0
  3  4  1  0  0  0  0
  3 10  1  0  0  0  0
  5  6  1  0  0  0  0
  6  7  1  0  0  0  0
  7  8  1  0  0  0  0
  8  9  1  0  0  0  0
M  END
>  <CHROM.1>
1.27191880,-67.74139163,174.16499455,70.01184059,-178.29408032,29.28761244
15.72327056,20.83608619,-2.87654871,0.27515134,1.14989744

>  <Name>
ligand

>  <RI>
0

>  <Rbt.Current_Directory>
/home/itssahil/PROJECTS/Mol_Feturizer/New_Systems/rnas/3DIZ

>  <Rbt.Executable>
rbdock ($Id: //depot/dev/client3/rdock/2013.1/src/exe/rbdock.cxx#4 $)

>  <Rbt.Library>
libRbt.so (2013.1, Build901 2013/11/27)

>  <Rbt.Parameter_File>
/export/apps/rDock/src/rDock_2013.1_src/data/scripts/dock_solv.prm

>  <Rbt.Receptor>
prm/pocket_docking_5.prm

>  <SCORE>
-9.25446

>  <SCORE.INTER>
-8.75529

>  <SCORE.INTER.CONST>
1

>  <SCORE.INTER.POLAR>
0

>  <SCORE.INTER.ROT>
5

>  <SCORE.INTER.SOLV>
13.2705

>  <SCORE.INTER.VDW>
-17.1937

>  <SCORE.INTER.norm>
-0.875529

>  <SCORE.INTRA>
-0.499165

>  <SCORE.INTRA.DIHEDRAL>
-1.35349

>  <SCORE.INTRA.DIHEDRAL.0>
3.67053

>  <SCORE.INTRA.POLAR>
0

>  <SCORE.INTRA.POLAR.0>
0

>  <SCORE.INTRA.REPUL>
0

>  <SCORE.INTRA.REPUL.0>
0

>  <SCORE.INTRA.SOLV>
-0.641489

>  <SCORE.INTRA.SOLV.lig_0>
-32.0553

>  <SCORE.INTRA.VDW>
0.498324

>  <SCORE.INTRA.VDW.0>
-0.571921

>  <SCORE.INTRA.norm>
-0.0499165

>  <SCORE.RESTR>
0

>  <SCORE.RESTR.CAVITY>
0

>  <SCORE.RESTR.norm>
0

>  <SCORE.SYSTEM>
0

>  <SCORE.SYSTEM.CONST>
0

>  <SCORE.SYSTEM.DIHEDRAL>
0

>  <SCORE.SYSTEM.SOLV>
0

>  <SCORE.SYSTEM.norm>
0

>  <SCORE.heavy>
10

>  <SCORE.norm>
-0.925446

>  <RMSD>
5.311

$$$$
ligand
 OpenBabel11021811473D
libRbt.so/2013.1/901 2013/11/27
 10  9  0  0  0  0  0  0  0  0999 V2000
   27.4652   14.4860   18.7855 N   0  0  0  0  0  0  0  0  0  0  0  0
   27.9162   14.5391   20.2086 C   0  0  2  0  0  0  0  0  0  0  0  0
   26.7689   14.8860   21.1481 C   0  0  0  0  0  0  0  0  0  0  0  0
   26.9700   15.1726   22.3232 O   0  0  0  0  0  0  0  0  0  0  0  0
   29.0778   15.5214   20.3786 C   0  0  0  0  0  0  0  0  0  0  0  0
   29.8638   15.3221   21.6631 C   0  0  0  0  0  0  0  0  0  0  0  0
   30.9658   16.3631   21.8156 C   0  0  0  0  0  0  0  0  0  0  0  0
   32.0024   16.2136   20.7142 C   0  0  0  0  0  0  0  0  0  0  0  0
   33.1404   17.1910   20.8497 N   0  0  0  0  0  0  0  0  0  0  0  0
   25.6058   14.9238   20.7699 O   0  0  0  0  0  0  0  0  0  0  0  0
  2  1  1  6  0  0  0
  2  3  1  0  0  0  0
  2  5  1  0  0  0  0
  3  4  1  0  0  0  0
  3 10  1  0  0  0  0
  5  6  1  0  0  0  0
  6  7  1  0  0  0  0
  7  8  1  0  0  0  0
  8  9  1  0  0  0  0
M  END
>  <CHROM.1>
-168.97843698,-162.03065262,-177.34375217,-64.26233262,-177.96478540,28.94118601
15.46500339,20.88565750,-3.01694267,0.28742132,1.33942734

>  <Name>
ligand

>  <RI>
0

>  <Rbt.Current_Directory>
/home/itssahil/PROJECTS/Mol_Feturizer/New_Systems/rnas/3DIZ

>  <Rbt.Executable>
rbdock ($Id: //depot/dev/client3/rdock/2013.1/src/exe/rbdock.cxx#4 $)

>  <Rbt.Library>
libRbt.so (2013.1, Build901 2013/11/27)

>  <Rbt.Parameter_File>
/export/apps/rDock/src/rDock_2013.1_src/data/scripts/dock_solv.prm

>  <Rbt.Receptor>
prm/pocket_docking_7.prm

>  <SCORE>
-9.29416

>  <SCORE.INTER>
-9.16414

>  <SCORE.INTER.CONST>
1

>  <SCORE.INTER.POLAR>
0

>  <SCORE.INTER.ROT>
5

>  <SCORE.INTER.SOLV>
15.3679

>  <SCORE.INTER.VDW>
-18.1654

>  <SCORE.INTER.norm>
-0.916414

>  <SCORE.INTRA>
-0.130011

>  <SCORE.INTRA.DIHEDRAL>
-0.870562

>  <SCORE.INTRA.DIHEDRAL.0>
3.67053

>  <SCORE.INTRA.POLAR>
0

>  <SCORE.INTRA.POLAR.0>
0

>  <SCORE.INTRA.REPUL>
0

>  <SCORE.INTRA.REPUL.0>
0

>  <SCORE.INTRA.SOLV>
-1.44377

>  <SCORE.INTRA.SOLV.lig_0>
-32.0553

>  <SCORE.INTRA.VDW>
1.02716

>  <SCORE.INTRA.VDW.0>
-0.571921

>  <SCORE.INTRA.norm>
-0.0130011

>  <SCORE.RESTR>
0

>  <SCORE.RESTR.CAVITY>
0

>  <SCORE.RESTR.norm>
0

>  <SCORE.SYSTEM>
0

>  <SCORE.SYSTEM.CONST>
0

>  <SCORE.SYSTEM.DIHEDRAL>
0

>  <SCORE.SYSTEM.SOLV>
0

>  <SCORE.SYSTEM.norm>
0

>  <SCORE.heavy>
10

>  <SCORE.norm>
-0.929416

>  <RMSD>
5.311

$$$$
ligand
 OpenBabel11021811473D
libRbt.so/2013.1/901 2013/11/27
 10  9  0  0  0  0  0  0  0  0999 V2000
   27.0974   13.7678   18.7668 N   0  0  0  0  0  0  0  0  0  0  0  0
   27.6865   14.6797   19.7929 C   0  0  2  0  0  0  0  0  0  0  0  0
   26.7608   14.8494   20.9901 C   0  0  0  0  0  0  0  0  0  0  0  0
   27.2021   15.0739   22.1119 O   0  0  0  0  0  0  0  0  0  0  0  0
   28.0419   16.0367   19.1801 C   0  0  0  0  0  0  0  0  0  0  0  0
   28.6915   16.9986   20.1600 C   0  0  0  0  0  0  0  0  0  0  0  0
   30.0814   16.5293   20.5714 C   0  0  0  0  0  0  0  0  0  0  0  0
   30.6877   17.4766   21.5937 C   0  0  0  0  0  0  0  0  0  0  0  0
   32.0906   17.0913   21.9836 N   0  0  0  0  0  0  0  0  0  0  0  0
   25.5429   14.8000   20.8842 O   0  0  0  0  0  0  0  0  0  0  0  0
  2  1  1  6  0  0  0
  2  3  1  0  0  0  0
  2  5  1  0  0  0  0
  3  4  1  0  0  0  0
  3 10  1  0  0  0  0
  5  6  1  0  0  0  0
  6  7  1  0  0  0  0
  7  8  1  0  0  0  0
  8  9  1  0  0  0  0
M  END
>  <CHROM.1>
150.42741512,-177.99850560,68.05149626,-177.70419041,-177.25178169,28.35982598
15.72833653,20.62880334,-2.83032308,0.47548062,1.39240236

>  <Name>
ligand

>  <RI>
0

>  <Rbt.Current_Directory>
/home/itssahil/PROJECTS/Mol_Feturizer/New_Systems/rnas/3DIZ

>  <Rbt.Executable>
rbdock ($Id: //depot/dev/client3/rdock/2013.1/src/exe/rbdock.cxx#4 $)

>  <Rbt.Library>
libRbt.so (2013.1, Build901 2013/11/27)

>  <Rbt.Parameter_File>
/export/apps/rDock/src/rDock_2013.1_src/data/scripts/dock_solv.prm

>  <Rbt.Receptor>
prm/pocket_docking_5.prm

>  <SCORE>
-10.7075

>  <SCORE.INTER>
-8.96861

>  <SCORE.INTER.CONST>
1

>  <SCORE.INTER.POLAR>
0

>  <SCORE.INTER.ROT>
5

>  <SCORE.INTER.SOLV>
15.8438

>  <SCORE.INTER.VDW>
-18.1937

>  <SCORE.INTER.norm>
-0.896861

>  <SCORE.INTRA>
-1.73891

>  <SCORE.INTRA.DIHEDRAL>
-1.90003

>  <SCORE.INTRA.DIHEDRAL.0>
3.67053

>  <SCORE.INTRA.POLAR>
0

>  <SCORE.INTRA.POLAR.0>
0

>  <SCORE.INTRA.REPUL>
0

>  <SCORE.INTRA.REPUL.0>
0

>  <SCORE.INTRA.SOLV>
-1.50057

>  <SCORE.INTRA.SOLV.lig_0>
-32.0553

>  <SCORE.INTRA.VDW>
-0.0386144

>  <SCORE.INTRA.VDW.0>
-0.571921

>  <SCORE.INTRA.norm>
-0.173891

>  <SCORE.RESTR>
0

>  <SCORE.RESTR.CAVITY>
0

>  <SCORE.RESTR.norm>
0

>  <SCORE.SYSTEM>
0

>  <SCORE.SYSTEM.CONST>
0

>  <SCORE.SYSTEM.DIHEDRAL>
0

>  <SCORE.SYSTEM.SOLV>
0

>  <SCORE.SYSTEM.norm>
0

>  <SCORE.heavy>
10

>  <SCORE.norm>
-1.07075

>  <RMSD>
5.312

$$$$
ligand
 OpenBabel11021811473D
libRbt.so/2013.1/901 2013/11/27
 10  9  0  0  0  0  0  0  0  0999 V2000
   27.1316   13.8548   18.7693 N   0  0  0  0  0  0  0  0  0  0  0  0
   27.6993   14.7468   19.8245 C   0  0  2  0  0  0  0  0  0  0  0  0
   26.7389   14.9130   20.9947 C   0  0  0  0  0  0  0  0  0  0  0  0
   27.1469   15.1423   22.1281 O   0  0  0  0  0  0  0  0  0  0  0  0
   28.0894   16.1067   19.2402 C   0  0  0  0  0  0  0  0  0  0  0  0
   28.7675   17.0291   20.2386 C   0  0  0  0  0  0  0  0  0  0  0  0
   30.1331   16.4986   20.6572 C   0  0  0  0  0  0  0  0  0  0  0  0
   30.7817   17.4256   21.6721 C   0  0  0  0  0  0  0  0  0  0  0  0
   32.1741   16.9923   22.0492 N   0  0  0  0  0  0  0  0  0  0  0  0
   25.5248   14.8558   20.8544 O   0  0  0  0  0  0  0  0  0  0  0  0
  2  1  1  6  0  0  0
  2  3  1  0  0  0  0
  2  5  1  0  0  0  0
  3  4  1  0  0  0  0
  3 10  1  0  0  0  0
  5  6  1  0  0  0  0
  6  7  1  0  0  0  0
  7  8  1  0  0  0  0
  8  9  1  0  0  0  0
M  END
>  <CHROM.1>
151.76403957,-175.79846320,66.85655858,-179.08329898,-176.18648288,28.38927794
15.75467154,20.66740956,-2.82405933,0.43946451,1.38581472

>  <Name>
ligand

>  <RI>
0

>  <Rbt.Current_Directory>
/home/itssahil/PROJECTS/Mol_Feturizer/New_Systems/rnas/3DIZ

>  <Rbt.Executable>
rbdock ($Id: //depot/dev/client3/rdock/2013.1/src/exe/rbdock.cxx#4 $)

>  <Rbt.Library>
libRbt.so (2013.1, Build901 2013/11/27)

>  <Rbt.Parameter_File>
/export/apps/rDock/src/rDock_2013.1_src/data/scripts/dock_solv.prm

>  <Rbt.Receptor>
prm/pocket_docking_6.prm

>  <SCORE>
-10.7316

>  <SCORE.INTER>
-8.98398

>  <SCORE.INTER.CONST>
1

>  <SCORE.INTER.POLAR>
0

>  <SCORE.INTER.ROT>
5

>  <SCORE.INTER.SOLV>
15.9701

>  <SCORE.INTER.VDW>
-18.246

>  <SCORE.INTER.norm>
-0.898398

>  <SCORE.INTRA>
-1.7476

>  <SCORE.INTRA.DIHEDRAL>
-1.91658

>  <SCORE.INTRA.DIHEDRAL.0>
3.67053

>  <SCORE.INTRA.POLAR>
0

>  <SCORE.INTRA.POLAR.0>
0

>  <SCORE.INTRA.REPUL>
0

>  <SCORE.INTRA.REPUL.0>
0

>  <SCORE.INTRA.SOLV>
-1.47944

>  <SCORE.INTRA.SOLV.lig_0>
-32.0553

>  <SCORE.INTRA.VDW>
-0.049593

>  <SCORE.INTRA.VDW.0>
-0.571921

>  <SCORE.INTRA.norm>
-0.17476

>  <SCORE.RESTR>
0

>  <SCORE.RESTR.CAVITY>
0

>  <SCORE.RESTR.norm>
0

>  <SCORE.SYSTEM>
0

>  <SCORE.SYSTEM.CONST>
0

>  <SCORE.SYSTEM.DIHEDRAL>
0

>  <SCORE.SYSTEM.SOLV>
0

>  <SCORE.SYSTEM.norm>
0

>  <SCORE.heavy>
10

>  <SCORE.norm>
-1.07316

>  <RMSD>
5.313

$$$$
ligand
 OpenBabel11021811473D
libRbt.so/2013.1/901 2013/11/27
 10  9  0  0  0  0  0  0  0  0999 V2000
   25.8236   14.7971   20.9696 N   0  0  0  0  0  0  0  0  0  0  0  0
   27.1776   15.3147   20.6084 C   0  0  2  0  0  0  0  0  0  0  0  0
   27.4738   15.1248   19.1268 C   0  0  0  0  0  0  0  0  0  0  0  0
   28.1136   15.9561   18.4918 O   0  0  0  0  0  0  0  0  0  0  0  0
   28.2611   14.6619   21.4705 C   0  0  0  0  0  0  0  0  0  0  0  0
   29.6618   15.1750   21.1837 C   0  0  0  0  0  0  0  0  0  0  0  0
   29.7844   16.6664   21.4705 C   0  0  0  0  0  0  0  0  0  0  0  0
   31.1465   17.1860   21.0408 C   0  0  0  0  0  0  0  0  0  0  0  0
   32.2760   16.5826   21.8339 N   0  0  0  0  0  0  0  0  0  0  0  0
   27.1161   14.1285   18.5132 O   0  0  0  0  0  0  0  0  0  0  0  0
  2  1  1  1  0  0  0
  2  3  1  0  0  0  0
  2  5  1  0  0  0  0
  3  4  1  0  0  0  0
  3 10  1  0  0  0  0
  5  6  1  0  0  0  0
  6  7  1  0  0  0  0
  7  8  1  0  0  0  0
  8  9  1  0  0  0  0
M  END
>  <CHROM.1>
143.89005221,-178.25032340,61.72378483,-174.09241471,-64.66783007,28.68148893
15.55277211,20.43385365,2.78687390,-0.42945976,-1.49140117

>  <Name>
ligand

>  <RI>
0

>  <Rbt.Current_Directory>
/home/itssahil/PROJECTS/Mol_Feturizer/New_Systems/rnas/3DIZ

>  <Rbt.Executable>
rbdock ($Id: //depot/dev/client3/rdock/2013.1/src/exe/rbdock.cxx#4 $)

>  <Rbt.Library>
libRbt.so (2013.1, Build901 2013/11/27)

>  <Rbt.Parameter_File>
/export/apps/rDock/src/rDock_2013.1_src/data/scripts/dock_solv.prm

>  <Rbt.Receptor>
prm/pocket_docking_6.prm

>  <SCORE>
-8.12026

>  <SCORE.INTER>
-6.95445

>  <SCORE.INTER.CONST>
1

>  <SCORE.INTER.POLAR>
0

>  <SCORE.INTER.ROT>
5

>  <SCORE.INTER.SOLV>
18.4527

>  <SCORE.INTER.VDW>
-17.7205

>  <SCORE.INTER.norm>
-0.695445

>  <SCORE.INTRA>
-1.16581

>  <SCORE.INTRA.DIHEDRAL>
-1.97722

>  <SCORE.INTRA.DIHEDRAL.0>
3.67053

>  <SCORE.INTRA.POLAR>
0

>  <SCORE.INTRA.POLAR.0>
0

>  <SCORE.INTRA.REPUL>
0

>  <SCORE.INTRA.REPUL.0>
0

>  <SCORE.INTRA.SOLV>
-0.584078

>  <SCORE.INTRA.SOLV.lig_0>
-32.0553

>  <SCORE.INTRA.VDW>
0.114834

>  <SCORE.INTRA.VDW.0>
-0.571921

>  <SCORE.INTRA.norm>
-0.116581

>  <SCORE.RESTR>
0

>  <SCORE.RESTR.CAVITY>
0

>  <SCORE.RESTR.norm>
0

>  <SCORE.SYSTEM>
0

>  <SCORE.SYSTEM.CONST>
0

>  <SCORE.SYSTEM.DIHEDRAL>
0

>  <SCORE.SYSTEM.SOLV>
0

>  <SCORE.SYSTEM.norm>
0

>  <SCORE.heavy>
10

>  <SCORE.norm>
-0.812026

>  <RMSD>
5.313

$$$$
ligand
 OpenBabel11021811473D
libRbt.so/2013.1/901 2013/11/27
 10  9  0  0  0  0  0  0  0  0999 V2000
   27.2726   14.0075   18.5934 N   0  0  0  0  0  0  0  0  0  0  0  0
   27.7951   14.8349   19.7220 C   0  0  2  0  0  0  0  0  0  0  0  0
   26.7804   14.9469   20.8520 C   0  0  0  0  0  0  0  0  0  0  0  0
   25.5765   15.0026   20.6261 O   0  0  0  0  0  0  0  0  0  0  0  0
   28.2233   16.2206   19.2326 C   0  0  0  0  0  0  0  0  0  0  0  0
   28.8697   17.0761   20.3086 C   0  0  0  0  0  0  0  0  0  0  0  0
   30.2472   16.5508   20.6931 C   0  0  0  0  0  0  0  0  0  0  0  0
   30.9092   17.4699   21.7065 C   0  0  0  0  0  0  0  0  0  0  0  0
   32.2871   17.0057   22.0999 N   0  0  0  0  0  0  0  0  0  0  0  0
   27.1144   14.9563   22.0291 O   0  0  0  0  0  0  0  0  0  0  0  0
  2  1  1  6  0  0  0
  2  3  1  0  0  0  0
  2  5  1  0  0  0  0
  3  4  1  0  0  0  0
  3 10  1  0  0  0  0
  5  6  1  0  0  0  0
  6  7  1  0  0  0  0
  7  8  1  0  0  0  0
  8  9  1  0  0  0  0
M  END
>  <CHROM.1>
-35.10201695,-175.31391961,70.18102063,176.48552835,-178.94095865,28.47649536
15.80330952,20.60950085,-2.81490078,0.43355817,1.42674360

>  <Name>
ligand

>  <RI>
0

>  <Rbt.Current_Directory>
/home/itssahil/PROJECTS/Mol_Feturizer/New_Systems/rnas/3DIZ

>  <Rbt.Executable>
rbdock ($Id: //depot/dev/client3/rdock/2013.1/src/exe/rbdock.cxx#4 $)

>  <Rbt.Library>
libRbt.so (2013.1, Build901 2013/11/27)

>  <Rbt.Parameter_File>
/export/apps/rDock/src/rDock_2013.1_src/data/scripts/dock_solv.prm

>  <Rbt.Receptor>
prm/pocket_docking_2.prm

>  <SCORE>
-10.3418

>  <SCORE.INTER>
-8.67803

>  <SCORE.INTER.CONST>
1

>  <SCORE.INTER.POLAR>
0

>  <SCORE.INTER.ROT>
5

>  <SCORE.INTER.SOLV>
15.886

>  <SCORE.INTER.VDW>
-18.014

>  <SCORE.INTER.norm>
-0.867803

>  <SCORE.INTRA>
-1.67231

>  <SCORE.INTRA.DIHEDRAL>
-1.55438

>  <SCORE.INTRA.DIHEDRAL.0>
3.67053

>  <SCORE.INTRA.POLAR>
0

>  <SCORE.INTRA.POLAR.0>
0

>  <SCORE.INTRA.REPUL>
0

>  <SCORE.INTRA.REPUL.0>
0

>  <SCORE.INTRA.SOLV>
-1.48451

>  <SCORE.INTRA.SOLV.lig_0>
-32.0553

>  <SCORE.INTRA.VDW>
-0.152863

>  <SCORE.INTRA.VDW.0>
-0.571921

>  <SCORE.INTRA.norm>
-0.167231

>  <SCORE.RESTR>
0.00849646

>  <SCORE.RESTR.CAVITY>
0.00849646

>  <SCORE.RESTR.norm>
0.000849646

>  <SCORE.SYSTEM>
0

>  <SCORE.SYSTEM.CONST>
0

>  <SCORE.SYSTEM.DIHEDRAL>
0

>  <SCORE.SYSTEM.SOLV>
0

>  <SCORE.SYSTEM.norm>
0

>  <SCORE.heavy>
10

>  <SCORE.norm>
-1.03418

>  <RMSD>
5.314

$$$$
ligand
 OpenBabel11021811473D
libRbt.so/2013.1/901 2013/11/27
 10  9  0  0  0  0  0  0  0  0999 V2000
   27.1269   13.8292   18.7831 N   0  0  0  0  0  0  0  0  0  0  0  0
   27.6915   14.7394   19.8244 C   0  0  2  0  0  0  0  0  0  0  0  0
   26.7310   14.9196   20.9923 C   0  0  0  0  0  0  0  0  0  0  0  0
   27.1394   15.1501   22.1253 O   0  0  0  0  0  0  0  0  0  0  0  0
   28.0758   16.0919   19.2191 C   0  0  0  0  0  0  0  0  0  0  0  0
   28.7296   17.0408   20.2089 C   0  0  0  0  0  0  0  0  0  0  0  0
   30.0911   16.5295   20.6631 C   0  0  0  0  0  0  0  0  0  0  0  0
   30.7189   17.4875   21.6622 C   0  0  0  0  0  0  0  0  0  0  0  0
   32.1024   17.0656   22.0825 N   0  0  0  0  0  0  0  0  0  0  0  0
   25.5166   14.8730   20.8504 O   0  0  0  0  0  0  0  0  0  0  0  0
  2  1  1  6  0  0  0
  2  3  1  0  0  0  0
  2  5  1  0  0  0  0
  3  4  1  0  0  0  0
  3 10  1  0  0  0  0
  5  6  1  0  0  0  0
  6  7  1  0  0  0  0
  7  8  1  0  0  0  0
  8  9  1  0  0  0  0
M  END
>  <CHROM.1>
150.77347881,-176.76446922,66.54622337,-179.43888651,-176.72275815,28.36300289
15.77102374,20.66568934,-2.81189128,0.45161236,1.37570441

>  <Name>
ligand

>  <RI>
0

>  <Rbt.Current_Directory>
/home/itssahil/PROJECTS/Mol_Feturizer/New_Systems/rnas/3DIZ

>  <Rbt.Executable>
rbdock ($Id: //depot/dev/client3/rdock/2013.1/src/exe/rbdock.cxx#4 $)

>  <Rbt.Library>
libRbt.so (2013.1, Build901 2013/11/27)

>  <Rbt.Parameter_File>
/export/apps/rDock/src/rDock_2013.1_src/data/scripts/dock_solv.prm

>  <Rbt.Receptor>
prm/pocket_docking_3.prm

>  <SCORE>
-10.679

>  <SCORE.INTER>
-8.91447

>  <SCORE.INTER.CONST>
1

>  <SCORE.INTER.POLAR>
0

>  <SCORE.INTER.ROT>
5

>  <SCORE.INTER.SOLV>
15.8418

>  <SCORE.INTER.VDW>
-18.1569

>  <SCORE.INTER.norm>
-0.891447

>  <SCORE.INTRA>
-1.76448

>  <SCORE.INTRA.DIHEDRAL>
-1.97613

>  <SCORE.INTRA.DIHEDRAL.0>
3.67053

>  <SCORE.INTRA.POLAR>
0

>  <SCORE.INTRA.POLAR.0>
0

>  <SCORE.INTRA.REPUL>
0

>  <SCORE.INTRA.REPUL.0>
0

>  <SCORE.INTRA.SOLV>
-1.48499

>  <SCORE.INTRA.SOLV.lig_0>
-32.0553

>  <SCORE.INTRA.VDW>
-0.0339243

>  <SCORE.INTRA.VDW.0>
-0.571921

>  <SCORE.INTRA.norm>
-0.176448

>  <SCORE.RESTR>
0

>  <SCORE.RESTR.CAVITY>
0

>  <SCORE.RESTR.norm>
0

>  <SCORE.SYSTEM>
0

>  <SCORE.SYSTEM.CONST>
0

>  <SCORE.SYSTEM.DIHEDRAL>
0

>  <SCORE.SYSTEM.SOLV>
0

>  <SCORE.SYSTEM.norm>
0

>  <SCORE.heavy>
10

>  <SCORE.norm>
-1.0679

>  <RMSD>
5.316

$$$$
ligand
 OpenBabel11021811473D
libRbt.so/2013.1/901 2013/11/27
 10  9  0  0  0  0  0  0  0  0999 V2000
   28.7438   15.2178   19.1440 N   0  0  0  0  0  0  0  0  0  0  0  0
   28.2545   14.9756   20.5345 C   0  0  2  0  0  0  0  0  0  0  0  0
   26.7377   15.0798   20.6215 C   0  0  0  0  0  0  0  0  0  0  0  0
   26.1197   14.6206   21.5758 O   0  0  0  0  0  0  0  0  0  0  0  0
   28.9256   15.9302   21.5252 C   0  0  0  0  0  0  0  0  0  0  0  0
   30.4402   15.8171   21.5526 C   0  0  0  0  0  0  0  0  0  0  0  0
   31.0753   16.4690   20.3307 C   0  0  0  0  0  0  0  0  0  0  0  0
   32.5914   16.4429   20.4348 C   0  0  0  0  0  0  0  0  0  0  0  0
   33.1103   17.2724   21.5800 N   0  0  0  0  0  0  0  0  0  0  0  0
   26.0735   15.6479   19.7653 O   0  0  0  0  0  0  0  0  0  0  0  0
  2  1  1  6  0  0  0
  2  3  1  0  0  0  0
  2  5  1  0  0  0  0
  3  4  1  0  0  0  0
  3 10  1  0  0  0  0
  5  6  1  0  0  0  0
  6  7  1  0  0  0  0
  7  8  1  0  0  0  0
  8  9  1  0  0  0  0
M  END
>  <CHROM.1>
162.86822005,-58.89586044,75.15383932,175.42524771,-64.82579279,29.16181819
15.74509415,20.70795587,-3.07334231,0.27239261,1.57810784

>  <Name>
ligand

>  <RI>
0

>  <Rbt.Current_Directory>
/home/itssahil/PROJECTS/Mol_Feturizer/New_Systems/rnas/3DIZ

>  <Rbt.Executable>
rbdock ($Id: //depot/dev/client3/rdock/2013.1/src/exe/rbdock.cxx#4 $)

>  <Rbt.Library>
libRbt.so (2013.1, Build901 2013/11/27)

>  <Rbt.Parameter_File>
/export/apps/rDock/src/rDock_2013.1_src/data/scripts/dock_solv.prm

>  <Rbt.Receptor>
prm/pocket_docking_2.prm

>  <SCORE>
-8.12382

>  <SCORE.INTER>
-8.64491

>  <SCORE.INTER.CONST>
1

>  <SCORE.INTER.POLAR>
0

>  <SCORE.INTER.ROT>
5

>  <SCORE.INTER.SOLV>
12.022

>  <SCORE.INTER.VDW>
-16.7039

>  <SCORE.INTER.norm>
-0.864491

>  <SCORE.INTRA>
0.521095

>  <SCORE.INTRA.DIHEDRAL>
-1.12836

>  <SCORE.INTRA.DIHEDRAL.0>
3.67053

>  <SCORE.INTRA.POLAR>
0

>  <SCORE.INTRA.POLAR.0>
0

>  <SCORE.INTRA.REPUL>
0

>  <SCORE.INTRA.REPUL.0>
0

>  <SCORE.INTRA.SOLV>
1.59497

>  <SCORE.INTRA.SOLV.lig_0>
-32.0553

>  <SCORE.INTRA.VDW>
0.287789

>  <SCORE.INTRA.VDW.0>
-0.571921

>  <SCORE.INTRA.norm>
0.0521095

>  <SCORE.RESTR>
0

>  <SCORE.RESTR.CAVITY>
0

>  <SCORE.RESTR.norm>
0

>  <SCORE.SYSTEM>
0

>  <SCORE.SYSTEM.CONST>
0

>  <SCORE.SYSTEM.DIHEDRAL>
0

>  <SCORE.SYSTEM.SOLV>
0

>  <SCORE.SYSTEM.norm>
0

>  <SCORE.heavy>
10

>  <SCORE.norm>
-0.812382

>  <RMSD>
5.318

$$$$
ligand
 OpenBabel11021811473D
libRbt.so/2013.1/901 2013/11/27
 10  9  0  0  0  0  0  0  0  0999 V2000
   25.8392   15.5832   19.9336 N   0  0  0  0  0  0  0  0  0  0  0  0
   27.3061   15.3591   20.1059 C   0  0  2  0  0  0  0  0  0  0  0  0
   27.8567   14.4114   19.0487 C   0  0  0  0  0  0  0  0  0  0  0  0
   27.1213   13.6550   18.4237 O   0  0  0  0  0  0  0  0  0  0  0  0
   27.6203   14.8488   21.5144 C   0  0  0  0  0  0  0  0  0  0  0  0
   29.1060   14.7849   21.8241 C   0  0  0  0  0  0  0  0  0  0  0  0
   29.7379   16.1712   21.8380 C   0  0  0  0  0  0  0  0  0  0  0  0
   31.2341   16.0773   22.0881 C   0  0  0  0  0  0  0  0  0  0  0  0
   31.9098   17.4235   22.0870 N   0  0  0  0  0  0  0  0  0  0  0  0
   29.0441   14.3821   18.7550 O   0  0  0  0  0  0  0  0  0  0  0  0
  2  1  1  1  0  0  0
  2  3  1  0  0  0  0
  2  5  1  0  0  0  0
  3  4  1  0  0  0  0
  3 10  1  0  0  0  0
  5  6  1  0  0  0  0
  6  7  1  0  0  0  0
  7  8  1  0  0  0  0
  8  9  1  0  0  0  0
M  END
>  <CHROM.1>
-19.72908154,-171.87457987,65.08169536,-177.47422754,178.99562492,28.68239276
15.24593815,20.53145177,2.42027677,-0.09310003,-2.08622179

>  <Name>
ligand

>  <RI>
0

>  <Rbt.Current_Directory>
/home/itssahil/PROJECTS/Mol_Feturizer/New_Systems/rnas/3DIZ

>  <Rbt.Executable>
rbdock ($Id: //depot/dev/client3/rdock/2013.1/src/exe/rbdock.cxx#4 $)

>  <Rbt.Library>
libRbt.so (2013.1, Build901 2013/11/27)

>  <Rbt.Parameter_File>
/export/apps/rDock/src/rDock_2013.1_src/data/scripts/dock_solv.prm

>  <Rbt.Receptor>
prm/pocket_docking_7.prm

>  <SCORE>
-9.33822

>  <SCORE.INTER>
-7.74943

>  <SCORE.INTER.CONST>
1

>  <SCORE.INTER.POLAR>
0

>  <SCORE.INTER.ROT>
5

>  <SCORE.INTER.SOLV>
17.2693

>  <SCORE.INTER.VDW>
-17.8561

>  <SCORE.INTER.norm>
-0.774943

>  <SCORE.INTRA>
-1.58879

>  <SCORE.INTRA.DIHEDRAL>
-1.73628

>  <SCORE.INTRA.DIHEDRAL.0>
3.67053

>  <SCORE.INTRA.POLAR>
0

>  <SCORE.INTRA.POLAR.0>
0

>  <SCORE.INTRA.REPUL>
0

>  <SCORE.INTRA.REPUL.0>
0

>  <SCORE.INTRA.SOLV>
-1.42601

>  <SCORE.INTRA.SOLV.lig_0>
-32.0553

>  <SCORE.INTRA.VDW>
-0.00764632

>  <SCORE.INTRA.VDW.0>
-0.571921

>  <SCORE.INTRA.norm>
-0.158879

>  <SCORE.RESTR>
0

>  <SCORE.RESTR.CAVITY>
0

>  <SCORE.RESTR.norm>
0

>  <SCORE.SYSTEM>
0

>  <SCORE.SYSTEM.CONST>
0

>  <SCORE.SYSTEM.DIHEDRAL>
0

>  <SCORE.SYSTEM.SOLV>
0

>  <SCORE.SYSTEM.norm>
0

>  <SCORE.heavy>
10

>  <SCORE.norm>
-0.933822

>  <RMSD>
5.318

$$$$
ligand
 OpenBabel11021811473D
libRbt.so/2013.1/901 2013/11/27
 10  9  0  0  0  0  0  0  0  0999 V2000
   28.6787   15.4021   19.0971 N   0  0  0  0  0  0  0  0  0  0  0  0
   28.2360   15.0256   20.4732 C   0  0  2  0  0  0  0  0  0  0  0  0
   26.7201   15.0799   20.6093 C   0  0  0  0  0  0  0  0  0  0  0  0
   26.1466   14.5766   21.5691 O   0  0  0  0  0  0  0  0  0  0  0  0
   28.9112   15.9079   21.5262 C   0  0  0  0  0  0  0  0  0  0  0  0
   30.4273   15.8132   21.5219 C   0  0  0  0  0  0  0  0  0  0  0  0
   31.0321   16.5258   20.3187 C   0  0  0  0  0  0  0  0  0  0  0  0
   32.5494   16.4455   20.3535 C   0  0  0  0  0  0  0  0  0  0  0  0
   33.1441   17.1787   21.5271 N   0  0  0  0  0  0  0  0  0  0  0  0
   26.0124   15.6492   19.7896 O   0  0  0  0  0  0  0  0  0  0  0  0
  2  1  1  6  0  0  0
  2  3  1  0  0  0  0
  2  5  1  0  0  0  0
  3  4  1  0  0  0  0
  3 10  1  0  0  0  0
  5  6  1  0  0  0  0
  6  7  1  0  0  0  0
  7  8  1  0  0  0  0
  8  9  1  0  0  0  0
M  END
>  <CHROM.1>
166.39455328,-60.06543170,73.11309284,178.67450143,-64.79247866,29.14045692
15.75717000,20.68115344,-3.10242109,0.27085628,1.66111673

>  <Name>
ligand

>  <RI>
0

>  <Rbt.Current_Directory>
/home/itssahil/PROJECTS/Mol_Feturizer/New_Systems/rnas/3DIZ

>  <Rbt.Executable>
rbdock ($Id: //depot/dev/client3/rdock/2013.1/src/exe/rbdock.cxx#4 $)

>  <Rbt.Library>
libRbt.so (2013.1, Build901 2013/11/27)

>  <Rbt.Parameter_File>
/export/apps/rDock/src/rDock_2013.1_src/data/scripts/dock_solv.prm

>  <Rbt.Receptor>
prm/pocket_docking_2.prm

>  <SCORE>
-8.11958

>  <SCORE.INTER>
-8.58746

>  <SCORE.INTER.CONST>
1

>  <SCORE.INTER.POLAR>
0

>  <SCORE.INTER.ROT>
5

>  <SCORE.INTER.SOLV>
12.1303

>  <SCORE.INTER.VDW>
-16.7017

>  <SCORE.INTER.norm>
-0.858746

>  <SCORE.INTRA>
0.467878

>  <SCORE.INTRA.DIHEDRAL>
-1.42488

>  <SCORE.INTRA.DIHEDRAL.0>
3.67053

>  <SCORE.INTRA.POLAR>
0

>  <SCORE.INTRA.POLAR.0>
0

>  <SCORE.INTRA.REPUL>
0

>  <SCORE.INTRA.REPUL.0>
0

>  <SCORE.INTRA.SOLV>
1.61198

>  <SCORE.INTRA.SOLV.lig_0>
-32.0553

>  <SCORE.INTRA.VDW>
0.374332

>  <SCORE.INTRA.VDW.0>
-0.571921

>  <SCORE.INTRA.norm>
0.0467878

>  <SCORE.RESTR>
0

>  <SCORE.RESTR.CAVITY>
0

>  <SCORE.RESTR.norm>
0

>  <SCORE.SYSTEM>
0

>  <SCORE.SYSTEM.CONST>
0

>  <SCORE.SYSTEM.DIHEDRAL>
0

>  <SCORE.SYSTEM.SOLV>
0

>  <SCORE.SYSTEM.norm>
0

>  <SCORE.heavy>
10

>  <SCORE.norm>
-0.811958

>  <RMSD>
5.319

$$$$
ligand
 OpenBabel11021811473D
libRbt.so/2013.1/901 2013/11/27
 10  9  0  0  0  0  0  0  0  0999 V2000
   27.1173   13.7687   18.7485 N   0  0  0  0  0  0  0  0  0  0  0  0
   27.6861   14.6759   19.7900 C   0  0  2  0  0  0  0  0  0  0  0  0
   26.7401   14.8351   20.9727 C   0  0  0  0  0  0  0  0  0  0  0  0
   27.1635   14.9830   22.1139 O   0  0  0  0  0  0  0  0  0  0  0  0
   28.0472   16.0379   19.1917 C   0  0  0  0  0  0  0  0  0  0  0  0
   28.6818   16.9939   20.1871 C   0  0  0  0  0  0  0  0  0  0  0  0
   30.0541   16.5084   20.6371 C   0  0  0  0  0  0  0  0  0  0  0  0
   30.6589   17.4688   21.6480 C   0  0  0  0  0  0  0  0  0  0  0  0
   32.0245   17.0378   22.1150 N   0  0  0  0  0  0  0  0  0  0  0  0
   25.5243   14.8528   20.8367 O   0  0  0  0  0  0  0  0  0  0  0  0
  2  1  1  6  0  0  0
  2  3  1  0  0  0  0
  2  5  1  0  0  0  0
  3  4  1  0  0  0  0
  3 10  1  0  0  0  0
  5  6  1  0  0  0  0
  6  7  1  0  0  0  0
  7  8  1  0  0  0  0
  8  9  1  0  0  0  0
M  END
>  <CHROM.1>
146.49872240,-177.79102621,66.80546812,-179.10684387,-179.47997150,28.34094492
15.71400186,20.64891514,-2.81609876,0.47531918,1.41058852

>  <Name>
ligand

>  <RI>
0

>  <Rbt.Current_Directory>
/home/itssahil/PROJECTS/Mol_Feturizer/New_Systems/rnas/3DIZ

>  <Rbt.Executable>
rbdock ($Id: //depot/dev/client3/rdock/2013.1/src/exe/rbdock.cxx#4 $)

>  <Rbt.Library>
libRbt.so (2013.1, Build901 2013/11/27)

>  <Rbt.Parameter_File>
/export/apps/rDock/src/rDock_2013.1_src/data/scripts/dock_solv.prm

>  <Rbt.Receptor>
prm/pocket_docking_4.prm

>  <SCORE>
-10.673

>  <SCORE.INTER>
-8.86147

>  <SCORE.INTER.CONST>
1

>  <SCORE.INTER.POLAR>
0

>  <SCORE.INTER.ROT>
5

>  <SCORE.INTER.SOLV>
15.9269

>  <SCORE.INTER.VDW>
-18.1499

>  <SCORE.INTER.norm>
-0.886147

>  <SCORE.INTRA>
-1.81153

>  <SCORE.INTRA.DIHEDRAL>
-2.01696

>  <SCORE.INTRA.DIHEDRAL.0>
3.67053

>  <SCORE.INTRA.POLAR>
0

>  <SCORE.INTRA.POLAR.0>
0

>  <SCORE.INTRA.REPUL>
0

>  <SCORE.INTRA.REPUL.0>
0

>  <SCORE.INTRA.SOLV>
-1.49563

>  <SCORE.INTRA.SOLV.lig_0>
-32.0553

>  <SCORE.INTRA.VDW>
-0.0552408

>  <SCORE.INTRA.VDW.0>
-0.571921

>  <SCORE.INTRA.norm>
-0.181153

>  <SCORE.RESTR>
0

>  <SCORE.RESTR.CAVITY>
0

>  <SCORE.RESTR.norm>
0

>  <SCORE.SYSTEM>
0

>  <SCORE.SYSTEM.CONST>
0

>  <SCORE.SYSTEM.DIHEDRAL>
0

>  <SCORE.SYSTEM.SOLV>
0

>  <SCORE.SYSTEM.norm>
0

>  <SCORE.heavy>
10

>  <SCORE.norm>
-1.0673

>  <RMSD>
5.319

$$$$
ligand
 OpenBabel11021811473D
libRbt.so/2013.1/901 2013/11/27
 10  9  0  0  0  0  0  0  0  0999 V2000
   27.9109   14.7298   18.8052 N   0  0  0  0  0  0  0  0  0  0  0  0
   28.1829   14.8336   20.2703 C   0  0  2  0  0  0  0  0  0  0  0  0
   26.8971   14.9999   21.0692 C   0  0  0  0  0  0  0  0  0  0  0  0
   26.9164   15.1554   22.2853 O   0  0  0  0  0  0  0  0  0  0  0  0
   29.1614   15.9729   20.5662 C   0  0  0  0  0  0  0  0  0  0  0  0
   29.6751   15.9818   21.9957 C   0  0  0  0  0  0  0  0  0  0  0  0
   30.6622   17.1182   22.2318 C   0  0  0  0  0  0  0  0  0  0  0  0
   31.9756   16.8462   21.5169 C   0  0  0  0  0  0  0  0  0  0  0  0
   33.0211   17.8920   21.8031 N   0  0  0  0  0  0  0  0  0  0  0  0
   25.7961   15.0161   20.5358 O   0  0  0  0  0  0  0  0  0  0  0  0
  2  1  1  6  0  0  0
  2  3  1  0  0  0  0
  2  5  1  0  0  0  0
  3  4  1  0  0  0  0
  3 10  1  0  0  0  0
  5  6  1  0  0  0  0
  6  7  1  0  0  0  0
  7  8  1  0  0  0  0
  8  9  1  0  0  0  0
M  END
>  <CHROM.1>
-177.08639497,-169.68339244,179.00993323,-71.06893599,-175.72964430,28.98131132
15.85246978,21.12318398,-2.82923690,0.35300883,1.28970159

>  <Name>
ligand

>  <RI>
0

>  <Rbt.Current_Directory>
/home/itssahil/PROJECTS/Mol_Feturizer/New_Systems/rnas/3DIZ

>  <Rbt.Executable>
rbdock ($Id: //depot/dev/client3/rdock/2013.1/src/exe/rbdock.cxx#4 $)

>  <Rbt.Library>
libRbt.so (2013.1, Build901 2013/11/27)

>  <Rbt.Parameter_File>
/export/apps/rDock/src/rDock_2013.1_src/data/scripts/dock_solv.prm

>  <Rbt.Receptor>
prm/pocket_docking_6.prm

>  <SCORE>
-9.35456

>  <SCORE.INTER>
-8.8621

>  <SCORE.INTER.CONST>
1

>  <SCORE.INTER.POLAR>
0

>  <SCORE.INTER.ROT>
5

>  <SCORE.INTER.SOLV>
13.4145

>  <SCORE.INTER.VDW>
-17.3129

>  <SCORE.INTER.norm>
-0.88621

>  <SCORE.INTRA>
-0.492465

>  <SCORE.INTRA.DIHEDRAL>
-1.20406

>  <SCORE.INTRA.DIHEDRAL.0>
3.67053

>  <SCORE.INTRA.POLAR>
0

>  <SCORE.INTRA.POLAR.0>
0

>  <SCORE.INTRA.REPUL>
0

>  <SCORE.INTRA.REPUL.0>
0

>  <SCORE.INTRA.SOLV>
-1.5112

>  <SCORE.INTRA.SOLV.lig_0>
-32.0553

>  <SCORE.INTRA.VDW>
0.865164

>  <SCORE.INTRA.VDW.0>
-0.571921

>  <SCORE.INTRA.norm>
-0.0492465

>  <SCORE.RESTR>
0

>  <SCORE.RESTR.CAVITY>
0

>  <SCORE.RESTR.norm>
0

>  <SCORE.SYSTEM>
0

>  <SCORE.SYSTEM.CONST>
0

>  <SCORE.SYSTEM.DIHEDRAL>
0

>  <SCORE.SYSTEM.SOLV>
0

>  <SCORE.SYSTEM.norm>
0

>  <SCORE.heavy>
10

>  <SCORE.norm>
-0.935456

>  <RMSD>
5.319

$$$$
ligand
 OpenBabel11021811473D
libRbt.so/2013.1/901 2013/11/27
 10  9  0  0  0  0  0  0  0  0999 V2000
   27.1175   13.8545   18.7876 N   0  0  0  0  0  0  0  0  0  0  0  0
   27.6837   14.7485   19.8419 C   0  0  2  0  0  0  0  0  0  0  0  0
   26.7153   14.9296   21.0031 C   0  0  0  0  0  0  0  0  0  0  0  0
   27.1158   15.1649   22.1380 O   0  0  0  0  0  0  0  0  0  0  0  0
   28.0893   16.1017   19.2523 C   0  0  0  0  0  0  0  0  0  0  0  0
   28.7693   17.0238   20.2497 C   0  0  0  0  0  0  0  0  0  0  0  0
   30.1422   16.5010   20.6539 C   0  0  0  0  0  0  0  0  0  0  0  0
   30.7912   17.4257   21.6707 C   0  0  0  0  0  0  0  0  0  0  0  0
   32.1810   16.9874   22.0517 N   0  0  0  0  0  0  0  0  0  0  0  0
   25.5020   14.8791   20.8536 O   0  0  0  0  0  0  0  0  0  0  0  0
  2  1  1  6  0  0  0
  2  3  1  0  0  0  0
  2  5  1  0  0  0  0
  3  4  1  0  0  0  0
  3 10  1  0  0  0  0
  5  6  1  0  0  0  0
  6  7  1  0  0  0  0
  7  8  1  0  0  0  0
  8  9  1  0  0  0  0
M  END
>  <CHROM.1>
151.88223597,-175.67773500,68.24961226,-178.94430629,-177.17038869,28.38102569
15.76017074,20.67469542,-2.82291017,0.43048753,1.37196673

>  <Name>
ligand

>  <RI>
0

>  <Rbt.Current_Directory>
/home/itssahil/PROJECTS/Mol_Feturizer/New_Systems/rnas/3DIZ

>  <Rbt.Executable>
rbdock ($Id: //depot/dev/client3/rdock/2013.1/src/exe/rbdock.cxx#4 $)

>  <Rbt.Library>
libRbt.so (2013.1, Build901 2013/11/27)

>  <Rbt.Parameter_File>
/export/apps/rDock/src/rDock_2013.1_src/data/scripts/dock_solv.prm

>  <Rbt.Receptor>
prm/pocket_docking_3.prm

>  <SCORE>
-10.7239

>  <SCORE.INTER>
-8.98249

>  <SCORE.INTER.CONST>
1

>  <SCORE.INTER.POLAR>
0

>  <SCORE.INTER.ROT>
5

>  <SCORE.INTER.SOLV>
15.9972

>  <SCORE.INTER.VDW>
-18.254

>  <SCORE.INTER.norm>
-0.898249

>  <SCORE.INTRA>
-1.74142

>  <SCORE.INTRA.DIHEDRAL>
-1.8503

>  <SCORE.INTRA.DIHEDRAL.0>
3.67053

>  <SCORE.INTRA.POLAR>
0

>  <SCORE.INTRA.POLAR.0>
0

>  <SCORE.INTRA.REPUL>
0

>  <SCORE.INTRA.REPUL.0>
0

>  <SCORE.INTRA.SOLV>
-1.48646

>  <SCORE.INTRA.SOLV.lig_0>
-32.0553

>  <SCORE.INTRA.VDW>
-0.0730366

>  <SCORE.INTRA.VDW.0>
-0.571921

>  <SCORE.INTRA.norm>
-0.174142

>  <SCORE.RESTR>
0

>  <SCORE.RESTR.CAVITY>
0

>  <SCORE.RESTR.norm>
0

>  <SCORE.SYSTEM>
0

>  <SCORE.SYSTEM.CONST>
0

>  <SCORE.SYSTEM.DIHEDRAL>
0

>  <SCORE.SYSTEM.SOLV>
0

>  <SCORE.SYSTEM.norm>
0

>  <SCORE.heavy>
10

>  <SCORE.norm>
-1.07239

>  <RMSD>
5.322

$$$$
ligand
 OpenBabel11021811473D
libRbt.so/2013.1/901 2013/11/27
 10  9  0  0  0  0  0  0  0  0999 V2000
   26.3333   14.6319   20.7458 N   0  0  0  0  0  0  0  0  0  0  0  0
   27.1594   15.5446   19.8997 C   0  0  2  0  0  0  0  0  0  0  0  0
   27.7830   14.8069   18.7224 C   0  0  0  0  0  0  0  0  0  0  0  0
   27.7365   15.2637   17.5854 O   0  0  0  0  0  0  0  0  0  0  0  0
   28.2329   16.2449   20.7366 C   0  0  0  0  0  0  0  0  0  0  0  0
   29.1642   15.2878   21.4606 C   0  0  0  0  0  0  0  0  0  0  0  0
   30.2052   16.0329   22.2868 C   0  0  0  0  0  0  0  0  0  0  0  0
   31.1538   16.8059   21.3853 C   0  0  0  0  0  0  0  0  0  0  0  0
   32.1725   17.6016   22.1586 N   0  0  0  0  0  0  0  0  0  0  0  0
   28.3804   13.7480   18.8596 O   0  0  0  0  0  0  0  0  0  0  0  0
  2  1  1  1  0  0  0
  2  3  1  0  0  0  0
  2  5  1  0  0  0  0
  3  4  1  0  0  0  0
  3 10  1  0  0  0  0
  5  6  1  0  0  0  0
  6  7  1  0  0  0  0
  7  8  1  0  0  0  0
  8  9  1  0  0  0  0
M  END
>  <CHROM.1>
132.87393357,57.46362858,-179.53525996,-66.18619516,177.88292408,28.83731032
15.57783626,20.35053051,2.45406360,-0.39240393,-1.75105915

>  <Name>
ligand

>  <RI>
0

>  <Rbt.Current_Directory>
/home/itssahil/PROJECTS/Mol_Feturizer/New_Systems/rnas/3DIZ

>  <Rbt.Executable>
rbdock ($Id: //depot/dev/client3/rdock/2013.1/src/exe/rbdock.cxx#4 $)

>  <Rbt.Library>
libRbt.so (2013.1, Build901 2013/11/27)

>  <Rbt.Parameter_File>
/export/apps/rDock/src/rDock_2013.1_src/data/scripts/dock_solv.prm

>  <Rbt.Receptor>
prm/pocket_docking_5.prm

>  <SCORE>
-8.42998

>  <SCORE.INTER>
-7.74104

>  <SCORE.INTER.CONST>
1

>  <SCORE.INTER.POLAR>
0

>  <SCORE.INTER.ROT>
5

>  <SCORE.INTER.SOLV>
16.2785

>  <SCORE.INTER.VDW>
-17.5202

>  <SCORE.INTER.norm>
-0.774104

>  <SCORE.INTRA>
-0.692375

>  <SCORE.INTRA.DIHEDRAL>
-1.99467

>  <SCORE.INTRA.DIHEDRAL.0>
3.67053

>  <SCORE.INTRA.POLAR>
0

>  <SCORE.INTRA.POLAR.0>
0

>  <SCORE.INTRA.REPUL>
0

>  <SCORE.INTRA.REPUL.0>
0

>  <SCORE.INTRA.SOLV>
-0.544627

>  <SCORE.INTRA.SOLV.lig_0>
-32.0553

>  <SCORE.INTRA.VDW>
0.577274

>  <SCORE.INTRA.VDW.0>
-0.571921

>  <SCORE.INTRA.norm>
-0.0692375

>  <SCORE.RESTR>
0.00342896

>  <SCORE.RESTR.CAVITY>
0.00342896

>  <SCORE.RESTR.norm>
0.000342896

>  <SCORE.SYSTEM>
0

>  <SCORE.SYSTEM.CONST>
0

>  <SCORE.SYSTEM.DIHEDRAL>
0

>  <SCORE.SYSTEM.SOLV>
0

>  <SCORE.SYSTEM.norm>
0

>  <SCORE.heavy>
10

>  <SCORE.norm>
-0.842998

>  <RMSD>
5.322

$$$$
ligand
 OpenBabel11021811473D
libRbt.so/2013.1/901 2013/11/27
 10  9  0  0  0  0  0  0  0  0999 V2000
   25.7715   14.8917   20.6614 N   0  0  0  0  0  0  0  0  0  0  0  0
   26.8367   15.5829   19.8745 C   0  0  2  0  0  0  0  0  0  0  0  0
   27.2593   14.7637   18.6623 C   0  0  0  0  0  0  0  0  0  0  0  0
   27.9659   15.2433   17.7823 O   0  0  0  0  0  0  0  0  0  0  0  0
   28.0423   15.9138   20.7578 C   0  0  0  0  0  0  0  0  0  0  0  0
   28.6694   14.6973   21.4169 C   0  0  0  0  0  0  0  0  0  0  0  0
   29.9062   15.0702   22.2249 C   0  0  0  0  0  0  0  0  0  0  0  0
   31.0584   15.4384   21.3046 C   0  0  0  0  0  0  0  0  0  0  0  0
   30.8609   16.7704   20.6296 N   0  0  0  0  0  0  0  0  0  0  0  0
   26.9412   13.5902   18.5258 O   0  0  0  0  0  0  0  0  0  0  0  0
  2  1  1  1  0  0  0
  2  3  1  0  0  0  0
  2  5  1  0  0  0  0
  3  4  1  0  0  0  0
  3 10  1  0  0  0  0
  5  6  1  0  0  0  0
  6  7  1  0  0  0  0
  7  8  1  0  0  0  0
  8  9  1  0  0  0  0
M  END
>  <CHROM.1>
168.61219906,58.35163725,177.02904769,-71.61048484,72.17392453,28.33262826
15.17765120,20.15109541,2.56250072,-0.28550010,-1.58632483

>  <Name>
ligand

>  <RI>
0

>  <Rbt.Current_Directory>
/home/itssahil/PROJECTS/Mol_Feturizer/New_Systems/rnas/3DIZ

>  <Rbt.Executable>
rbdock ($Id: //depot/dev/client3/rdock/2013.1/src/exe/rbdock.cxx#4 $)

>  <Rbt.Library>
libRbt.so (2013.1, Build901 2013/11/27)

>  <Rbt.Parameter_File>
/export/apps/rDock/src/rDock_2013.1_src/data/scripts/dock_solv.prm

>  <Rbt.Receptor>
prm/blind_docking_60.prm

>  <SCORE>
-8.42943

>  <SCORE.INTER>
-9.15544

>  <SCORE.INTER.CONST>
1

>  <SCORE.INTER.POLAR>
0

>  <SCORE.INTER.ROT>
5

>  <SCORE.INTER.SOLV>
16.5744

>  <SCORE.INTER.VDW>
-18.5618

>  <SCORE.INTER.norm>
-0.915544

>  <SCORE.INTRA>
0.726008

>  <SCORE.INTRA.DIHEDRAL>
-1.06531

>  <SCORE.INTRA.DIHEDRAL.0>
3.67053

>  <SCORE.INTRA.POLAR>
0

>  <SCORE.INTRA.POLAR.0>
0

>  <SCORE.INTRA.REPUL>
0

>  <SCORE.INTRA.REPUL.0>
0

>  <SCORE.INTRA.SOLV>
1.46391

>  <SCORE.INTRA.SOLV.lig_0>
-32.0553

>  <SCORE.INTRA.VDW>
0.526707

>  <SCORE.INTRA.VDW.0>
-0.571921

>  <SCORE.INTRA.norm>
0.0726008

>  <SCORE.RESTR>
0

>  <SCORE.RESTR.CAVITY>
0

>  <SCORE.RESTR.norm>
0

>  <SCORE.SYSTEM>
0

>  <SCORE.SYSTEM.CONST>
0

>  <SCORE.SYSTEM.DIHEDRAL>
0

>  <SCORE.SYSTEM.SOLV>
0

>  <SCORE.SYSTEM.norm>
0

>  <SCORE.heavy>
10

>  <SCORE.norm>
-0.842943

>  <RMSD>
5.323

$$$$
ligand
 OpenBabel11021811473D
libRbt.so/2013.1/901 2013/11/27
 10  9  0  0  0  0  0  0  0  0999 V2000
   28.1701   15.4288   18.7492 N   0  0  0  0  0  0  0  0  0  0  0  0
   28.1518   14.6455   20.0210 C   0  0  2  0  0  0  0  0  0  0  0  0
   26.9371   14.9878   20.8733 C   0  0  0  0  0  0  0  0  0  0  0  0
   26.9994   15.0015   22.0978 O   0  0  0  0  0  0  0  0  0  0  0  0
   29.4479   14.8508   20.8092 C   0  0  0  0  0  0  0  0  0  0  0  0
   29.7345   16.3039   21.1465 C   0  0  0  0  0  0  0  0  0  0  0  0
   31.0730   16.4632   21.8567 C   0  0  0  0  0  0  0  0  0  0  0  0
   31.3782   17.9313   22.1049 C   0  0  0  0  0  0  0  0  0  0  0  0
   32.7547   18.1508   22.6758 N   0  0  0  0  0  0  0  0  0  0  0  0
   25.8596   15.2919   20.3797 O   0  0  0  0  0  0  0  0  0  0  0  0
  2  1  1  6  0  0  0
  2  3  1  0  0  0  0
  2  5  1  0  0  0  0
  3  4  1  0  0  0  0
  3 10  1  0  0  0  0
  5  6  1  0  0  0  0
  6  7  1  0  0  0  0
  7  8  1  0  0  0  0
  8  9  1  0  0  0  0
M  END
>  <CHROM.1>
-145.23338537,57.54194156,-176.61284334,176.41446833,-174.04992267,29.01356067
15.90618195,21.08650815,-2.70708783,0.37181670,1.26854588

>  <Name>
ligand

>  <RI>
0

>  <Rbt.Current_Directory>
/home/itssahil/PROJECTS/Mol_Feturizer/New_Systems/rnas/3DIZ

>  <Rbt.Executable>
rbdock ($Id: //depot/dev/client3/rdock/2013.1/src/exe/rbdock.cxx#4 $)

>  <Rbt.Library>
libRbt.so (2013.1, Build901 2013/11/27)

>  <Rbt.Parameter_File>
/export/apps/rDock/src/rDock_2013.1_src/data/scripts/dock_solv.prm

>  <Rbt.Receptor>
prm/pocket_docking_2.prm

>  <SCORE>
-8.85994

>  <SCORE.INTER>
-8.0811

>  <SCORE.INTER.CONST>
1

>  <SCORE.INTER.POLAR>
0

>  <SCORE.INTER.ROT>
5

>  <SCORE.INTER.SOLV>
13.9406

>  <SCORE.INTER.VDW>
-16.9676

>  <SCORE.INTER.norm>
-0.80811

>  <SCORE.INTRA>
-0.778841

>  <SCORE.INTRA.DIHEDRAL>
-1.84366

>  <SCORE.INTRA.DIHEDRAL.0>
3.67053

>  <SCORE.INTRA.POLAR>
0

>  <SCORE.INTRA.POLAR.0>
0

>  <SCORE.INTRA.REPUL>
0

>  <SCORE.INTRA.REPUL.0>
0

>  <SCORE.INTRA.SOLV>
-0.769627

>  <SCORE.INTRA.SOLV.lig_0>
-32.0553

>  <SCORE.INTRA.VDW>
0.527801

>  <SCORE.INTRA.VDW.0>
-0.571921

>  <SCORE.INTRA.norm>
-0.0778841

>  <SCORE.RESTR>
0

>  <SCORE.RESTR.CAVITY>
0

>  <SCORE.RESTR.norm>
0

>  <SCORE.SYSTEM>
0

>  <SCORE.SYSTEM.CONST>
0

>  <SCORE.SYSTEM.DIHEDRAL>
0

>  <SCORE.SYSTEM.SOLV>
0

>  <SCORE.SYSTEM.norm>
0

>  <SCORE.heavy>
10

>  <SCORE.norm>
-0.885994

>  <RMSD>
5.323

$$$$
ligand
 OpenBabel11021811473D
libRbt.so/2013.1/901 2013/11/27
 10  9  0  0  0  0  0  0  0  0999 V2000
   28.1610   15.4223   18.7487 N   0  0  0  0  0  0  0  0  0  0  0  0
   28.1469   14.6410   20.0219 C   0  0  2  0  0  0  0  0  0  0  0  0
   26.9337   14.9831   20.8765 C   0  0  0  0  0  0  0  0  0  0  0  0
   26.9998   15.0020   22.1008 O   0  0  0  0  0  0  0  0  0  0  0  0
   29.4446   14.8494   20.8065 C   0  0  0  0  0  0  0  0  0  0  0  0
   29.7193   16.3013   21.1590 C   0  0  0  0  0  0  0  0  0  0  0  0
   31.0770   16.4702   21.8294 C   0  0  0  0  0  0  0  0  0  0  0  0
   31.3602   17.9374   22.1073 C   0  0  0  0  0  0  0  0  0  0  0  0
   32.7482   18.1705   22.6438 N   0  0  0  0  0  0  0  0  0  0  0  0
   25.8538   15.2817   20.3850 O   0  0  0  0  0  0  0  0  0  0  0  0
  2  1  1  6  0  0  0
  2  3  1  0  0  0  0
  2  5  1  0  0  0  0
  3  4  1  0  0  0  0
  3 10  1  0  0  0  0
  5  6  1  0  0  0  0
  6  7  1  0  0  0  0
  7  8  1  0  0  0  0
  8  9  1  0  0  0  0
M  END
>  <CHROM.1>
-145.05031175,58.41838362,-174.99144294,177.08023628,-174.26106106,29.00742838
15.90649003,21.08309067,-2.70699839,0.37284167,1.26098775

>  <Name>
ligand

>  <RI>
0

>  <Rbt.Current_Directory>
/home/itssahil/PROJECTS/Mol_Feturizer/New_Systems/rnas/3DIZ

>  <Rbt.Executable>
rbdock ($Id: //depot/dev/client3/rdock/2013.1/src/exe/rbdock.cxx#4 $)

>  <Rbt.Library>
libRbt.so (2013.1, Build901 2013/11/27)

>  <Rbt.Parameter_File>
/export/apps/rDock/src/rDock_2013.1_src/data/scripts/dock_solv.prm

>  <Rbt.Receptor>
prm/pocket_docking_2.prm

>  <SCORE>
-8.87428

>  <SCORE.INTER>
-8.11559

>  <SCORE.INTER.CONST>
1

>  <SCORE.INTER.POLAR>
0

>  <SCORE.INTER.ROT>
5

>  <SCORE.INTER.SOLV>
13.9548

>  <SCORE.INTER.VDW>
-16.9953

>  <SCORE.INTER.norm>
-0.811559

>  <SCORE.INTRA>
-0.761402

>  <SCORE.INTRA.DIHEDRAL>
-1.83033

>  <SCORE.INTRA.DIHEDRAL.0>
3.67053

>  <SCORE.INTRA.POLAR>
0

>  <SCORE.INTRA.POLAR.0>
0

>  <SCORE.INTRA.REPUL>
0

>  <SCORE.INTRA.REPUL.0>
0

>  <SCORE.INTRA.SOLV>
-0.771849

>  <SCORE.INTRA.SOLV.lig_0>
-32.0553

>  <SCORE.INTRA.VDW>
0.539687

>  <SCORE.INTRA.VDW.0>
-0.571921

>  <SCORE.INTRA.norm>
-0.0761402

>  <SCORE.RESTR>
0.00271185

>  <SCORE.RESTR.CAVITY>
0.00271185

>  <SCORE.RESTR.norm>
0.000271185

>  <SCORE.SYSTEM>
0

>  <SCORE.SYSTEM.CONST>
0

>  <SCORE.SYSTEM.DIHEDRAL>
0

>  <SCORE.SYSTEM.SOLV>
0

>  <SCORE.SYSTEM.norm>
0

>  <SCORE.heavy>
10

>  <SCORE.norm>
-0.887428

>  <RMSD>
5.324

$$$$
ligand
 OpenBabel11021811473D
libRbt.so/2013.1/901 2013/11/27
 10  9  0  0  0  0  0  0  0  0999 V2000
   27.9469   14.5429   18.7129 N   0  0  0  0  0  0  0  0  0  0  0  0
   28.1369   14.7340   20.1822 C   0  0  2  0  0  0  0  0  0  0  0  0
   26.8228   15.0576   20.8804 C   0  0  0  0  0  0  0  0  0  0  0  0
   25.8117   15.3318   20.2432 O   0  0  0  0  0  0  0  0  0  0  0  0
   29.1852   15.8136   20.4628 C   0  0  0  0  0  0  0  0  0  0  0  0
   29.5506   15.9437   21.9315 C   0  0  0  0  0  0  0  0  0  0  0  0
   30.5687   17.0537   22.1618 C   0  0  0  0  0  0  0  0  0  0  0  0
   31.9213   16.6702   21.5845 C   0  0  0  0  0  0  0  0  0  0  0  0
   32.9671   17.7332   21.7971 N   0  0  0  0  0  0  0  0  0  0  0  0
   26.7079   15.0299   22.0982 O   0  0  0  0  0  0  0  0  0  0  0  0
  2  1  1  6  0  0  0
  2  3  1  0  0  0  0
  2  5  1  0  0  0  0
  3  4  1  0  0  0  0
  3 10  1  0  0  0  0
  5  6  1  0  0  0  0
  6  7  1  0  0  0  0
  7  8  1  0  0  0  0
  8  9  1  0  0  0  0
M  END
>  <CHROM.1>
-10.92272004,-173.04716744,-178.53069303,-69.43970713,-179.54030856,28.92237484
15.79192611,21.01794738,-2.78818571,0.29733488,1.23425759

>  <Name>
ligand

>  <RI>
0

>  <Rbt.Current_Directory>
/home/itssahil/PROJECTS/Mol_Feturizer/New_Systems/rnas/3DIZ

>  <Rbt.Executable>
rbdock ($Id: //depot/dev/client3/rdock/2013.1/src/exe/rbdock.cxx#4 $)

>  <Rbt.Library>
libRbt.so (2013.1, Build901 2013/11/27)

>  <Rbt.Parameter_File>
/export/apps/rDock/src/rDock_2013.1_src/data/scripts/dock_solv.prm

>  <Rbt.Receptor>
prm/pocket_docking_5.prm

>  <SCORE>
-9.38896

>  <SCORE.INTER>
-8.52109

>  <SCORE.INTER.CONST>
1

>  <SCORE.INTER.POLAR>
0

>  <SCORE.INTER.ROT>
5

>  <SCORE.INTER.SOLV>
13.6583

>  <SCORE.INTER.VDW>
-17.1668

>  <SCORE.INTER.norm>
-0.852109

>  <SCORE.INTRA>
-0.867876

>  <SCORE.INTRA.DIHEDRAL>
-1.58175

>  <SCORE.INTRA.DIHEDRAL.0>
3.67053

>  <SCORE.INTRA.POLAR>
0

>  <SCORE.INTRA.POLAR.0>
0

>  <SCORE.INTRA.REPUL>
0

>  <SCORE.INTRA.REPUL.0>
0

>  <SCORE.INTRA.SOLV>
-1.4785

>  <SCORE.INTRA.SOLV.lig_0>
-32.0553

>  <SCORE.INTRA.VDW>
0.662249

>  <SCORE.INTRA.VDW.0>
-0.571921

>  <SCORE.INTRA.norm>
-0.0867876

>  <SCORE.RESTR>
0

>  <SCORE.RESTR.CAVITY>
0

>  <SCORE.RESTR.norm>
0

>  <SCORE.SYSTEM>
0

>  <SCORE.SYSTEM.CONST>
0

>  <SCORE.SYSTEM.DIHEDRAL>
0

>  <SCORE.SYSTEM.SOLV>
0

>  <SCORE.SYSTEM.norm>
0

>  <SCORE.heavy>
10

>  <SCORE.norm>
-0.938896

>  <RMSD>
5.324

$$$$
ligand
 OpenBabel11021811473D
libRbt.so/2013.1/901 2013/11/27
 10  9  0  0  0  0  0  0  0  0999 V2000
   26.0198   15.0086   21.0287 N   0  0  0  0  0  0  0  0  0  0  0  0
   27.4073   15.3918   20.6293 C   0  0  2  0  0  0  0  0  0  0  0  0
   27.5978   15.3156   19.1203 C   0  0  0  0  0  0  0  0  0  0  0  0
   28.2208   16.1782   18.5109 O   0  0  0  0  0  0  0  0  0  0  0  0
   28.4436   14.5303   21.3552 C   0  0  0  0  0  0  0  0  0  0  0  0
   29.8808   14.9183   21.0528 C   0  0  0  0  0  0  0  0  0  0  0  0
   30.2531   16.2464   21.7003 C   0  0  0  0  0  0  0  0  0  0  0  0
   31.7034   16.5972   21.4112 C   0  0  0  0  0  0  0  0  0  0  0  0
   32.1463   17.8584   22.1054 N   0  0  0  0  0  0  0  0  0  0  0  0
   27.1676   14.3829   18.4555 O   0  0  0  0  0  0  0  0  0  0  0  0
  2  1  1  6  0  0  0
  2  3  1  0  0  0  0
  2  5  1  0  0  0  0
  3  4  1  0  0  0  0
  3 10  1  0  0  0  0
  5  6  1  0  0  0  0
  6  7  1  0  0  0  0
  7  8  1  0  0  0  0
  8  9  1  0  0  0  0
M  END
>  <CHROM.1>
138.39246035,-176.81778700,71.34095193,178.67252813,-176.24342245,28.87964806
15.63889111,20.49882026,2.78210106,-0.48005989,-1.39671777

>  <Name>
ligand

>  <RI>
0

>  <Rbt.Current_Directory>
/home/itssahil/PROJECTS/Mol_Feturizer/New_Systems/rnas/3DIZ

>  <Rbt.Executable>
rbdock ($Id: //depot/dev/client3/rdock/2013.1/src/exe/rbdock.cxx#4 $)

>  <Rbt.Library>
libRbt.so (2013.1, Build901 2013/11/27)

>  <Rbt.Parameter_File>
/export/apps/rDock/src/rDock_2013.1_src/data/scripts/dock_solv.prm

>  <Rbt.Receptor>
prm/pocket_docking_8.prm

>  <SCORE>
-8.93472

>  <SCORE.INTER>
-7.20656

>  <SCORE.INTER.CONST>
1

>  <SCORE.INTER.POLAR>
0

>  <SCORE.INTER.ROT>
5

>  <SCORE.INTER.SOLV>
18.1245

>  <SCORE.INTER.VDW>
-17.7792

>  <SCORE.INTER.norm>
-0.720656

>  <SCORE.INTRA>
-1.72817

>  <SCORE.INTRA.DIHEDRAL>
-1.59878

>  <SCORE.INTRA.DIHEDRAL.0>
3.67053

>  <SCORE.INTRA.POLAR>
0

>  <SCORE.INTRA.POLAR.0>
0

>  <SCORE.INTRA.REPUL>
0

>  <SCORE.INTRA.REPUL.0>
0

>  <SCORE.INTRA.SOLV>
-1.51815

>  <SCORE.INTRA.SOLV.lig_0>
-32.0553

>  <SCORE.INTRA.VDW>
-0.169701

>  <SCORE.INTRA.VDW.0>
-0.571921

>  <SCORE.INTRA.norm>
-0.172817

>  <SCORE.RESTR>
0

>  <SCORE.RESTR.CAVITY>
0

>  <SCORE.RESTR.norm>
0

>  <SCORE.SYSTEM>
0

>  <SCORE.SYSTEM.CONST>
0

>  <SCORE.SYSTEM.DIHEDRAL>
0

>  <SCORE.SYSTEM.SOLV>
0

>  <SCORE.SYSTEM.norm>
0

>  <SCORE.heavy>
10

>  <SCORE.norm>
-0.893472

>  <RMSD>
5.324

$$$$
ligand
 OpenBabel11021811473D
libRbt.so/2013.1/901 2013/11/27
 10  9  0  0  0  0  0  0  0  0999 V2000
   27.8606   14.5419   18.7500 N   0  0  0  0  0  0  0  0  0  0  0  0
   28.1070   14.6780   20.2171 C   0  0  2  0  0  0  0  0  0  0  0  0
   26.8221   14.9825   20.9757 C   0  0  0  0  0  0  0  0  0  0  0  0
   26.7990   15.0268   22.2009 O   0  0  0  0  0  0  0  0  0  0  0  0
   29.1721   15.7412   20.4970 C   0  0  0  0  0  0  0  0  0  0  0  0
   29.6191   15.7912   21.9480 C   0  0  0  0  0  0  0  0  0  0  0  0
   30.5612   16.9605   22.2064 C   0  0  0  0  0  0  0  0  0  0  0  0
   31.8956   16.7386   21.5135 C   0  0  0  0  0  0  0  0  0  0  0  0
   32.8716   17.8596   21.7581 N   0  0  0  0  0  0  0  0  0  0  0  0
   25.7687   15.2247   20.4024 O   0  0  0  0  0  0  0  0  0  0  0  0
  2  1  1  6  0  0  0
  2  3  1  0  0  0  0
  2  5  1  0  0  0  0
  3  4  1  0  0  0  0
  3 10  1  0  0  0  0
  5  6  1  0  0  0  0
  6  7  1  0  0  0  0
  7  8  1  0  0  0  0
  8  9  1  0  0  0  0
M  END
>  <CHROM.1>
174.23056228,-171.56058872,-173.71795660,-68.94378725,-179.06052195,28.90920966
15.75552059,21.06119566,-2.80728733,0.33006078,1.25806567

>  <Name>
ligand

>  <RI>
0

>  <Rbt.Current_Directory>
/home/itssahil/PROJECTS/Mol_Feturizer/New_Systems/rnas/3DIZ

>  <Rbt.Executable>
rbdock ($Id: //depot/dev/client3/rdock/2013.1/src/exe/rbdock.cxx#4 $)

>  <Rbt.Library>
libRbt.so (2013.1, Build901 2013/11/27)

>  <Rbt.Parameter_File>
/export/apps/rDock/src/rDock_2013.1_src/data/scripts/dock_solv.prm

>  <Rbt.Receptor>
prm/pocket_docking_4.prm

>  <SCORE>
-9.56481

>  <SCORE.INTER>
-8.88935

>  <SCORE.INTER.CONST>
1

>  <SCORE.INTER.POLAR>
0

>  <SCORE.INTER.ROT>
5

>  <SCORE.INTER.SOLV>
13.7389

>  <SCORE.INTER.VDW>
-17.4392

>  <SCORE.INTER.norm>
-0.888935

>  <SCORE.INTRA>
-0.675461

>  <SCORE.INTRA.DIHEDRAL>
-1.43671

>  <SCORE.INTRA.DIHEDRAL.0>
3.67053

>  <SCORE.INTRA.POLAR>
0

>  <SCORE.INTRA.POLAR.0>
0

>  <SCORE.INTRA.REPUL>
0

>  <SCORE.INTRA.REPUL.0>
0

>  <SCORE.INTRA.SOLV>
-1.48649

>  <SCORE.INTRA.SOLV.lig_0>
-32.0553

>  <SCORE.INTRA.VDW>
0.786142

>  <SCORE.INTRA.VDW.0>
-0.571921

>  <SCORE.INTRA.norm>
-0.0675461

>  <SCORE.RESTR>
0

>  <SCORE.RESTR.CAVITY>
0

>  <SCORE.RESTR.norm>
0

>  <SCORE.SYSTEM>
0

>  <SCORE.SYSTEM.CONST>
0

>  <SCORE.SYSTEM.DIHEDRAL>
0

>  <SCORE.SYSTEM.SOLV>
0

>  <SCORE.SYSTEM.norm>
0

>  <SCORE.heavy>
10

>  <SCORE.norm>
-0.956481

>  <RMSD>
5.325

$$$$
ligand
 OpenBabel11021811473D
libRbt.so/2013.1/901 2013/11/27
 10  9  0  0  0  0  0  0  0  0999 V2000
   27.8503   14.7140   18.7400 N   0  0  0  0  0  0  0  0  0  0  0  0
   28.1171   14.8074   20.2068 C   0  0  2  0  0  0  0  0  0  0  0  0
   26.8369   15.0488   20.9955 C   0  0  0  0  0  0  0  0  0  0  0  0
   25.7591   15.2041   20.4318 O   0  0  0  0  0  0  0  0  0  0  0  0
   29.1561   15.8908   20.5064 C   0  0  0  0  0  0  0  0  0  0  0  0
   29.6242   15.9059   21.9515 C   0  0  0  0  0  0  0  0  0  0  0  0
   30.5985   17.0472   22.2154 C   0  0  0  0  0  0  0  0  0  0  0  0
   31.9180   16.8031   21.5016 C   0  0  0  0  0  0  0  0  0  0  0  0
   32.9300   17.8877   21.7629 N   0  0  0  0  0  0  0  0  0  0  0  0
   26.8192   15.0689   22.2188 O   0  0  0  0  0  0  0  0  0  0  0  0
  2  1  1  6  0  0  0
  2  3  1  0  0  0  0
  2  5  1  0  0  0  0
  3  4  1  0  0  0  0
  3 10  1  0  0  0  0
  5  6  1  0  0  0  0
  6  7  1  0  0  0  0
  7  8  1  0  0  0  0
  8  9  1  0  0  0  0
M  END
>  <CHROM.1>
-3.26172504,-171.63928944,-176.91286040,-69.01374059,-178.42029457,28.92220191
15.83667843,21.06777039,-2.82696577,0.34152507,1.30072513

>  <Name>
ligand

>  <RI>
0

>  <Rbt.Current_Directory>
/home/itssahil/PROJECTS/Mol_Feturizer/New_Systems/rnas/3DIZ

>  <Rbt.Executable>
rbdock ($Id: //depot/dev/client3/rdock/2013.1/src/exe/rbdock.cxx#4 $)

>  <Rbt.Library>
libRbt.so (2013.1, Build901 2013/11/27)

>  <Rbt.Parameter_File>
/export/apps/rDock/src/rDock_2013.1_src/data/scripts/dock_solv.prm

>  <Rbt.Receptor>
prm/pocket_docking_5.prm

>  <SCORE>
-9.39763

>  <SCORE.INTER>
-8.68898

>  <SCORE.INTER.CONST>
1

>  <SCORE.INTER.POLAR>
0

>  <SCORE.INTER.ROT>
5

>  <SCORE.INTER.SOLV>
13.5208

>  <SCORE.INTER.VDW>
-17.2329

>  <SCORE.INTER.norm>
-0.868898

>  <SCORE.INTRA>
-0.708656

>  <SCORE.INTRA.DIHEDRAL>
-1.51621

>  <SCORE.INTRA.DIHEDRAL.0>
3.67053

>  <SCORE.INTRA.POLAR>
0

>  <SCORE.INTRA.POLAR.0>
0

>  <SCORE.INTRA.REPUL>
0

>  <SCORE.INTRA.REPUL.0>
0

>  <SCORE.INTRA.SOLV>
-1.48088

>  <SCORE.INTRA.SOLV.lig_0>
-32.0553

>  <SCORE.INTRA.VDW>
0.78989

>  <SCORE.INTRA.VDW.0>
-0.571921

>  <SCORE.INTRA.norm>
-0.0708656

>  <SCORE.RESTR>
0

>  <SCORE.RESTR.CAVITY>
0

>  <SCORE.RESTR.norm>
0

>  <SCORE.SYSTEM>
0

>  <SCORE.SYSTEM.CONST>
0

>  <SCORE.SYSTEM.DIHEDRAL>
0

>  <SCORE.SYSTEM.SOLV>
0

>  <SCORE.SYSTEM.norm>
0

>  <SCORE.heavy>
10

>  <SCORE.norm>
-0.939763

>  <RMSD>
5.326

$$$$
ligand
 OpenBabel11021811473D
libRbt.so/2013.1/901 2013/11/27
 10  9  0  0  0  0  0  0  0  0999 V2000
   27.8661   14.5379   18.7590 N   0  0  0  0  0  0  0  0  0  0  0  0
   28.1032   14.6816   20.2268 C   0  0  2  0  0  0  0  0  0  0  0  0
   26.8145   14.9954   20.9751 C   0  0  0  0  0  0  0  0  0  0  0  0
   26.7864   15.0605   22.1993 O   0  0  0  0  0  0  0  0  0  0  0  0
   29.1705   15.7422   20.5078 C   0  0  0  0  0  0  0  0  0  0  0  0
   29.6213   15.7866   21.9578 C   0  0  0  0  0  0  0  0  0  0  0  0
   30.5701   16.9503   22.2166 C   0  0  0  0  0  0  0  0  0  0  0  0
   31.8990   16.7267   21.5137 C   0  0  0  0  0  0  0  0  0  0  0  0
   32.8794   17.8447   21.7536 N   0  0  0  0  0  0  0  0  0  0  0  0
   25.7627   15.2247   20.3936 O   0  0  0  0  0  0  0  0  0  0  0  0
  2  1  1  6  0  0  0
  2  3  1  0  0  0  0
  2  5  1  0  0  0  0
  3  4  1  0  0  0  0
  3 10  1  0  0  0  0
  5  6  1  0  0  0  0
  6  7  1  0  0  0  0
  7  8  1  0  0  0  0
  8  9  1  0  0  0  0
M  END
>  <CHROM.1>
175.00119297,-170.79846741,-173.94818949,-68.63017607,-179.29417958,28.90869009
15.75632720,21.06439280,-2.80679940,0.32363331,1.25234100

>  <Name>
ligand

>  <RI>
0

>  <Rbt.Current_Directory>
/home/itssahil/PROJECTS/Mol_Feturizer/New_Systems/rnas/3DIZ

>  <Rbt.Executable>
rbdock ($Id: //depot/dev/client3/rdock/2013.1/src/exe/rbdock.cxx#4 $)

>  <Rbt.Library>
libRbt.so (2013.1, Build901 2013/11/27)

>  <Rbt.Parameter_File>
/export/apps/rDock/src/rDock_2013.1_src/data/scripts/dock_solv.prm

>  <Rbt.Receptor>
prm/pocket_docking_7.prm

>  <SCORE>
-9.52641

>  <SCORE.INTER>
-8.86338

>  <SCORE.INTER.CONST>
1

>  <SCORE.INTER.POLAR>
0

>  <SCORE.INTER.ROT>
5

>  <SCORE.INTER.SOLV>
13.7243

>  <SCORE.INTER.VDW>
-17.417

>  <SCORE.INTER.norm>
-0.886338

>  <SCORE.INTRA>
-0.663023

>  <SCORE.INTRA.DIHEDRAL>
-1.42025

>  <SCORE.INTRA.DIHEDRAL.0>
3.67053

>  <SCORE.INTRA.POLAR>
0

>  <SCORE.INTRA.POLAR.0>
0

>  <SCORE.INTRA.REPUL>
0

>  <SCORE.INTRA.REPUL.0>
0

>  <SCORE.INTRA.SOLV>
-1.48208

>  <SCORE.INTRA.SOLV.lig_0>
-32.0553

>  <SCORE.INTRA.VDW>
0.788139

>  <SCORE.INTRA.VDW.0>
-0.571921

>  <SCORE.INTRA.norm>
-0.0663023

>  <SCORE.RESTR>
0

>  <SCORE.RESTR.CAVITY>
0

>  <SCORE.RESTR.norm>
0

>  <SCORE.SYSTEM>
0

>  <SCORE.SYSTEM.CONST>
0

>  <SCORE.SYSTEM.DIHEDRAL>
0

>  <SCORE.SYSTEM.SOLV>
0

>  <SCORE.SYSTEM.norm>
0

>  <SCORE.heavy>
10

>  <SCORE.norm>
-0.952641

>  <RMSD>
5.326

$$$$
ligand
 OpenBabel11021811473D
libRbt.so/2013.1/901 2013/11/27
 10  9  0  0  0  0  0  0  0  0999 V2000
   25.8007   15.5644   19.9329 N   0  0  0  0  0  0  0  0  0  0  0  0
   27.2662   15.3380   20.1135 C   0  0  2  0  0  0  0  0  0  0  0  0
   27.8252   14.4050   19.0477 C   0  0  0  0  0  0  0  0  0  0  0  0
   27.0915   13.6782   18.3866 O   0  0  0  0  0  0  0  0  0  0  0  0
   27.5694   14.8083   21.5173 C   0  0  0  0  0  0  0  0  0  0  0  0
   29.0526   14.7427   21.8387 C   0  0  0  0  0  0  0  0  0  0  0  0
   29.6846   16.1289   21.8636 C   0  0  0  0  0  0  0  0  0  0  0  0
   31.1805   16.0329   22.1153 C   0  0  0  0  0  0  0  0  0  0  0  0
   31.8614   17.3762   22.0934 N   0  0  0  0  0  0  0  0  0  0  0  0
   29.0188   14.3592   18.7829 O   0  0  0  0  0  0  0  0  0  0  0  0
  2  1  1  6  0  0  0
  2  3  1  0  0  0  0
  2  5  1  0  0  0  0
  3  4  1  0  0  0  0
  3 10  1  0  0  0  0
  5  6  1  0  0  0  0
  6  7  1  0  0  0  0
  7  8  1  0  0  0  0
  8  9  1  0  0  0  0
M  END
>  <CHROM.1>
-18.13206359,-171.75970108,64.50131157,-177.05885922,177.67289458,28.64016001
15.22009820,20.53854826,2.41942782,-0.09345594,-2.07169964

>  <Name>
ligand

>  <RI>
0

>  <Rbt.Current_Directory>
/home/itssahil/PROJECTS/Mol_Feturizer/New_Systems/rnas/3DIZ

>  <Rbt.Executable>
rbdock ($Id: //depot/dev/client3/rdock/2013.1/src/exe/rbdock.cxx#4 $)

>  <Rbt.Library>
libRbt.so (2013.1, Build901 2013/11/27)

>  <Rbt.Parameter_File>
/export/apps/rDock/src/rDock_2013.1_src/data/scripts/dock_solv.prm

>  <Rbt.Receptor>
prm/pocket_docking_5.prm

>  <SCORE>
-9.34462

>  <SCORE.INTER>
-7.7911

>  <SCORE.INTER.CONST>
1

>  <SCORE.INTER.POLAR>
0

>  <SCORE.INTER.ROT>
5

>  <SCORE.INTER.SOLV>
17.3606

>  <SCORE.INTER.VDW>
-17.9143

>  <SCORE.INTER.norm>
-0.77911

>  <SCORE.INTRA>
-1.55352

>  <SCORE.INTRA.DIHEDRAL>
-1.72873

>  <SCORE.INTRA.DIHEDRAL.0>
3.67053

>  <SCORE.INTRA.POLAR>
0

>  <SCORE.INTRA.POLAR.0>
0

>  <SCORE.INTRA.REPUL>
0

>  <SCORE.INTRA.REPUL.0>
0

>  <SCORE.INTRA.SOLV>
-1.42142

>  <SCORE.INTRA.SOLV.lig_0>
-32.0553

>  <SCORE.INTRA.VDW>
0.0215599

>  <SCORE.INTRA.VDW.0>
-0.571921

>  <SCORE.INTRA.norm>
-0.155352

>  <SCORE.RESTR>
0

>  <SCORE.RESTR.CAVITY>
0

>  <SCORE.RESTR.norm>
0

>  <SCORE.SYSTEM>
0

>  <SCORE.SYSTEM.CONST>
0

>  <SCORE.SYSTEM.DIHEDRAL>
0

>  <SCORE.SYSTEM.SOLV>
0

>  <SCORE.SYSTEM.norm>
0

>  <SCORE.heavy>
10

>  <SCORE.norm>
-0.934462

>  <RMSD>
5.328

$$$$
ligand
 OpenBabel11021811473D
libRbt.so/2013.1/901 2013/11/27
 10  9  0  0  0  0  0  0  0  0999 V2000
   25.7792   15.5812   19.9178 N   0  0  0  0  0  0  0  0  0  0  0  0
   27.2441   15.3544   20.1026 C   0  0  2  0  0  0  0  0  0  0  0  0
   27.8081   14.4300   19.0319 C   0  0  0  0  0  0  0  0  0  0  0  0
   29.0094   14.3919   18.7892 O   0  0  0  0  0  0  0  0  0  0  0  0
   27.5420   14.8140   21.5034 C   0  0  0  0  0  0  0  0  0  0  0  0
   29.0235   14.7579   21.8347 C   0  0  0  0  0  0  0  0  0  0  0  0
   29.6429   16.1492   21.8798 C   0  0  0  0  0  0  0  0  0  0  0  0
   31.1413   16.0626   22.1196 C   0  0  0  0  0  0  0  0  0  0  0  0
   31.8121   17.4112   22.1018 N   0  0  0  0  0  0  0  0  0  0  0  0
   27.0987   13.6671   18.3902 O   0  0  0  0  0  0  0  0  0  0  0  0
  2  1  1  6  0  0  0
  2  3  1  0  0  0  0
  2  5  1  0  0  0  0
  3  4  1  0  0  0  0
  3 10  1  0  0  0  0
  5  6  1  0  0  0  0
  6  7  1  0  0  0  0
  7  8  1  0  0  0  0
  8  9  1  0  0  0  0
M  END
>  <CHROM.1>
160.72166252,-171.27560509,64.61777834,-176.18226522,177.04238775,28.61573215
15.23835751,20.53693138,2.41220645,-0.09332295,-2.07614618

>  <Name>
ligand

>  <RI>
0

>  <Rbt.Current_Directory>
/home/itssahil/PROJECTS/Mol_Feturizer/New_Systems/rnas/3DIZ

>  <Rbt.Executable>
rbdock ($Id: //depot/dev/client3/rdock/2013.1/src/exe/rbdock.cxx#4 $)

>  <Rbt.Library>
libRbt.so (2013.1, Build901 2013/11/27)

>  <Rbt.Parameter_File>
/export/apps/rDock/src/rDock_2013.1_src/data/scripts/dock_solv.prm

>  <Rbt.Receptor>
prm/pocket_docking_8.prm

>  <SCORE>
-9.36819

>  <SCORE.INTER>
-7.77994

>  <SCORE.INTER.CONST>
1

>  <SCORE.INTER.POLAR>
0

>  <SCORE.INTER.ROT>
5

>  <SCORE.INTER.SOLV>
17.4152

>  <SCORE.INTER.VDW>
-17.925

>  <SCORE.INTER.norm>
-0.777994

>  <SCORE.INTRA>
-1.58824

>  <SCORE.INTRA.DIHEDRAL>
-1.76407

>  <SCORE.INTRA.DIHEDRAL.0>
3.67053

>  <SCORE.INTRA.POLAR>
0

>  <SCORE.INTRA.POLAR.0>
0

>  <SCORE.INTRA.REPUL>
0

>  <SCORE.INTRA.REPUL.0>
0

>  <SCORE.INTRA.SOLV>
-1.42996

>  <SCORE.INTRA.SOLV.lig_0>
-32.0553

>  <SCORE.INTRA.VDW>
0.00877154

>  <SCORE.INTRA.VDW.0>
-0.571921

>  <SCORE.INTRA.norm>
-0.158824

>  <SCORE.RESTR>
0

>  <SCORE.RESTR.CAVITY>
0

>  <SCORE.RESTR.norm>
0

>  <SCORE.SYSTEM>
0

>  <SCORE.SYSTEM.CONST>
0

>  <SCORE.SYSTEM.DIHEDRAL>
0

>  <SCORE.SYSTEM.SOLV>
0

>  <SCORE.SYSTEM.norm>
0

>  <SCORE.heavy>
10

>  <SCORE.norm>
-0.936819

>  <RMSD>
5.329

$$$$
ligand
 OpenBabel11021811473D
libRbt.so/2013.1/901 2013/11/27
 10  9  0  0  0  0  0  0  0  0999 V2000
   27.8655   14.4933   18.7824 N   0  0  0  0  0  0  0  0  0  0  0  0
   28.0876   14.6655   20.2495 C   0  0  2  0  0  0  0  0  0  0  0  0
   26.7921   14.9981   20.9777 C   0  0  0  0  0  0  0  0  0  0  0  0
   26.7482   15.0735   22.2008 O   0  0  0  0  0  0  0  0  0  0  0  0
   29.1554   15.7282   20.5207 C   0  0  0  0  0  0  0  0  0  0  0  0
   29.5789   15.8115   21.9771 C   0  0  0  0  0  0  0  0  0  0  0  0
   30.5522   16.9593   22.2152 C   0  0  0  0  0  0  0  0  0  0  0  0
   31.8823   16.6864   21.5323 C   0  0  0  0  0  0  0  0  0  0  0  0
   32.8913   17.7800   21.7658 N   0  0  0  0  0  0  0  0  0  0  0  0
   25.7507   15.2331   20.3802 O   0  0  0  0  0  0  0  0  0  0  0  0
  2  1  1  6  0  0  0
  2  3  1  0  0  0  0
  2  5  1  0  0  0  0
  3  4  1  0  0  0  0
  3 10  1  0  0  0  0
  5  6  1  0  0  0  0
  6  7  1  0  0  0  0
  7  8  1  0  0  0  0
  8  9  1  0  0  0  0
M  END
>  <CHROM.1>
174.20369572,-171.49862553,-175.15057549,-67.88957280,-178.65581984,28.89162207
15.74461243,21.07379960,-2.80146908,0.31068046,1.23233112

>  <Name>
ligand

>  <RI>
0

>  <Rbt.Current_Directory>
/home/itssahil/PROJECTS/Mol_Feturizer/New_Systems/rnas/3DIZ

>  <Rbt.Executable>
rbdock ($Id: //depot/dev/client3/rdock/2013.1/src/exe/rbdock.cxx#4 $)

>  <Rbt.Library>
libRbt.so (2013.1, Build901 2013/11/27)

>  <Rbt.Parameter_File>
/export/apps/rDock/src/rDock_2013.1_src/data/scripts/dock_solv.prm

>  <Rbt.Receptor>
prm/pocket_docking_4.prm

>  <SCORE>
-9.52631

>  <SCORE.INTER>
-8.82955

>  <SCORE.INTER.CONST>
1

>  <SCORE.INTER.POLAR>
0

>  <SCORE.INTER.ROT>
5

>  <SCORE.INTER.SOLV>
13.7955

>  <SCORE.INTER.VDW>
-17.4182

>  <SCORE.INTER.norm>
-0.882955

>  <SCORE.INTRA>
-0.696751

>  <SCORE.INTRA.DIHEDRAL>
-1.56739

>  <SCORE.INTRA.DIHEDRAL.0>
3.67053

>  <SCORE.INTRA.POLAR>
0

>  <SCORE.INTRA.POLAR.0>
0

>  <SCORE.INTRA.REPUL>
0

>  <SCORE.INTRA.REPUL.0>
0

>  <SCORE.INTRA.SOLV>
-1.48147

>  <SCORE.INTRA.SOLV.lig_0>
-32.0553

>  <SCORE.INTRA.VDW>
0.827679

>  <SCORE.INTRA.VDW.0>
-0.571921

>  <SCORE.INTRA.norm>
-0.0696751

>  <SCORE.RESTR>
0

>  <SCORE.RESTR.CAVITY>
0

>  <SCORE.RESTR.norm>
0

>  <SCORE.SYSTEM>
0

>  <SCORE.SYSTEM.CONST>
0

>  <SCORE.SYSTEM.DIHEDRAL>
0

>  <SCORE.SYSTEM.SOLV>
0

>  <SCORE.SYSTEM.norm>
0

>  <SCORE.heavy>
10

>  <SCORE.norm>
-0.952631

>  <RMSD>
5.331

$$$$
ligand
 OpenBabel11021811473D
libRbt.so/2013.1/901 2013/11/27
 10  9  0  0  0  0  0  0  0  0999 V2000
   25.6991   14.8218   20.7399 N   0  0  0  0  0  0  0  0  0  0  0  0
   26.9766   15.5271   20.4202 C   0  0  2  0  0  0  0  0  0  0  0  0
   27.4637   15.1963   19.0158 C   0  0  0  0  0  0  0  0  0  0  0  0
   27.1477   14.1499   18.4601 O   0  0  0  0  0  0  0  0  0  0  0  0
   28.0529   15.2090   21.4611 C   0  0  0  0  0  0  0  0  0  0  0  0
   29.3228   16.0263   21.2966 C   0  0  0  0  0  0  0  0  0  0  0  0
   30.3699   15.6548   22.3392 C   0  0  0  0  0  0  0  0  0  0  0  0
   31.6049   16.5290   22.1955 C   0  0  0  0  0  0  0  0  0  0  0  0
   32.3143   16.3226   20.8829 N   0  0  0  0  0  0  0  0  0  0  0  0
   28.1624   15.9659   18.3704 O   0  0  0  0  0  0  0  0  0  0  0  0
  2  1  1  1  0  0  0
  2  3  1  0  0  0  0
  2  5  1  0  0  0  0
  3  4  1  0  0  0  0
  3 10  1  0  0  0  0
  5  6  1  0  0  0  0
  6  7  1  0  0  0  0
  7  8  1  0  0  0  0
  8  9  1  0  0  0  0
M  END
>  <CHROM.1>
-25.18945157,-172.78144610,-178.95842409,-177.36912850,-64.18830287,28.71202014
15.53179154,20.48144707,2.67572698,-0.26270444,-1.60646732

>  <Name>
ligand

>  <RI>
0

>  <Rbt.Current_Directory>
/home/itssahil/PROJECTS/Mol_Feturizer/New_Systems/rnas/3DIZ

>  <Rbt.Executable>
rbdock ($Id: //depot/dev/client3/rdock/2013.1/src/exe/rbdock.cxx#4 $)

>  <Rbt.Library>
libRbt.so (2013.1, Build901 2013/11/27)

>  <Rbt.Parameter_File>
/export/apps/rDock/src/rDock_2013.1_src/data/scripts/dock_solv.prm

>  <Rbt.Receptor>
prm/pocket_docking_6.prm

>  <SCORE>
-9.4533

>  <SCORE.INTER>
-8.04298

>  <SCORE.INTER.CONST>
1

>  <SCORE.INTER.POLAR>
0

>  <SCORE.INTER.ROT>
5

>  <SCORE.INTER.SOLV>
18.0326

>  <SCORE.INTER.VDW>
-18.3062

>  <SCORE.INTER.norm>
-0.804298

>  <SCORE.INTRA>
-1.41032

>  <SCORE.INTRA.DIHEDRAL>
-1.82098

>  <SCORE.INTRA.DIHEDRAL.0>
3.67053

>  <SCORE.INTRA.POLAR>
0

>  <SCORE.INTRA.POLAR.0>
0

>  <SCORE.INTRA.REPUL>
0

>  <SCORE.INTRA.REPUL.0>
0

>  <SCORE.INTRA.SOLV>
-0.793564

>  <SCORE.INTRA.SOLV.lig_0>
-32.0553

>  <SCORE.INTRA.VDW>
-0.103048

>  <SCORE.INTRA.VDW.0>
-0.571921

>  <SCORE.INTRA.norm>
-0.141032

>  <SCORE.RESTR>
0

>  <SCORE.RESTR.CAVITY>
0

>  <SCORE.RESTR.norm>
0

>  <SCORE.SYSTEM>
0

>  <SCORE.SYSTEM.CONST>
0

>  <SCORE.SYSTEM.DIHEDRAL>
0

>  <SCORE.SYSTEM.SOLV>
0

>  <SCORE.SYSTEM.norm>
0

>  <SCORE.heavy>
10

>  <SCORE.norm>
-0.94533

>  <RMSD>
5.334

$$$$
ligand
 OpenBabel11021811473D
libRbt.so/2013.1/901 2013/11/27
 10  9  0  0  0  0  0  0  0  0999 V2000
   28.0439   15.1374   18.9208 N   0  0  0  0  0  0  0  0  0  0  0  0
   28.0675   14.5329   20.2867 C   0  0  2  0  0  0  0  0  0  0  0  0
   26.8767   14.9855   21.1210 C   0  0  0  0  0  0  0  0  0  0  0  0
   25.7611   15.1092   20.6274 O   0  0  0  0  0  0  0  0  0  0  0  0
   29.3852   14.8447   21.0006 C   0  0  0  0  0  0  0  0  0  0  0  0
   29.6427   16.3300   21.1873 C   0  0  0  0  0  0  0  0  0  0  0  0
   31.0070   16.5901   21.8138 C   0  0  0  0  0  0  0  0  0  0  0  0
   31.2160   18.0772   22.0482 C   0  0  0  0  0  0  0  0  0  0  0  0
   32.5806   18.3927   22.6023 N   0  0  0  0  0  0  0  0  0  0  0  0
   26.9704   15.2160   22.3190 O   0  0  0  0  0  0  0  0  0  0  0  0
  2  1  1  6  0  0  0
  2  3  1  0  0  0  0
  2  5  1  0  0  0  0
  3  4  1  0  0  0  0
  3 10  1  0  0  0  0
  5  6  1  0  0  0  0
  6  7  1  0  0  0  0
  7  8  1  0  0  0  0
  8  9  1  0  0  0  0
M  END
>  <CHROM.1>
39.18553877,60.22734033,-176.04635420,-177.44810825,-177.07667294,28.91836492
15.92339098,21.20816792,-2.67523095,0.36412369,1.10645933

>  <Name>
ligand

>  <RI>
0

>  <Rbt.Current_Directory>
/home/itssahil/PROJECTS/Mol_Feturizer/New_Systems/rnas/3DIZ

>  <Rbt.Executable>
rbdock ($Id: //depot/dev/client3/rdock/2013.1/src/exe/rbdock.cxx#4 $)

>  <Rbt.Library>
libRbt.so (2013.1, Build901 2013/11/27)

>  <Rbt.Parameter_File>
/export/apps/rDock/src/rDock_2013.1_src/data/scripts/dock_solv.prm

>  <Rbt.Receptor>
prm/pocket_docking_5.prm

>  <SCORE>
-9.82912

>  <SCORE.INTER>
-8.89801

>  <SCORE.INTER.CONST>
1

>  <SCORE.INTER.POLAR>
0

>  <SCORE.INTER.ROT>
5

>  <SCORE.INTER.SOLV>
13.8785

>  <SCORE.INTER.VDW>
-17.4915

>  <SCORE.INTER.norm>
-0.889801

>  <SCORE.INTRA>
-0.931115

>  <SCORE.INTRA.DIHEDRAL>
-2.10049

>  <SCORE.INTRA.DIHEDRAL.0>
3.67053

>  <SCORE.INTRA.POLAR>
0

>  <SCORE.INTRA.POLAR.0>
0

>  <SCORE.INTRA.REPUL>
0

>  <SCORE.INTRA.REPUL.0>
0

>  <SCORE.INTRA.SOLV>
-0.807405

>  <SCORE.INTRA.SOLV.lig_0>
-32.0553

>  <SCORE.INTRA.VDW>
0.522832

>  <SCORE.INTRA.VDW.0>
-0.571921

>  <SCORE.INTRA.norm>
-0.0931115

>  <SCORE.RESTR>
0

>  <SCORE.RESTR.CAVITY>
0

>  <SCORE.RESTR.norm>
0

>  <SCORE.SYSTEM>
0

>  <SCORE.SYSTEM.CONST>
0

>  <SCORE.SYSTEM.DIHEDRAL>
0

>  <SCORE.SYSTEM.SOLV>
0

>  <SCORE.SYSTEM.norm>
0

>  <SCORE.heavy>
10

>  <SCORE.norm>
-0.982912

>  <RMSD>
5.344

$$$$
ligand
 OpenBabel11021811473D
libRbt.so/2013.1/901 2013/11/27
 10  9  0  0  0  0  0  0  0  0999 V2000
   28.8791   14.0219   19.8166 N   0  0  0  0  0  0  0  0  0  0  0  0
   28.2283   14.3033   21.1314 C   0  0  2  0  0  0  0  0  0  0  0  0
   26.9743   15.1514   20.9665 C   0  0  0  0  0  0  0  0  0  0  0  0
   26.9764   16.1680   20.2808 O   0  0  0  0  0  0  0  0  0  0  0  0
   29.2125   14.9652   22.0990 C   0  0  0  0  0  0  0  0  0  0  0  0
   29.9292   16.1696   21.5130 C   0  0  0  0  0  0  0  0  0  0  0  0
   31.1214   16.5849   22.3661 C   0  0  0  0  0  0  0  0  0  0  0  0
   31.8331   17.7782   21.7501 C   0  0  0  0  0  0  0  0  0  0  0  0
   33.0276   18.2214   22.5536 N   0  0  0  0  0  0  0  0  0  0  0  0
   25.9077   14.8446   21.4816 O   0  0  0  0  0  0  0  0  0  0  0  0
  2  1  1  6  0  0  0
  2  3  1  0  0  0  0
  2  5  1  0  0  0  0
  3  4  1  0  0  0  0
  3 10  1  0  0  0  0
  5  6  1  0  0  0  0
  6  7  1  0  0  0  0
  7  8  1  0  0  0  0
  8  9  1  0  0  0  0
M  END
>  <CHROM.1>
-48.23202992,50.85981783,-166.22450717,179.20303592,-179.59710470,29.17002999
15.83235920,21.38956033,-2.62130857,-0.10053815,0.29206281

>  <Name>
ligand

>  <RI>
0

>  <Rbt.Current_Directory>
/home/itssahil/PROJECTS/Mol_Feturizer/New_Systems/rnas/3DIZ

>  <Rbt.Executable>
rbdock ($Id: //depot/dev/client3/rdock/2013.1/src/exe/rbdock.cxx#4 $)

>  <Rbt.Library>
libRbt.so (2013.1, Build901 2013/11/27)

>  <Rbt.Parameter_File>
/export/apps/rDock/src/rDock_2013.1_src/data/scripts/dock_solv.prm

>  <Rbt.Receptor>
prm/pocket_docking_2.prm

>  <SCORE>
-7.9606

>  <SCORE.INTER>
-7.05191

>  <SCORE.INTER.CONST>
1

>  <SCORE.INTER.POLAR>
0

>  <SCORE.INTER.ROT>
5

>  <SCORE.INTER.SOLV>
15.9489

>  <SCORE.INTER.VDW>
-16.9509

>  <SCORE.INTER.norm>
-0.705191

>  <SCORE.INTRA>
-0.990145

>  <SCORE.INTRA.DIHEDRAL>
-1.02829

>  <SCORE.INTRA.DIHEDRAL.0>
3.67053

>  <SCORE.INTRA.POLAR>
0

>  <SCORE.INTRA.POLAR.0>
0

>  <SCORE.INTRA.REPUL>
0

>  <SCORE.INTRA.REPUL.0>
0

>  <SCORE.INTRA.SOLV>
-0.632302

>  <SCORE.INTRA.SOLV.lig_0>
-32.0553

>  <SCORE.INTRA.VDW>
-0.15985

>  <SCORE.INTRA.VDW.0>
-0.571921

>  <SCORE.INTRA.norm>
-0.0990145

>  <SCORE.RESTR>
0.0814552

>  <SCORE.RESTR.CAVITY>
0.0814552

>  <SCORE.RESTR.norm>
0.00814552

>  <SCORE.SYSTEM>
0

>  <SCORE.SYSTEM.CONST>
0

>  <SCORE.SYSTEM.DIHEDRAL>
0

>  <SCORE.SYSTEM.SOLV>
0

>  <SCORE.SYSTEM.norm>
0

>  <SCORE.heavy>
10

>  <SCORE.norm>
-0.79606

>  <RMSD>
5.345

$$$$
ligand
 OpenBabel11021811473D
libRbt.so/2013.1/901 2013/11/27
 10  9  0  0  0  0  0  0  0  0999 V2000
   25.9546   15.0728   20.9091 N   0  0  0  0  0  0  0  0  0  0  0  0
   27.3729   15.3731   20.5488 C   0  0  2  0  0  0  0  0  0  0  0  0
   27.6344   15.1490   19.0654 C   0  0  0  0  0  0  0  0  0  0  0  0
   27.2375   14.1403   18.4922 O   0  0  0  0  0  0  0  0  0  0  0  0
   28.3408   14.5520   21.4045 C   0  0  0  0  0  0  0  0  0  0  0  0
   29.8033   14.8832   21.1616 C   0  0  0  0  0  0  0  0  0  0  0  0
   30.1731   16.2475   21.7304 C   0  0  0  0  0  0  0  0  0  0  0  0
   31.6520   16.5320   21.5256 C   0  0  0  0  0  0  0  0  0  0  0  0
   32.0785   17.8494   22.1183 N   0  0  0  0  0  0  0  0  0  0  0  0
   28.2214   15.9716   18.3757 O   0  0  0  0  0  0  0  0  0  0  0  0
  2  1  1  1  0  0  0
  2  3  1  0  0  0  0
  2  5  1  0  0  0  0
  3  4  1  0  0  0  0
  3 10  1  0  0  0  0
  5  6  1  0  0  0  0
  6  7  1  0  0  0  0
  7  8  1  0  0  0  0
  8  9  1  0  0  0  0
M  END
>  <CHROM.1>
-45.95259048,-175.73549826,71.73270389,177.69279959,-177.83759017,28.84340434
15.56984237,20.49504122,2.71050228,-0.46599635,-1.50082856

>  <Name>
ligand

>  <RI>
0

>  <Rbt.Current_Directory>
/home/itssahil/PROJECTS/Mol_Feturizer/New_Systems/rnas/3DIZ

>  <Rbt.Executable>
rbdock ($Id: //depot/dev/client3/rdock/2013.1/src/exe/rbdock.cxx#4 $)

>  <Rbt.Library>
libRbt.so (2013.1, Build901 2013/11/27)

>  <Rbt.Parameter_File>
/export/apps/rDock/src/rDock_2013.1_src/data/scripts/dock_solv.prm

>  <Rbt.Receptor>
prm/pocket_docking_3.prm

>  <SCORE>
-8.98683

>  <SCORE.INTER>
-7.31541

>  <SCORE.INTER.CONST>
1

>  <SCORE.INTER.POLAR>
0

>  <SCORE.INTER.ROT>
5

>  <SCORE.INTER.SOLV>
18.0552

>  <SCORE.INTER.VDW>
-17.8287

>  <SCORE.INTER.norm>
-0.731541

>  <SCORE.INTRA>
-1.67141

>  <SCORE.INTRA.DIHEDRAL>
-1.46962

>  <SCORE.INTRA.DIHEDRAL.0>
3.67053

>  <SCORE.INTRA.POLAR>
0

>  <SCORE.INTRA.POLAR.0>
0

>  <SCORE.INTRA.REPUL>
0

>  <SCORE.INTRA.REPUL.0>
0

>  <SCORE.INTRA.SOLV>
-1.49968

>  <SCORE.INTRA.SOLV.lig_0>
-32.0553

>  <SCORE.INTRA.VDW>
-0.186763

>  <SCORE.INTRA.VDW.0>
-0.571921

>  <SCORE.INTRA.norm>
-0.167141

>  <SCORE.RESTR>
0

>  <SCORE.RESTR.CAVITY>
0

>  <SCORE.RESTR.norm>
0

>  <SCORE.SYSTEM>
0

>  <SCORE.SYSTEM.CONST>
0

>  <SCORE.SYSTEM.DIHEDRAL>
0

>  <SCORE.SYSTEM.SOLV>
0

>  <SCORE.SYSTEM.norm>
0

>  <SCORE.heavy>
10

>  <SCORE.norm>
-0.898683

>  <RMSD>
5.346

$$$$
ligand
 OpenBabel11021811473D
libRbt.so/2013.1/901 2013/11/27
 10  9  0  0  0  0  0  0  0  0999 V2000
   28.9492   14.7446   19.3938 N   0  0  0  0  0  0  0  0  0  0  0  0
   28.4017   15.1004   20.7374 C   0  0  2  0  0  0  0  0  0  0  0  0
   26.8830   15.2101   20.7131 C   0  0  0  0  0  0  0  0  0  0  0  0
   26.2976   15.7675   19.7910 O   0  0  0  0  0  0  0  0  0  0  0  0
   29.0347   16.3915   21.2622 C   0  0  0  0  0  0  0  0  0  0  0  0
   30.5370   16.2968   21.4661 C   0  0  0  0  0  0  0  0  0  0  0  0
   31.1295   17.6283   21.9103 C   0  0  0  0  0  0  0  0  0  0  0  0
   32.6363   17.5174   22.0758 C   0  0  0  0  0  0  0  0  0  0  0  0
   33.3380   17.1613   20.7915 N   0  0  0  0  0  0  0  0  0  0  0  0
   26.1806   14.7251   21.5897 O   0  0  0  0  0  0  0  0  0  0  0  0
  2  1  1  6  0  0  0
  2  3  1  0  0  0  0
  2  5  1  0  0  0  0
  3  4  1  0  0  0  0
  3 10  1  0  0  0  0
  5  6  1  0  0  0  0
  6  7  1  0  0  0  0
  7  8  1  0  0  0  0
  8  9  1  0  0  0  0
M  END
>  <CHROM.1>
-42.52325484,-62.06477860,176.66620087,-178.66009084,61.58994627,29.29335012
16.05061735,20.97082632,-2.83201642,0.24662675,1.06184017

>  <Name>
ligand

>  <RI>
0

>  <Rbt.Current_Directory>
/home/itssahil/PROJECTS/Mol_Feturizer/New_Systems/rnas/3DIZ

>  <Rbt.Executable>
rbdock ($Id: //depot/dev/client3/rdock/2013.1/src/exe/rbdock.cxx#4 $)

>  <Rbt.Library>
libRbt.so (2013.1, Build901 2013/11/27)

>  <Rbt.Parameter_File>
/export/apps/rDock/src/rDock_2013.1_src/data/scripts/dock_solv.prm

>  <Rbt.Receptor>
prm/pocket_docking_6.prm

>  <SCORE>
-9.7448

>  <SCORE.INTER>
-8.6293

>  <SCORE.INTER.CONST>
1

>  <SCORE.INTER.POLAR>
0

>  <SCORE.INTER.ROT>
5

>  <SCORE.INTER.SOLV>
13.176

>  <SCORE.INTER.VDW>
-17.0782

>  <SCORE.INTER.norm>
-0.86293

>  <SCORE.INTRA>
-1.11549

>  <SCORE.INTRA.DIHEDRAL>
-2.03769

>  <SCORE.INTRA.DIHEDRAL.0>
3.67053

>  <SCORE.INTRA.POLAR>
0

>  <SCORE.INTRA.POLAR.0>
0

>  <SCORE.INTRA.REPUL>
0

>  <SCORE.INTRA.REPUL.0>
0

>  <SCORE.INTRA.SOLV>
0.14558

>  <SCORE.INTRA.SOLV.lig_0>
-32.0553

>  <SCORE.INTRA.VDW>
-0.169439

>  <SCORE.INTRA.VDW.0>
-0.571921

>  <SCORE.INTRA.norm>
-0.111549

>  <SCORE.RESTR>
0

>  <SCORE.RESTR.CAVITY>
0

>  <SCORE.RESTR.norm>
0

>  <SCORE.SYSTEM>
0

>  <SCORE.SYSTEM.CONST>
0

>  <SCORE.SYSTEM.DIHEDRAL>
0

>  <SCORE.SYSTEM.SOLV>
0

>  <SCORE.SYSTEM.norm>
0

>  <SCORE.heavy>
10

>  <SCORE.norm>
-0.97448

>  <RMSD>
5.347

$$$$
ligand
 OpenBabel11021811473D
libRbt.so/2013.1/901 2013/11/27
 10  9  0  0  0  0  0  0  0  0999 V2000
   25.7124   14.9543   20.6647 N   0  0  0  0  0  0  0  0  0  0  0  0
   27.0573   15.4476   20.2413 C   0  0  2  0  0  0  0  0  0  0  0  0
   27.6024   14.6498   19.0643 C   0  0  0  0  0  0  0  0  0  0  0  0
   26.9412   13.7655   18.5311 O   0  0  0  0  0  0  0  0  0  0  0  0
   28.0405   15.4320   21.4144 C   0  0  0  0  0  0  0  0  0  0  0  0
   29.3144   16.2176   21.1548 C   0  0  0  0  0  0  0  0  0  0  0  0
   30.2918   16.1050   22.3182 C   0  0  0  0  0  0  0  0  0  0  0  0
   31.5482   16.9153   22.0447 C   0  0  0  0  0  0  0  0  0  0  0  0
   32.3390   16.3860   20.8771 N   0  0  0  0  0  0  0  0  0  0  0  0
   28.7041   14.8723   18.5807 O   0  0  0  0  0  0  0  0  0  0  0  0
  2  1  1  1  0  0  0
  2  3  1  0  0  0  0
  2  5  1  0  0  0  0
  3  4  1  0  0  0  0
  3 10  1  0  0  0  0
  5  6  1  0  0  0  0
  6  7  1  0  0  0  0
  7  8  1  0  0  0  0
  8  9  1  0  0  0  0
M  END
>  <CHROM.1>
3.28956077,-166.23942494,-176.72964420,-179.14803019,-64.92436053,28.75756679
15.45415116,20.45714121,2.58741835,-0.20072552,-1.97703122

>  <Name>
ligand

>  <RI>
0

>  <Rbt.Current_Directory>
/home/itssahil/PROJECTS/Mol_Feturizer/New_Systems/rnas/3DIZ

>  <Rbt.Executable>
rbdock ($Id: //depot/dev/client3/rdock/2013.1/src/exe/rbdock.cxx#4 $)

>  <Rbt.Library>
libRbt.so (2013.1, Build901 2013/11/27)

>  <Rbt.Parameter_File>
/export/apps/rDock/src/rDock_2013.1_src/data/scripts/dock_solv.prm

>  <Rbt.Receptor>
prm/pocket_docking_5.prm

>  <SCORE>
-8.5091

>  <SCORE.INTER>
-7.57396

>  <SCORE.INTER.CONST>
1

>  <SCORE.INTER.POLAR>
0

>  <SCORE.INTER.ROT>
5

>  <SCORE.INTER.SOLV>
17.4558

>  <SCORE.INTER.VDW>
-17.8013

>  <SCORE.INTER.norm>
-0.757396

>  <SCORE.INTRA>
-0.93514

>  <SCORE.INTRA.DIHEDRAL>
-1.34838

>  <SCORE.INTRA.DIHEDRAL.0>
3.67053

>  <SCORE.INTRA.POLAR>
0

>  <SCORE.INTRA.POLAR.0>
0

>  <SCORE.INTRA.REPUL>
0

>  <SCORE.INTRA.REPUL.0>
0

>  <SCORE.INTRA.SOLV>
-0.784724

>  <SCORE.INTRA.SOLV.lig_0>
-32.0553

>  <SCORE.INTRA.VDW>
0.131412

>  <SCORE.INTRA.VDW.0>
-0.571921

>  <SCORE.INTRA.norm>
-0.093514

>  <SCORE.RESTR>
0

>  <SCORE.RESTR.CAVITY>
0

>  <SCORE.RESTR.norm>
0

>  <SCORE.SYSTEM>
0

>  <SCORE.SYSTEM.CONST>
0

>  <SCORE.SYSTEM.DIHEDRAL>
0

>  <SCORE.SYSTEM.SOLV>
0

>  <SCORE.SYSTEM.norm>
0

>  <SCORE.heavy>
10

>  <SCORE.norm>
-0.85091

>  <RMSD>
5.349

$$$$
ligand
 OpenBabel11021811473D
libRbt.so/2013.1/901 2013/11/27
 10  9  0  0  0  0  0  0  0  0999 V2000
   25.9208   15.0621   20.8918 N   0  0  0  0  0  0  0  0  0  0  0  0
   27.3355   15.3887   20.5403 C   0  0  2  0  0  0  0  0  0  0  0  0
   27.6045   15.1903   19.0546 C   0  0  0  0  0  0  0  0  0  0  0  0
   27.2004   14.1973   18.4594 O   0  0  0  0  0  0  0  0  0  0  0  0
   28.3130   14.5696   21.3870 C   0  0  0  0  0  0  0  0  0  0  0  0
   29.7727   14.8980   21.1245 C   0  0  0  0  0  0  0  0  0  0  0  0
   30.1564   16.2551   21.7009 C   0  0  0  0  0  0  0  0  0  0  0  0
   31.6327   16.5371   21.4745 C   0  0  0  0  0  0  0  0  0  0  0  0
   32.0879   17.8151   22.1289 N   0  0  0  0  0  0  0  0  0  0  0  0
   28.2052   16.0195   18.3848 O   0  0  0  0  0  0  0  0  0  0  0  0
  2  1  1  6  0  0  0
  2  3  1  0  0  0  0
  2  5  1  0  0  0  0
  3  4  1  0  0  0  0
  3 10  1  0  0  0  0
  5  6  1  0  0  0  0
  6  7  1  0  0  0  0
  7  8  1  0  0  0  0
  8  9  1  0  0  0  0
M  END
>  <CHROM.1>
-44.43116157,-177.39664897,72.55107151,177.75539926,-175.13013193,28.81956057
15.58669061,20.47656663,2.71806810,-0.46008246,-1.49051948

>  <Name>
ligand

>  <RI>
0

>  <Rbt.Current_Directory>
/home/itssahil/PROJECTS/Mol_Feturizer/New_Systems/rnas/3DIZ

>  <Rbt.Executable>
rbdock ($Id: //depot/dev/client3/rdock/2013.1/src/exe/rbdock.cxx#4 $)

>  <Rbt.Library>
libRbt.so (2013.1, Build901 2013/11/27)

>  <Rbt.Parameter_File>
/export/apps/rDock/src/rDock_2013.1_src/data/scripts/dock_solv.prm

>  <Rbt.Receptor>
prm/pocket_docking_6.prm

>  <SCORE>
-8.96839

>  <SCORE.INTER>
-7.36286

>  <SCORE.INTER.CONST>
1

>  <SCORE.INTER.POLAR>
0

>  <SCORE.INTER.ROT>
5

>  <SCORE.INTER.SOLV>
17.9952

>  <SCORE.INTER.VDW>
-17.8403

>  <SCORE.INTER.norm>
-0.736286

>  <SCORE.INTRA>
-1.60553

>  <SCORE.INTRA.DIHEDRAL>
-1.35866

>  <SCORE.INTRA.DIHEDRAL.0>
3.67053

>  <SCORE.INTRA.POLAR>
0

>  <SCORE.INTRA.POLAR.0>
0

>  <SCORE.INTRA.REPUL>
0

>  <SCORE.INTRA.REPUL.0>
0

>  <SCORE.INTRA.SOLV>
-1.51336

>  <SCORE.INTRA.SOLV.lig_0>
-32.0553

>  <SCORE.INTRA.VDW>
-0.169521

>  <SCORE.INTRA.VDW.0>
-0.571921

>  <SCORE.INTRA.norm>
-0.160553

>  <SCORE.RESTR>
0

>  <SCORE.RESTR.CAVITY>
0

>  <SCORE.RESTR.norm>
0

>  <SCORE.SYSTEM>
0

>  <SCORE.SYSTEM.CONST>
0

>  <SCORE.SYSTEM.DIHEDRAL>
0

>  <SCORE.SYSTEM.SOLV>
0

>  <SCORE.SYSTEM.norm>
0

>  <SCORE.heavy>
10

>  <SCORE.norm>
-0.896839

>  <RMSD>
5.352

$$$$
ligand
 OpenBabel11021811473D
libRbt.so/2013.1/901 2013/11/27
 10  9  0  0  0  0  0  0  0  0999 V2000
   25.6548   14.8500   20.7894 N   0  0  0  0  0  0  0  0  0  0  0  0
   26.9406   15.5215   20.4326 C   0  0  2  0  0  0  0  0  0  0  0  0
   27.4000   15.1447   19.0304 C   0  0  0  0  0  0  0  0  0  0  0  0
   27.0910   14.0716   18.5239 O   0  0  0  0  0  0  0  0  0  0  0  0
   28.0262   15.2097   21.4657 C   0  0  0  0  0  0  0  0  0  0  0  0
   29.2958   16.0234   21.2829 C   0  0  0  0  0  0  0  0  0  0  0  0
   30.3674   15.6284   22.2914 C   0  0  0  0  0  0  0  0  0  0  0  0
   31.6122   16.4823   22.1150 C   0  0  0  0  0  0  0  0  0  0  0  0
   32.2367   16.3260   20.7532 N   0  0  0  0  0  0  0  0  0  0  0  0
   28.0680   15.9010   18.3384 O   0  0  0  0  0  0  0  0  0  0  0  0
  2  1  1  1  0  0  0
  2  3  1  0  0  0  0
  2  5  1  0  0  0  0
  3  4  1  0  0  0  0
  3 10  1  0  0  0  0
  5  6  1  0  0  0  0
  6  7  1  0  0  0  0
  7  8  1  0  0  0  0
  8  9  1  0  0  0  0
M  END
>  <CHROM.1>
-27.56805879,-171.28295959,-177.22218835,-178.37800934,-61.13831378,28.66918874
15.50629421,20.46583889,2.69349409,-0.25797923,-1.61893357

>  <Name>
ligand

>  <RI>
0

>  <Rbt.Current_Directory>
/home/itssahil/PROJECTS/Mol_Feturizer/New_Systems/rnas/3DIZ

>  <Rbt.Executable>
rbdock ($Id: //depot/dev/client3/rdock/2013.1/src/exe/rbdock.cxx#4 $)

>  <Rbt.Library>
libRbt.so (2013.1, Build901 2013/11/27)

>  <Rbt.Parameter_File>
/export/apps/rDock/src/rDock_2013.1_src/data/scripts/dock_solv.prm

>  <Rbt.Receptor>
prm/pocket_docking_3.prm

>  <SCORE>
-9.48893

>  <SCORE.INTER>
-8.10133

>  <SCORE.INTER.CONST>
1

>  <SCORE.INTER.POLAR>
0

>  <SCORE.INTER.ROT>
5

>  <SCORE.INTER.SOLV>
18.2346

>  <SCORE.INTER.VDW>
-18.4124

>  <SCORE.INTER.norm>
-0.810133

>  <SCORE.INTRA>
-1.38759

>  <SCORE.INTRA.DIHEDRAL>
-1.7832

>  <SCORE.INTRA.DIHEDRAL.0>
3.67053

>  <SCORE.INTRA.POLAR>
0

>  <SCORE.INTRA.POLAR.0>
0

>  <SCORE.INTRA.REPUL>
0

>  <SCORE.INTRA.REPUL.0>
0

>  <SCORE.INTRA.SOLV>
-0.743821

>  <SCORE.INTRA.SOLV.lig_0>
-32.0553

>  <SCORE.INTRA.VDW>
-0.124084

>  <SCORE.INTRA.VDW.0>
-0.571921

>  <SCORE.INTRA.norm>
-0.138759

>  <SCORE.RESTR>
0

>  <SCORE.RESTR.CAVITY>
0

>  <SCORE.RESTR.norm>
0

>  <SCORE.SYSTEM>
0

>  <SCORE.SYSTEM.CONST>
0

>  <SCORE.SYSTEM.DIHEDRAL>
0

>  <SCORE.SYSTEM.SOLV>
0

>  <SCORE.SYSTEM.norm>
0

>  <SCORE.heavy>
10

>  <SCORE.norm>
-0.948893

>  <RMSD>
5.353

$$$$
ligand
 OpenBabel11021811473D
libRbt.so/2013.1/901 2013/11/27
 10  9  0  0  0  0  0  0  0  0999 V2000
   28.5789   14.3472   19.0311 N   0  0  0  0  0  0  0  0  0  0  0  0
   28.0129   14.3069   20.4129 C   0  0  2  0  0  0  0  0  0  0  0  0
   26.7607   15.1655   20.5314 C   0  0  0  0  0  0  0  0  0  0  0  0
   26.6492   16.2206   19.9167 O   0  0  0  0  0  0  0  0  0  0  0  0
   29.0618   14.7245   21.4467 C   0  0  0  0  0  0  0  0  0  0  0  0
   29.6068   16.1262   21.2326 C   0  0  0  0  0  0  0  0  0  0  0  0
   30.8065   16.4063   22.1290 C   0  0  0  0  0  0  0  0  0  0  0  0
   31.3672   17.7928   21.8585 C   0  0  0  0  0  0  0  0  0  0  0  0
   32.6495   18.0572   22.6032 N   0  0  0  0  0  0  0  0  0  0  0  0
   25.8036   14.8307   21.2161 O   0  0  0  0  0  0  0  0  0  0  0  0
  2  1  1  6  0  0  0
  2  3  1  0  0  0  0
  2  5  1  0  0  0  0
  3  4  1  0  0  0  0
  3 10  1  0  0  0  0
  5  6  1  0  0  0  0
  6  7  1  0  0  0  0
  7  8  1  0  0  0  0
  8  9  1  0  0  0  0
M  END
>  <CHROM.1>
-35.71540941,59.40388362,-170.23942327,177.78381455,-173.31610202,28.89119133
15.80974430,21.03639971,-2.57564393,-0.02571914,0.58912479

>  <Name>
ligand

>  <RI>
0

>  <Rbt.Current_Directory>
/home/itssahil/PROJECTS/Mol_Feturizer/New_Systems/rnas/3DIZ

>  <Rbt.Executable>
rbdock ($Id: //depot/dev/client3/rdock/2013.1/src/exe/rbdock.cxx#4 $)

>  <Rbt.Library>
libRbt.so (2013.1, Build901 2013/11/27)

>  <Rbt.Parameter_File>
/export/apps/rDock/src/rDock_2013.1_src/data/scripts/dock_solv.prm

>  <Rbt.Receptor>
prm/pocket_docking_5.prm

>  <SCORE>
-9.61348

>  <SCORE.INTER>
-8.30494

>  <SCORE.INTER.CONST>
1

>  <SCORE.INTER.POLAR>
0

>  <SCORE.INTER.ROT>
5

>  <SCORE.INTER.SOLV>
14.3071

>  <SCORE.INTER.VDW>
-17.239

>  <SCORE.INTER.norm>
-0.830494

>  <SCORE.INTRA>
-1.30854

>  <SCORE.INTRA.DIHEDRAL>
-1.52957

>  <SCORE.INTRA.DIHEDRAL.0>
3.67053

>  <SCORE.INTRA.POLAR>
0

>  <SCORE.INTRA.POLAR.0>
0

>  <SCORE.INTRA.REPUL>
0

>  <SCORE.INTRA.REPUL.0>
0

>  <SCORE.INTRA.SOLV>
-0.75005

>  <SCORE.INTRA.SOLV.lig_0>
-32.0553

>  <SCORE.INTRA.VDW>
-0.168725

>  <SCORE.INTRA.VDW.0>
-0.571921

>  <SCORE.INTRA.norm>
-0.130854

>  <SCORE.RESTR>
0

>  <SCORE.RESTR.CAVITY>
0

>  <SCORE.RESTR.norm>
0

>  <SCORE.SYSTEM>
0

>  <SCORE.SYSTEM.CONST>
0

>  <SCORE.SYSTEM.DIHEDRAL>
0

>  <SCORE.SYSTEM.SOLV>
0

>  <SCORE.SYSTEM.norm>
0

>  <SCORE.heavy>
10

>  <SCORE.norm>
-0.961348

>  <RMSD>
5.353

$$$$
ligand
 OpenBabel11021811473D
libRbt.so/2013.1/901 2013/11/27
 10  9  0  0  0  0  0  0  0  0999 V2000
   28.0193   15.0692   18.9126 N   0  0  0  0  0  0  0  0  0  0  0  0
   28.0061   14.4545   20.2740 C   0  0  2  0  0  0  0  0  0  0  0  0
   26.8168   14.9348   21.0949 C   0  0  0  0  0  0  0  0  0  0  0  0
   26.9313   15.2112   22.2840 O   0  0  0  0  0  0  0  0  0  0  0  0
   29.3217   14.7233   21.0089 C   0  0  0  0  0  0  0  0  0  0  0  0
   29.6255   16.1996   21.1982 C   0  0  0  0  0  0  0  0  0  0  0  0
   30.9896   16.4153   21.8417 C   0  0  0  0  0  0  0  0  0  0  0  0
   31.2854   17.8987   21.9897 C   0  0  0  0  0  0  0  0  0  0  0  0
   32.6699   18.1659   22.5194 N   0  0  0  0  0  0  0  0  0  0  0  0
   25.7078   15.0946   20.6033 O   0  0  0  0  0  0  0  0  0  0  0  0
  2  1  1  6  0  0  0
  2  3  1  0  0  0  0
  2  5  1  0  0  0  0
  3  4  1  0  0  0  0
  3 10  1  0  0  0  0
  5  6  1  0  0  0  0
  6  7  1  0  0  0  0
  7  8  1  0  0  0  0
  8  9  1  0  0  0  0
M  END
>  <CHROM.1>
-138.93616882,59.64585057,-175.83607306,178.61779082,-175.37977976,28.90070221
15.82023181,21.18790175,-2.69634371,0.33520390,1.11013519

>  <Name>
ligand

>  <RI>
0

>  <Rbt.Current_Directory>
/home/itssahil/PROJECTS/Mol_Feturizer/New_Systems/rnas/3DIZ

>  <Rbt.Executable>
rbdock ($Id: //depot/dev/client3/rdock/2013.1/src/exe/rbdock.cxx#4 $)

>  <Rbt.Library>
libRbt.so (2013.1, Build901 2013/11/27)

>  <Rbt.Parameter_File>
/export/apps/rDock/src/rDock_2013.1_src/data/scripts/dock_solv.prm

>  <Rbt.Receptor>
prm/pocket_docking_4.prm

>  <SCORE>
-9.77157

>  <SCORE.INTER>
-9.04108

>  <SCORE.INTER.CONST>
1

>  <SCORE.INTER.POLAR>
0

>  <SCORE.INTER.ROT>
5

>  <SCORE.INTER.SOLV>
13.573

>  <SCORE.INTER.VDW>
-17.4851

>  <SCORE.INTER.norm>
-0.904108

>  <SCORE.INTRA>
-0.73049

>  <SCORE.INTRA.DIHEDRAL>
-1.95216

>  <SCORE.INTRA.DIHEDRAL.0>
3.67053

>  <SCORE.INTRA.POLAR>
0

>  <SCORE.INTRA.POLAR.0>
0

>  <SCORE.INTRA.REPUL>
0

>  <SCORE.INTRA.REPUL.0>
0

>  <SCORE.INTRA.SOLV>
-0.794716

>  <SCORE.INTRA.SOLV.lig_0>
-32.0553

>  <SCORE.INTRA.VDW>
0.642945

>  <SCORE.INTRA.VDW.0>
-0.571921

>  <SCORE.INTRA.norm>
-0.073049

>  <SCORE.RESTR>
0

>  <SCORE.RESTR.CAVITY>
0

>  <SCORE.RESTR.norm>
0

>  <SCORE.SYSTEM>
0

>  <SCORE.SYSTEM.CONST>
0

>  <SCORE.SYSTEM.DIHEDRAL>
0

>  <SCORE.SYSTEM.SOLV>
0

>  <SCORE.SYSTEM.norm>
0

>  <SCORE.heavy>
10

>  <SCORE.norm>
-0.977157

>  <RMSD>
5.354

$$$$
ligand
 OpenBabel11021811473D
libRbt.so/2013.1/901 2013/11/27
 10  9  0  0  0  0  0  0  0  0999 V2000
   28.0206   15.1104   18.9205 N   0  0  0  0  0  0  0  0  0  0  0  0
   28.0072   14.4709   20.2704 C   0  0  2  0  0  0  0  0  0  0  0  0
   26.8164   14.9342   21.0989 C   0  0  0  0  0  0  0  0  0  0  0  0
   26.9294   15.1890   22.2930 O   0  0  0  0  0  0  0  0  0  0  0  0
   29.3218   14.7284   21.0113 C   0  0  0  0  0  0  0  0  0  0  0  0
   29.6531   16.2020   21.1740 C   0  0  0  0  0  0  0  0  0  0  0  0
   31.0173   16.4036   21.8220 C   0  0  0  0  0  0  0  0  0  0  0  0
   31.3517   17.8829   21.9211 C   0  0  0  0  0  0  0  0  0  0  0  0
   32.7312   18.1319   22.4723 N   0  0  0  0  0  0  0  0  0  0  0  0
   25.7076   15.1012   20.6093 O   0  0  0  0  0  0  0  0  0  0  0  0
  2  1  1  6  0  0  0
  2  3  1  0  0  0  0
  2  5  1  0  0  0  0
  3  4  1  0  0  0  0
  3 10  1  0  0  0  0
  5  6  1  0  0  0  0
  6  7  1  0  0  0  0
  7  8  1  0  0  0  0
  8  9  1  0  0  0  0
M  END
>  <CHROM.1>
-138.94205256,57.10167656,-175.70261795,177.63484525,-176.19935459,28.91882414
15.81866079,21.17476782,-2.72325616,0.34596482,1.14332266

>  <Name>
ligand

>  <RI>
0

>  <Rbt.Current_Directory>
/home/itssahil/PROJECTS/Mol_Feturizer/New_Systems/rnas/3DIZ

>  <Rbt.Executable>
rbdock ($Id: //depot/dev/client3/rdock/2013.1/src/exe/rbdock.cxx#4 $)

>  <Rbt.Library>
libRbt.so (2013.1, Build901 2013/11/27)

>  <Rbt.Parameter_File>
/export/apps/rDock/src/rDock_2013.1_src/data/scripts/dock_solv.prm

>  <Rbt.Receptor>
prm/pocket_docking_5.prm

>  <SCORE>
-9.84319

>  <SCORE.INTER>
-9.12744

>  <SCORE.INTER.CONST>
1

>  <SCORE.INTER.POLAR>
0

>  <SCORE.INTER.ROT>
5

>  <SCORE.INTER.SOLV>
13.4359

>  <SCORE.INTER.VDW>
-17.4969

>  <SCORE.INTER.norm>
-0.912744

>  <SCORE.INTRA>
-0.715757

>  <SCORE.INTRA.DIHEDRAL>
-1.91958

>  <SCORE.INTRA.DIHEDRAL.0>
3.67053

>  <SCORE.INTRA.POLAR>
0

>  <SCORE.INTRA.POLAR.0>
0

>  <SCORE.INTRA.REPUL>
0

>  <SCORE.INTRA.REPUL.0>
0

>  <SCORE.INTRA.SOLV>
-0.762766

>  <SCORE.INTRA.SOLV.lig_0>
-32.0553

>  <SCORE.INTRA.VDW>
0.625415

>  <SCORE.INTRA.VDW.0>
-0.571921

>  <SCORE.INTRA.norm>
-0.0715757

>  <SCORE.RESTR>
0

>  <SCORE.RESTR.CAVITY>
0

>  <SCORE.RESTR.norm>
0

>  <SCORE.SYSTEM>
0

>  <SCORE.SYSTEM.CONST>
0

>  <SCORE.SYSTEM.DIHEDRAL>
0

>  <SCORE.SYSTEM.SOLV>
0

>  <SCORE.SYSTEM.norm>
0

>  <SCORE.heavy>
10

>  <SCORE.norm>
-0.984319

>  <RMSD>
5.355

$$$$
ligand
 OpenBabel11021811473D
libRbt.so/2013.1/901 2013/11/27
 10  9  0  0  0  0  0  0  0  0999 V2000
   28.0233   15.0883   18.9605 N   0  0  0  0  0  0  0  0  0  0  0  0
   28.0118   14.4793   20.3245 C   0  0  2  0  0  0  0  0  0  0  0  0
   26.8298   14.9718   21.1488 C   0  0  0  0  0  0  0  0  0  0  0  0
   25.7136   15.0928   20.6558 O   0  0  0  0  0  0  0  0  0  0  0  0
   29.3327   14.7413   21.0523 C   0  0  0  0  0  0  0  0  0  0  0  0
   29.6757   16.2152   21.1847 C   0  0  0  0  0  0  0  0  0  0  0  0
   31.0210   16.4204   21.8700 C   0  0  0  0  0  0  0  0  0  0  0  0
   31.3609   17.8994   21.9545 C   0  0  0  0  0  0  0  0  0  0  0  0
   32.7306   18.1495   22.5290 N   0  0  0  0  0  0  0  0  0  0  0  0
   26.9312   15.2388   22.3385 O   0  0  0  0  0  0  0  0  0  0  0  0
  2  1  1  6  0  0  0
  2  3  1  0  0  0  0
  2  5  1  0  0  0  0
  3  4  1  0  0  0  0
  3 10  1  0  0  0  0
  5  6  1  0  0  0  0
  6  7  1  0  0  0  0
  7  8  1  0  0  0  0
  8  9  1  0  0  0  0
M  END
>  <CHROM.1>
41.74058393,57.31550307,-177.93717526,178.34639756,-175.58550820,28.92609437
15.83278690,21.21725980,-2.71644023,0.33963613,1.12637187

>  <Name>
ligand

>  <RI>
0

>  <Rbt.Current_Directory>
/home/itssahil/PROJECTS/Mol_Feturizer/New_Systems/rnas/3DIZ

>  <Rbt.Executable>
rbdock ($Id: //depot/dev/client3/rdock/2013.1/src/exe/rbdock.cxx#4 $)

>  <Rbt.Library>
libRbt.so (2013.1, Build901 2013/11/27)

>  <Rbt.Parameter_File>
/export/apps/rDock/src/rDock_2013.1_src/data/scripts/dock_solv.prm

>  <Rbt.Receptor>
prm/pocket_docking_4.prm

>  <SCORE>
-9.89793

>  <SCORE.INTER>
-9.00675

>  <SCORE.INTER.CONST>
1

>  <SCORE.INTER.POLAR>
0

>  <SCORE.INTER.ROT>
5

>  <SCORE.INTER.SOLV>
13.402

>  <SCORE.INTER.VDW>
-17.4052

>  <SCORE.INTER.norm>
-0.900675

>  <SCORE.INTRA>
-0.891176

>  <SCORE.INTRA.DIHEDRAL>
-2.08418

>  <SCORE.INTRA.DIHEDRAL.0>
3.67053

>  <SCORE.INTRA.POLAR>
0

>  <SCORE.INTRA.POLAR.0>
0

>  <SCORE.INTRA.REPUL>
0

>  <SCORE.INTRA.REPUL.0>
0

>  <SCORE.INTRA.SOLV>
-0.781888

>  <SCORE.INTRA.SOLV.lig_0>
-32.0553

>  <SCORE.INTRA.VDW>
0.541859

>  <SCORE.INTRA.VDW.0>
-0.571921

>  <SCORE.INTRA.norm>
-0.0891176

>  <SCORE.RESTR>
0

>  <SCORE.RESTR.CAVITY>
0

>  <SCORE.RESTR.norm>
0

>  <SCORE.SYSTEM>
0

>  <SCORE.SYSTEM.CONST>
0

>  <SCORE.SYSTEM.DIHEDRAL>
0

>  <SCORE.SYSTEM.SOLV>
0

>  <SCORE.SYSTEM.norm>
0

>  <SCORE.heavy>
10

>  <SCORE.norm>
-0.989793

>  <RMSD>
5.356

$$$$
ligand
 OpenBabel11021811473D
libRbt.so/2013.1/901 2013/11/27
 10  9  0  0  0  0  0  0  0  0999 V2000
   28.5812   14.3886   19.0222 N   0  0  0  0  0  0  0  0  0  0  0  0
   28.0276   14.2867   20.4059 C   0  0  2  0  0  0  0  0  0  0  0  0
   26.7505   15.1016   20.5606 C   0  0  0  0  0  0  0  0  0  0  0  0
   25.8675   14.7631   21.3411 O   0  0  0  0  0  0  0  0  0  0  0  0
   29.0713   14.7036   21.4452 C   0  0  0  0  0  0  0  0  0  0  0  0
   29.5964   16.1158   21.2516 C   0  0  0  0  0  0  0  0  0  0  0  0
   30.8114   16.3895   22.1292 C   0  0  0  0  0  0  0  0  0  0  0  0
   31.3486   17.7896   21.8817 C   0  0  0  0  0  0  0  0  0  0  0  0
   32.6448   18.0513   22.6029 N   0  0  0  0  0  0  0  0  0  0  0  0
   26.5606   16.1393   19.9407 O   0  0  0  0  0  0  0  0  0  0  0  0
  2  1  1  6  0  0  0
  2  3  1  0  0  0  0
  2  5  1  0  0  0  0
  3  4  1  0  0  0  0
  3 10  1  0  0  0  0
  5  6  1  0  0  0  0
  6  7  1  0  0  0  0
  7  8  1  0  0  0  0
  8  9  1  0  0  0  0
M  END
>  <CHROM.1>
149.44876034,57.96427556,-168.99740502,177.95792468,-173.17713450,28.88717943
15.78398382,21.05828467,-2.57457267,0.02536354,0.65581788

>  <Name>
ligand

>  <RI>
0

>  <Rbt.Current_Directory>
/home/itssahil/PROJECTS/Mol_Feturizer/New_Systems/rnas/3DIZ

>  <Rbt.Executable>
rbdock ($Id: //depot/dev/client3/rdock/2013.1/src/exe/rbdock.cxx#4 $)

>  <Rbt.Library>
libRbt.so (2013.1, Build901 2013/11/27)

>  <Rbt.Parameter_File>
/export/apps/rDock/src/rDock_2013.1_src/data/scripts/dock_solv.prm

>  <Rbt.Receptor>
prm/pocket_docking_5.prm

>  <SCORE>
-9.59642

>  <SCORE.INTER>
-8.28978

>  <SCORE.INTER.CONST>
1

>  <SCORE.INTER.POLAR>
0

>  <SCORE.INTER.ROT>
5

>  <SCORE.INTER.SOLV>
14.2912

>  <SCORE.INTER.VDW>
-17.2236

>  <SCORE.INTER.norm>
-0.828978

>  <SCORE.INTRA>
-1.30663

>  <SCORE.INTRA.DIHEDRAL>
-1.52295

>  <SCORE.INTRA.DIHEDRAL.0>
3.67053

>  <SCORE.INTRA.POLAR>
0

>  <SCORE.INTRA.POLAR.0>
0

>  <SCORE.INTRA.REPUL>
0

>  <SCORE.INTRA.REPUL.0>
0

>  <SCORE.INTRA.SOLV>
-0.735994

>  <SCORE.INTRA.SOLV.lig_0>
-32.0553

>  <SCORE.INTRA.VDW>
-0.177163

>  <SCORE.INTRA.VDW.0>
-0.571921

>  <SCORE.INTRA.norm>
-0.130663

>  <SCORE.RESTR>
0

>  <SCORE.RESTR.CAVITY>
0

>  <SCORE.RESTR.norm>
0

>  <SCORE.SYSTEM>
0

>  <SCORE.SYSTEM.CONST>
0

>  <SCORE.SYSTEM.DIHEDRAL>
0

>  <SCORE.SYSTEM.SOLV>
0

>  <SCORE.SYSTEM.norm>
0

>  <SCORE.heavy>
10

>  <SCORE.norm>
-0.959642

>  <RMSD>
5.358

$$$$
ligand
 OpenBabel11021811473D
libRbt.so/2013.1/901 2013/11/27
 10  9  0  0  0  0  0  0  0  0999 V2000
   25.6278   14.8667   20.7772 N   0  0  0  0  0  0  0  0  0  0  0  0
   26.9198   15.5260   20.4200 C   0  0  2  0  0  0  0  0  0  0  0  0
   27.3789   15.1391   19.0205 C   0  0  0  0  0  0  0  0  0  0  0  0
   28.0909   15.8820   18.3537 O   0  0  0  0  0  0  0  0  0  0  0  0
   28.0007   15.2099   21.4567 C   0  0  0  0  0  0  0  0  0  0  0  0
   29.2802   16.0068   21.2682 C   0  0  0  0  0  0  0  0  0  0  0  0
   30.3451   15.6095   22.2828 C   0  0  0  0  0  0  0  0  0  0  0  0
   31.5821   16.4796   22.1320 C   0  0  0  0  0  0  0  0  0  0  0  0
   32.2313   16.3385   20.7801 N   0  0  0  0  0  0  0  0  0  0  0  0
   27.0861   14.0653   18.5123 O   0  0  0  0  0  0  0  0  0  0  0  0
  2  1  1  1  0  0  0
  2  3  1  0  0  0  0
  2  5  1  0  0  0  0
  3  4  1  0  0  0  0
  3 10  1  0  0  0  0
  5  6  1  0  0  0  0
  6  7  1  0  0  0  0
  7  8  1  0  0  0  0
  8  9  1  0  0  0  0
M  END
>  <CHROM.1>
153.10459086,-171.60522226,-177.33708082,-176.39858374,-61.74048996,28.65500213
15.50249271,20.46418395,2.69013444,-0.25456950,-1.62649696

>  <Name>
ligand

>  <RI>
0

>  <Rbt.Current_Directory>
/home/itssahil/PROJECTS/Mol_Feturizer/New_Systems/rnas/3DIZ

>  <Rbt.Executable>
rbdock ($Id: //depot/dev/client3/rdock/2013.1/src/exe/rbdock.cxx#4 $)

>  <Rbt.Library>
libRbt.so (2013.1, Build901 2013/11/27)

>  <Rbt.Parameter_File>
/export/apps/rDock/src/rDock_2013.1_src/data/scripts/dock_solv.prm

>  <Rbt.Receptor>
prm/pocket_docking_8.prm

>  <SCORE>
-9.56064

>  <SCORE.INTER>
-8.12122

>  <SCORE.INTER.CONST>
1

>  <SCORE.INTER.POLAR>
0

>  <SCORE.INTER.ROT>
5

>  <SCORE.INTER.SOLV>
18.1902

>  <SCORE.INTER.VDW>
-18.4109

>  <SCORE.INTER.norm>
-0.812122

>  <SCORE.INTRA>
-1.43942

>  <SCORE.INTRA.DIHEDRAL>
-1.87925

>  <SCORE.INTRA.DIHEDRAL.0>
3.67053

>  <SCORE.INTRA.POLAR>
0

>  <SCORE.INTRA.POLAR.0>
0

>  <SCORE.INTRA.REPUL>
0

>  <SCORE.INTRA.REPUL.0>
0

>  <SCORE.INTRA.SOLV>
-0.775713

>  <SCORE.INTRA.SOLV.lig_0>
-32.0553

>  <SCORE.INTRA.VDW>
-0.111937

>  <SCORE.INTRA.VDW.0>
-0.571921

>  <SCORE.INTRA.norm>
-0.143942

>  <SCORE.RESTR>
0

>  <SCORE.RESTR.CAVITY>
0

>  <SCORE.RESTR.norm>
0

>  <SCORE.SYSTEM>
0

>  <SCORE.SYSTEM.CONST>
0

>  <SCORE.SYSTEM.DIHEDRAL>
0

>  <SCORE.SYSTEM.SOLV>
0

>  <SCORE.SYSTEM.norm>
0

>  <SCORE.heavy>
10

>  <SCORE.norm>
-0.956064

>  <RMSD>
5.358

$$$$
ligand
 OpenBabel11021811473D
libRbt.so/2013.1/901 2013/11/27
 10  9  0  0  0  0  0  0  0  0999 V2000
   26.4352   15.6927   19.9639 N   0  0  0  0  0  0  0  0  0  0  0  0
   27.8451   15.2327   19.7854 C   0  0  2  0  0  0  0  0  0  0  0  0
   27.9751   14.2622   18.6190 C   0  0  0  0  0  0  0  0  0  0  0  0
   29.0524   14.0686   18.0663 O   0  0  0  0  0  0  0  0  0  0  0  0
   28.3860   14.6119   21.0759 C   0  0  0  0  0  0  0  0  0  0  0  0
   29.0173   15.6196   22.0211 C   0  0  0  0  0  0  0  0  0  0  0  0
   30.3048   16.1987   21.4479 C   0  0  0  0  0  0  0  0  0  0  0  0
   30.8696   17.2680   22.3686 C   0  0  0  0  0  0  0  0  0  0  0  0
   32.2072   17.7850   21.9079 N   0  0  0  0  0  0  0  0  0  0  0  0
   27.0251   13.6136   18.2022 O   0  0  0  0  0  0  0  0  0  0  0  0
  2  1  1  1  0  0  0
  2  3  1  0  0  0  0
  2  5  1  0  0  0  0
  3  4  1  0  0  0  0
  3 10  1  0  0  0  0
  5  6  1  0  0  0  0
  6  7  1  0  0  0  0
  7  8  1  0  0  0  0
  8  9  1  0  0  0  0
M  END
>  <CHROM.1>
158.78936667,-87.96654880,-67.81633018,176.34242966,174.86708990,28.90826883
15.40855901,20.31249234,2.27169414,-0.22279935,-2.09569577

>  <Name>
ligand

>  <RI>
0

>  <Rbt.Current_Directory>
/home/itssahil/PROJECTS/Mol_Feturizer/New_Systems/rnas/3DIZ

>  <Rbt.Executable>
rbdock ($Id: //depot/dev/client3/rdock/2013.1/src/exe/rbdock.cxx#4 $)

>  <Rbt.Library>
libRbt.so (2013.1, Build901 2013/11/27)

>  <Rbt.Parameter_File>
/export/apps/rDock/src/rDock_2013.1_src/data/scripts/dock_solv.prm

>  <Rbt.Receptor>
prm/pocket_docking_5.prm

>  <SCORE>
-7.10675

>  <SCORE.INTER>
-6.90378

>  <SCORE.INTER.CONST>
1

>  <SCORE.INTER.POLAR>
0

>  <SCORE.INTER.ROT>
5

>  <SCORE.INTER.SOLV>
15.9182

>  <SCORE.INTER.VDW>
-16.8419

>  <SCORE.INTER.norm>
-0.690378

>  <SCORE.INTRA>
-0.202975

>  <SCORE.INTRA.DIHEDRAL>
0.797422

>  <SCORE.INTRA.DIHEDRAL.0>
3.67053

>  <SCORE.INTRA.POLAR>
0

>  <SCORE.INTRA.POLAR.0>
0

>  <SCORE.INTRA.REPUL>
0

>  <SCORE.INTRA.REPUL.0>
0

>  <SCORE.INTRA.SOLV>
-0.836905

>  <SCORE.INTRA.SOLV.lig_0>
-32.0553

>  <SCORE.INTRA.VDW>
-0.183234

>  <SCORE.INTRA.VDW.0>
-0.571921

>  <SCORE.INTRA.norm>
-0.0202975

>  <SCORE.RESTR>
0

>  <SCORE.RESTR.CAVITY>
0

>  <SCORE.RESTR.norm>
0

>  <SCORE.SYSTEM>
0

>  <SCORE.SYSTEM.CONST>
0

>  <SCORE.SYSTEM.DIHEDRAL>
0

>  <SCORE.SYSTEM.SOLV>
0

>  <SCORE.SYSTEM.norm>
0

>  <SCORE.heavy>
10

>  <SCORE.norm>
-0.710675

>  <RMSD>
5.362

$$$$
ligand
 OpenBabel11021811473D
libRbt.so/2013.1/901 2013/11/27
 10  9  0  0  0  0  0  0  0  0999 V2000
   28.7532   14.8057   19.2219 N   0  0  0  0  0  0  0  0  0  0  0  0
   28.2767   14.9817   20.6267 C   0  0  2  0  0  0  0  0  0  0  0  0
   26.7602   15.1042   20.6934 C   0  0  0  0  0  0  0  0  0  0  0  0
   26.1271   14.6828   21.6552 O   0  0  0  0  0  0  0  0  0  0  0  0
   28.9520   16.1863   21.2871 C   0  0  0  0  0  0  0  0  0  0  0  0
   30.4633   16.0646   21.3805 C   0  0  0  0  0  0  0  0  0  0  0  0
   31.0940   17.3228   21.9639 C   0  0  0  0  0  0  0  0  0  0  0  0
   32.6064   17.1857   22.0277 C   0  0  0  0  0  0  0  0  0  0  0  0
   33.2344   17.0309   20.6674 N   0  0  0  0  0  0  0  0  0  0  0  0
   26.1113   15.6510   19.8120 O   0  0  0  0  0  0  0  0  0  0  0  0
  2  1  1  6  0  0  0
  2  3  1  0  0  0  0
  2  5  1  0  0  0  0
  3  4  1  0  0  0  0
  3 10  1  0  0  0  0
  5  6  1  0  0  0  0
  6  7  1  0  0  0  0
  7  8  1  0  0  0  0
  8  9  1  0  0  0  0
M  END
>  <CHROM.1>
147.58863233,-61.11775887,176.42127101,-179.13963309,62.78737105,29.19243073
15.89898840,20.93390424,-2.89309712,0.26532978,1.22665899

>  <Name>
ligand

>  <RI>
0

>  <Rbt.Current_Directory>
/home/itssahil/PROJECTS/Mol_Feturizer/New_Systems/rnas/3DIZ

>  <Rbt.Executable>
rbdock ($Id: //depot/dev/client3/rdock/2013.1/src/exe/rbdock.cxx#4 $)

>  <Rbt.Library>
libRbt.so (2013.1, Build901 2013/11/27)

>  <Rbt.Parameter_File>
/export/apps/rDock/src/rDock_2013.1_src/data/scripts/dock_solv.prm

>  <Rbt.Receptor>
prm/pocket_docking_7.prm

>  <SCORE>
-9.83419

>  <SCORE.INTER>
-8.66875

>  <SCORE.INTER.CONST>
1

>  <SCORE.INTER.POLAR>
0

>  <SCORE.INTER.ROT>
5

>  <SCORE.INTER.SOLV>
12.8358

>  <SCORE.INTER.VDW>
-16.9911

>  <SCORE.INTER.norm>
-0.866875

>  <SCORE.INTRA>
-1.16544

>  <SCORE.INTRA.DIHEDRAL>
-2.1351

>  <SCORE.INTRA.DIHEDRAL.0>
3.67053

>  <SCORE.INTRA.POLAR>
0

>  <SCORE.INTRA.POLAR.0>
0

>  <SCORE.INTRA.REPUL>
0

>  <SCORE.INTRA.REPUL.0>
0

>  <SCORE.INTRA.SOLV>
0.12944

>  <SCORE.INTRA.SOLV.lig_0>
-32.0553

>  <SCORE.INTRA.VDW>
-0.162606

>  <SCORE.INTRA.VDW.0>
-0.571921

>  <SCORE.INTRA.norm>
-0.116544

>  <SCORE.RESTR>
0

>  <SCORE.RESTR.CAVITY>
0

>  <SCORE.RESTR.norm>
0

>  <SCORE.SYSTEM>
0

>  <SCORE.SYSTEM.CONST>
0

>  <SCORE.SYSTEM.DIHEDRAL>
0

>  <SCORE.SYSTEM.SOLV>
0

>  <SCORE.SYSTEM.norm>
0

>  <SCORE.heavy>
10

>  <SCORE.norm>
-0.983419

>  <RMSD>
5.362

$$$$
ligand
 OpenBabel11021811473D
libRbt.so/2013.1/901 2013/11/27
 10  9  0  0  0  0  0  0  0  0999 V2000
   28.5859   14.3138   19.0514 N   0  0  0  0  0  0  0  0  0  0  0  0
   27.9849   14.3005   20.4190 C   0  0  2  0  0  0  0  0  0  0  0  0
   26.7268   15.1559   20.4872 C   0  0  0  0  0  0  0  0  0  0  0  0
   25.7767   14.8391   21.1946 O   0  0  0  0  0  0  0  0  0  0  0  0
   29.0055   14.7446   21.4698 C   0  0  0  0  0  0  0  0  0  0  0  0
   29.5563   16.1407   21.2352 C   0  0  0  0  0  0  0  0  0  0  0  0
   30.7386   16.4398   22.1485 C   0  0  0  0  0  0  0  0  0  0  0  0
   31.3238   17.8080   21.8392 C   0  0  0  0  0  0  0  0  0  0  0  0
   32.5961   18.0815   22.5977 N   0  0  0  0  0  0  0  0  0  0  0  0
   26.6182   16.2055   19.8678 O   0  0  0  0  0  0  0  0  0  0  0  0
  2  1  1  6  0  0  0
  2  3  1  0  0  0  0
  2  5  1  0  0  0  0
  3  4  1  0  0  0  0
  3 10  1  0  0  0  0
  5  6  1  0  0  0  0
  6  7  1  0  0  0  0
  7  8  1  0  0  0  0
  8  9  1  0  0  0  0
M  END
>  <CHROM.1>
145.02917143,59.07010672,-169.77294729,176.65028018,-172.99138007,28.85287970
15.81492771,21.02927006,-2.56852759,-0.03347778,0.57662053

>  <Name>
ligand

>  <RI>
0

>  <Rbt.Current_Directory>
/home/itssahil/PROJECTS/Mol_Feturizer/New_Systems/rnas/3DIZ

>  <Rbt.Executable>
rbdock ($Id: //depot/dev/client3/rdock/2013.1/src/exe/rbdock.cxx#4 $)

>  <Rbt.Library>
libRbt.so (2013.1, Build901 2013/11/27)

>  <Rbt.Parameter_File>
/export/apps/rDock/src/rDock_2013.1_src/data/scripts/dock_solv.prm

>  <Rbt.Receptor>
prm/pocket_docking_8.prm

>  <SCORE>
-9.72513

>  <SCORE.INTER>
-8.39138

>  <SCORE.INTER.CONST>
1

>  <SCORE.INTER.POLAR>
0

>  <SCORE.INTER.ROT>
5

>  <SCORE.INTER.SOLV>
14.4399

>  <SCORE.INTER.VDW>
-17.3409

>  <SCORE.INTER.norm>
-0.839138

>  <SCORE.INTRA>
-1.33374

>  <SCORE.INTRA.DIHEDRAL>
-1.56177

>  <SCORE.INTRA.DIHEDRAL.0>
3.67053

>  <SCORE.INTRA.POLAR>
0

>  <SCORE.INTRA.POLAR.0>
0

>  <SCORE.INTRA.REPUL>
0

>  <SCORE.INTRA.REPUL.0>
0

>  <SCORE.INTRA.SOLV>
-0.756584

>  <SCORE.INTRA.SOLV.lig_0>
-32.0553

>  <SCORE.INTRA.VDW>
-0.174564

>  <SCORE.INTRA.VDW.0>
-0.571921

>  <SCORE.INTRA.norm>
-0.133374

>  <SCORE.RESTR>
0

>  <SCORE.RESTR.CAVITY>
0

>  <SCORE.RESTR.norm>
0

>  <SCORE.SYSTEM>
0

>  <SCORE.SYSTEM.CONST>
0

>  <SCORE.SYSTEM.DIHEDRAL>
0

>  <SCORE.SYSTEM.SOLV>
0

>  <SCORE.SYSTEM.norm>
0

>  <SCORE.heavy>
10

>  <SCORE.norm>
-0.972513

>  <RMSD>
5.362

$$$$
ligand
 OpenBabel11021811473D
libRbt.so/2013.1/901 2013/11/27
 10  9  0  0  0  0  0  0  0  0999 V2000
   28.5834   14.4493   19.0043 N   0  0  0  0  0  0  0  0  0  0  0  0
   28.0407   14.2987   20.3879 C   0  0  2  0  0  0  0  0  0  0  0  0
   26.7470   15.0809   20.5712 C   0  0  0  0  0  0  0  0  0  0  0  0
   25.8976   14.7294   21.3827 O   0  0  0  0  0  0  0  0  0  0  0  0
   29.0813   14.7109   21.4321 C   0  0  0  0  0  0  0  0  0  0  0  0
   29.6090   16.1230   21.2448 C   0  0  0  0  0  0  0  0  0  0  0  0
   30.8065   16.4001   22.1452 C   0  0  0  0  0  0  0  0  0  0  0  0
   31.3683   17.7872   21.8803 C   0  0  0  0  0  0  0  0  0  0  0  0
   32.6511   18.0474   22.6256 N   0  0  0  0  0  0  0  0  0  0  0  0
   26.5101   16.1044   19.9441 O   0  0  0  0  0  0  0  0  0  0  0  0
  2  1  1  6  0  0  0
  2  3  1  0  0  0  0
  2  5  1  0  0  0  0
  3  4  1  0  0  0  0
  3 10  1  0  0  0  0
  5  6  1  0  0  0  0
  6  7  1  0  0  0  0
  7  8  1  0  0  0  0
  8  9  1  0  0  0  0
M  END
>  <CHROM.1>
152.15028921,56.00103542,-169.98235140,176.57961061,-173.12706558,28.89033326
15.78344900,21.06257548,-2.57793540,0.06389888,0.71729472

>  <Name>
ligand

>  <RI>
0

>  <Rbt.Current_Directory>
/home/itssahil/PROJECTS/Mol_Feturizer/New_Systems/rnas/3DIZ

>  <Rbt.Executable>
rbdock ($Id: //depot/dev/client3/rdock/2013.1/src/exe/rbdock.cxx#4 $)

>  <Rbt.Library>
libRbt.so (2013.1, Build901 2013/11/27)

>  <Rbt.Parameter_File>
/export/apps/rDock/src/rDock_2013.1_src/data/scripts/dock_solv.prm

>  <Rbt.Receptor>
prm/pocket_docking_7.prm

>  <SCORE>
-9.54678

>  <SCORE.INTER>
-8.25466

>  <SCORE.INTER.CONST>
1

>  <SCORE.INTER.POLAR>
0

>  <SCORE.INTER.ROT>
5

>  <SCORE.INTER.SOLV>
14.2235

>  <SCORE.INTER.VDW>
-17.1776

>  <SCORE.INTER.norm>
-0.825466

>  <SCORE.INTRA>
-1.29213

>  <SCORE.INTRA.DIHEDRAL>
-1.52087

>  <SCORE.INTRA.DIHEDRAL.0>
3.67053

>  <SCORE.INTRA.POLAR>
0

>  <SCORE.INTRA.POLAR.0>
0

>  <SCORE.INTRA.REPUL>
0

>  <SCORE.INTRA.REPUL.0>
0

>  <SCORE.INTRA.SOLV>
-0.717415

>  <SCORE.INTRA.SOLV.lig_0>
-32.0553

>  <SCORE.INTRA.VDW>
-0.172986

>  <SCORE.INTRA.VDW.0>
-0.571921

>  <SCORE.INTRA.norm>
-0.129213

>  <SCORE.RESTR>
0

>  <SCORE.RESTR.CAVITY>
0

>  <SCORE.RESTR.norm>
0

>  <SCORE.SYSTEM>
0

>  <SCORE.SYSTEM.CONST>
0

>  <SCORE.SYSTEM.DIHEDRAL>
0

>  <SCORE.SYSTEM.SOLV>
0

>  <SCORE.SYSTEM.norm>
0

>  <SCORE.heavy>
10

>  <SCORE.norm>
-0.954678

>  <RMSD>
5.363

$$$$
ligand
 OpenBabel11021811473D
libRbt.so/2013.1/901 2013/11/27
 10  9  0  0  0  0  0  0  0  0999 V2000
   28.5948   14.3681   19.0386 N   0  0  0  0  0  0  0  0  0  0  0  0
   27.9962   14.3261   20.4066 C   0  0  2  0  0  0  0  0  0  0  0  0
   26.7324   15.1714   20.4921 C   0  0  0  0  0  0  0  0  0  0  0  0
   26.6084   16.2026   19.8403 O   0  0  0  0  0  0  0  0  0  0  0  0
   29.0154   14.7582   21.4638 C   0  0  0  0  0  0  0  0  0  0  0  0
   29.5641   16.1581   21.2475 C   0  0  0  0  0  0  0  0  0  0  0  0
   30.7504   16.4445   22.1597 C   0  0  0  0  0  0  0  0  0  0  0  0
   31.3311   17.8190   21.8704 C   0  0  0  0  0  0  0  0  0  0  0  0
   32.5992   18.0880   22.6375 N   0  0  0  0  0  0  0  0  0  0  0  0
   25.7780   14.8482   21.1862 O   0  0  0  0  0  0  0  0  0  0  0  0
  2  1  1  6  0  0  0
  2  3  1  0  0  0  0
  2  5  1  0  0  0  0
  3  4  1  0  0  0  0
  3 10  1  0  0  0  0
  5  6  1  0  0  0  0
  6  7  1  0  0  0  0
  7  8  1  0  0  0  0
  8  9  1  0  0  0  0
M  END
>  <CHROM.1>
-33.49532853,58.63400410,-169.44708666,176.77829762,-173.57044332,28.85828643
15.83001341,21.03198946,-2.56701009,-0.02722163,0.60023016

>  <Name>
ligand

>  <RI>
0

>  <Rbt.Current_Directory>
/home/itssahil/PROJECTS/Mol_Feturizer/New_Systems/rnas/3DIZ

>  <Rbt.Executable>
rbdock ($Id: //depot/dev/client3/rdock/2013.1/src/exe/rbdock.cxx#4 $)

>  <Rbt.Library>
libRbt.so (2013.1, Build901 2013/11/27)

>  <Rbt.Parameter_File>
/export/apps/rDock/src/rDock_2013.1_src/data/scripts/dock_solv.prm

>  <Rbt.Receptor>
prm/pocket_docking_6.prm

>  <SCORE>
-9.67966

>  <SCORE.INTER>
-8.41622

>  <SCORE.INTER.CONST>
1

>  <SCORE.INTER.POLAR>
0

>  <SCORE.INTER.ROT>
5

>  <SCORE.INTER.SOLV>
14.3408

>  <SCORE.INTER.VDW>
-17.3244

>  <SCORE.INTER.norm>
-0.841622

>  <SCORE.INTRA>
-1.26344

>  <SCORE.INTRA.DIHEDRAL>
-1.44475

>  <SCORE.INTRA.DIHEDRAL.0>
3.67053

>  <SCORE.INTRA.POLAR>
0

>  <SCORE.INTRA.POLAR.0>
0

>  <SCORE.INTRA.REPUL>
0

>  <SCORE.INTRA.REPUL.0>
0

>  <SCORE.INTRA.SOLV>
-0.734916

>  <SCORE.INTRA.SOLV.lig_0>
-32.0553

>  <SCORE.INTRA.VDW>
-0.173611

>  <SCORE.INTRA.VDW.0>
-0.571921

>  <SCORE.INTRA.norm>
-0.126344

>  <SCORE.RESTR>
0

>  <SCORE.RESTR.CAVITY>
0

>  <SCORE.RESTR.norm>
0

>  <SCORE.SYSTEM>
0

>  <SCORE.SYSTEM.CONST>
0

>  <SCORE.SYSTEM.DIHEDRAL>
0

>  <SCORE.SYSTEM.SOLV>
0

>  <SCORE.SYSTEM.norm>
0

>  <SCORE.heavy>
10

>  <SCORE.norm>
-0.967966

>  <RMSD>
5.364

$$$$
ligand
 OpenBabel11021811473D
libRbt.so/2013.1/901 2013/11/27
 10  9  0  0  0  0  0  0  0  0999 V2000
   27.9286   15.2151   18.9855 N   0  0  0  0  0  0  0  0  0  0  0  0
   27.9821   14.5198   20.3066 C   0  0  2  0  0  0  0  0  0  0  0  0
   26.8254   14.9348   21.2061 C   0  0  0  0  0  0  0  0  0  0  0  0
   25.6681   14.9311   20.8009 O   0  0  0  0  0  0  0  0  0  0  0  0
   29.3261   14.7610   20.9983 C   0  0  0  0  0  0  0  0  0  0  0  0
   29.6414   16.2294   21.2264 C   0  0  0  0  0  0  0  0  0  0  0  0
   31.0227   16.4194   21.8405 C   0  0  0  0  0  0  0  0  0  0  0  0
   31.3335   17.8967   22.0173 C   0  0  0  0  0  0  0  0  0  0  0  0
   32.7217   18.1395   22.5490 N   0  0  0  0  0  0  0  0  0  0  0  0
   26.9922   15.2597   22.3738 O   0  0  0  0  0  0  0  0  0  0  0  0
  2  1  1  6  0  0  0
  2  3  1  0  0  0  0
  2  5  1  0  0  0  0
  3  4  1  0  0  0  0
  3 10  1  0  0  0  0
  5  6  1  0  0  0  0
  6  7  1  0  0  0  0
  7  8  1  0  0  0  0
  8  9  1  0  0  0  0
M  END
>  <CHROM.1>
49.40134606,57.95422022,-176.60783410,178.15520395,-176.72256032,28.90785665
15.83201249,21.24748750,-2.73673678,0.36442449,1.17162719

>  <Name>
ligand

>  <RI>
0

>  <Rbt.Current_Directory>
/home/itssahil/PROJECTS/Mol_Feturizer/New_Systems/rnas/3DIZ

>  <Rbt.Executable>
rbdock ($Id: //depot/dev/client3/rdock/2013.1/src/exe/rbdock.cxx#4 $)

>  <Rbt.Library>
libRbt.so (2013.1, Build901 2013/11/27)

>  <Rbt.Parameter_File>
/export/apps/rDock/src/rDock_2013.1_src/data/scripts/dock_solv.prm

>  <Rbt.Receptor>
prm/pocket_docking_7.prm

>  <SCORE>
-9.83734

>  <SCORE.INTER>
-9.03697

>  <SCORE.INTER.CONST>
1

>  <SCORE.INTER.POLAR>
0

>  <SCORE.INTER.ROT>
5

>  <SCORE.INTER.SOLV>
13.5554

>  <SCORE.INTER.VDW>
-17.4764

>  <SCORE.INTER.norm>
-0.903697

>  <SCORE.INTRA>
-0.800377

>  <SCORE.INTRA.DIHEDRAL>
-2.08084

>  <SCORE.INTRA.DIHEDRAL.0>
3.67053

>  <SCORE.INTRA.POLAR>
0

>  <SCORE.INTRA.POLAR.0>
0

>  <SCORE.INTRA.REPUL>
0

>  <SCORE.INTRA.REPUL.0>
0

>  <SCORE.INTRA.SOLV>
-0.788364

>  <SCORE.INTRA.SOLV.lig_0>
-32.0553

>  <SCORE.INTRA.VDW>
0.634224

>  <SCORE.INTRA.VDW.0>
-0.571921

>  <SCORE.INTRA.norm>
-0.0800377

>  <SCORE.RESTR>
0

>  <SCORE.RESTR.CAVITY>
0

>  <SCORE.RESTR.norm>
0

>  <SCORE.SYSTEM>
0

>  <SCORE.SYSTEM.CONST>
0

>  <SCORE.SYSTEM.DIHEDRAL>
0

>  <SCORE.SYSTEM.SOLV>
0

>  <SCORE.SYSTEM.norm>
0

>  <SCORE.heavy>
10

>  <SCORE.norm>
-0.983734

>  <RMSD>
5.366

$$$$
ligand
 OpenBabel11021811473D
libRbt.so/2013.1/901 2013/11/27
 10  9  0  0  0  0  0  0  0  0999 V2000
   28.7406   14.8195   19.2559 N   0  0  0  0  0  0  0  0  0  0  0  0
   28.2673   14.9957   20.6617 C   0  0  2  0  0  0  0  0  0  0  0  0
   26.7508   15.1160   20.7321 C   0  0  0  0  0  0  0  0  0  0  0  0
   26.1066   15.6160   19.8164 O   0  0  0  0  0  0  0  0  0  0  0  0
   28.9424   16.2018   21.3196 C   0  0  0  0  0  0  0  0  0  0  0  0
   30.4538   16.0805   21.4132 C   0  0  0  0  0  0  0  0  0  0  0  0
   31.0867   17.3502   21.9688 C   0  0  0  0  0  0  0  0  0  0  0  0
   32.5985   17.2105   22.0392 C   0  0  0  0  0  0  0  0  0  0  0  0
   33.2296   17.0292   20.6836 N   0  0  0  0  0  0  0  0  0  0  0  0
   26.1074   14.6960   21.6843 O   0  0  0  0  0  0  0  0  0  0  0  0
  2  1  1  6  0  0  0
  2  3  1  0  0  0  0
  2  5  1  0  0  0  0
  3  4  1  0  0  0  0
  3 10  1  0  0  0  0
  5  6  1  0  0  0  0
  6  7  1  0  0  0  0
  7  8  1  0  0  0  0
  8  9  1  0  0  0  0
M  END
>  <CHROM.1>
-31.01790935,-61.29513491,175.32199678,-179.40067326,63.05377604,29.18287226
15.90831435,20.95730003,-2.89380061,0.26795482,1.22536990

>  <Name>
ligand

>  <RI>
0

>  <Rbt.Current_Directory>
/home/itssahil/PROJECTS/Mol_Feturizer/New_Systems/rnas/3DIZ

>  <Rbt.Executable>
rbdock ($Id: //depot/dev/client3/rdock/2013.1/src/exe/rbdock.cxx#4 $)

>  <Rbt.Library>
libRbt.so (2013.1, Build901 2013/11/27)

>  <Rbt.Parameter_File>
/export/apps/rDock/src/rDock_2013.1_src/data/scripts/dock_solv.prm

>  <Rbt.Receptor>
prm/pocket_docking_5.prm

>  <SCORE>
-9.79517

>  <SCORE.INTER>
-8.72263

>  <SCORE.INTER.CONST>
1

>  <SCORE.INTER.POLAR>
0

>  <SCORE.INTER.ROT>
5

>  <SCORE.INTER.SOLV>
12.7432

>  <SCORE.INTER.VDW>
-16.9961

>  <SCORE.INTER.norm>
-0.872263

>  <SCORE.INTRA>
-1.07254

>  <SCORE.INTRA.DIHEDRAL>
-1.96975

>  <SCORE.INTRA.DIHEDRAL.0>
3.67053

>  <SCORE.INTRA.POLAR>
0

>  <SCORE.INTRA.POLAR.0>
0

>  <SCORE.INTRA.REPUL>
0

>  <SCORE.INTRA.REPUL.0>
0

>  <SCORE.INTRA.SOLV>
0.142388

>  <SCORE.INTRA.SOLV.lig_0>
-32.0553

>  <SCORE.INTRA.VDW>
-0.158863

>  <SCORE.INTRA.VDW.0>
-0.571921

>  <SCORE.INTRA.norm>
-0.107254

>  <SCORE.RESTR>
0

>  <SCORE.RESTR.CAVITY>
0

>  <SCORE.RESTR.norm>
0

>  <SCORE.SYSTEM>
0

>  <SCORE.SYSTEM.CONST>
0

>  <SCORE.SYSTEM.DIHEDRAL>
0

>  <SCORE.SYSTEM.SOLV>
0

>  <SCORE.SYSTEM.norm>
0

>  <SCORE.heavy>
10

>  <SCORE.norm>
-0.979517

>  <RMSD>
5.367

$$$$
ligand
 OpenBabel11021811473D
libRbt.so/2013.1/901 2013/11/27
 10  9  0  0  0  0  0  0  0  0999 V2000
   25.5969   14.8557   20.8254 N   0  0  0  0  0  0  0  0  0  0  0  0
   26.8795   15.5237   20.4511 C   0  0  2  0  0  0  0  0  0  0  0  0
   27.3424   15.1101   19.0605 C   0  0  0  0  0  0  0  0  0  0  0  0
   28.0683   15.8337   18.3875 O   0  0  0  0  0  0  0  0  0  0  0  0
   27.9657   15.2468   21.4936 C   0  0  0  0  0  0  0  0  0  0  0  0
   29.2378   16.0487   21.2787 C   0  0  0  0  0  0  0  0  0  0  0  0
   30.3076   15.6919   22.3033 C   0  0  0  0  0  0  0  0  0  0  0  0
   31.5543   16.5357   22.0944 C   0  0  0  0  0  0  0  0  0  0  0  0
   32.1964   16.3023   20.7519 N   0  0  0  0  0  0  0  0  0  0  0  0
   27.0388   14.0327   18.5664 O   0  0  0  0  0  0  0  0  0  0  0  0
  2  1  1  1  0  0  0
  2  3  1  0  0  0  0
  2  5  1  0  0  0  0
  3  4  1  0  0  0  0
  3 10  1  0  0  0  0
  5  6  1  0  0  0  0
  6  7  1  0  0  0  0
  7  8  1  0  0  0  0
  8  9  1  0  0  0  0
M  END
>  <CHROM.1>
154.76464395,-172.02655104,-177.45809539,-178.29648513,-62.35872137,28.61956393
15.50754022,20.48542853,2.69509698,-0.25232020,-1.65778681

>  <Name>
ligand

>  <RI>
0

>  <Rbt.Current_Directory>
/home/itssahil/PROJECTS/Mol_Feturizer/New_Systems/rnas/3DIZ

>  <Rbt.Executable>
rbdock ($Id: //depot/dev/client3/rdock/2013.1/src/exe/rbdock.cxx#4 $)

>  <Rbt.Library>
libRbt.so (2013.1, Build901 2013/11/27)

>  <Rbt.Parameter_File>
/export/apps/rDock/src/rDock_2013.1_src/data/scripts/dock_solv.prm

>  <Rbt.Receptor>
prm/pocket_docking_8.prm

>  <SCORE>
-9.53724

>  <SCORE.INTER>
-8.08679

>  <SCORE.INTER.CONST>
1

>  <SCORE.INTER.POLAR>
0

>  <SCORE.INTER.ROT>
5

>  <SCORE.INTER.SOLV>
18.3112

>  <SCORE.INTER.VDW>
-18.4283

>  <SCORE.INTER.norm>
-0.808679

>  <SCORE.INTRA>
-1.45045

>  <SCORE.INTRA.DIHEDRAL>
-1.93924

>  <SCORE.INTRA.DIHEDRAL.0>
3.67053

>  <SCORE.INTRA.POLAR>
0

>  <SCORE.INTRA.POLAR.0>
0

>  <SCORE.INTRA.REPUL>
0

>  <SCORE.INTRA.REPUL.0>
0

>  <SCORE.INTRA.SOLV>
-0.775222

>  <SCORE.INTRA.SOLV.lig_0>
-32.0553

>  <SCORE.INTRA.VDW>
-0.0932214

>  <SCORE.INTRA.VDW.0>
-0.571921

>  <SCORE.INTRA.norm>
-0.145045

>  <SCORE.RESTR>
0

>  <SCORE.RESTR.CAVITY>
0

>  <SCORE.RESTR.norm>
0

>  <SCORE.SYSTEM>
0

>  <SCORE.SYSTEM.CONST>
0

>  <SCORE.SYSTEM.DIHEDRAL>
0

>  <SCORE.SYSTEM.SOLV>
0

>  <SCORE.SYSTEM.norm>
0

>  <SCORE.heavy>
10

>  <SCORE.norm>
-0.953724

>  <RMSD>
5.368

$$$$
ligand
 OpenBabel11021811473D
libRbt.so/2013.1/901 2013/11/27
 10  9  0  0  0  0  0  0  0  0999 V2000
   28.5044   14.5973   18.9093 N   0  0  0  0  0  0  0  0  0  0  0  0
   28.0260   14.3233   20.2977 C   0  0  2  0  0  0  0  0  0  0  0  0
   26.7300   15.0635   20.6007 C   0  0  0  0  0  0  0  0  0  0  0  0
   26.3296   15.9713   19.8803 O   0  0  0  0  0  0  0  0  0  0  0  0
   29.1055   14.6675   21.3268 C   0  0  0  0  0  0  0  0  0  0  0  0
   29.5975   16.1021   21.2400 C   0  0  0  0  0  0  0  0  0  0  0  0
   30.8545   16.3172   22.0739 C   0  0  0  0  0  0  0  0  0  0  0  0
   31.3845   17.7300   21.8921 C   0  0  0  0  0  0  0  0  0  0  0  0
   32.7036   17.9501   22.5853 N   0  0  0  0  0  0  0  0  0  0  0  0
   26.0189   14.7695   21.5519 O   0  0  0  0  0  0  0  0  0  0  0  0
  2  1  1  6  0  0  0
  2  3  1  0  0  0  0
  2  5  1  0  0  0  0
  3  4  1  0  0  0  0
  3 10  1  0  0  0  0
  5  6  1  0  0  0  0
  6  7  1  0  0  0  0
  7  8  1  0  0  0  0
  8  9  1  0  0  0  0
M  END
>  <CHROM.1>
-14.27596194,56.32521043,-168.24869582,175.90021692,-174.16074088,28.88585195
15.75839033,21.03842017,-2.61611885,0.16093140,0.90511773

>  <Name>
ligand

>  <RI>
0

>  <Rbt.Current_Directory>
/home/itssahil/PROJECTS/Mol_Feturizer/New_Systems/rnas/3DIZ

>  <Rbt.Executable>
rbdock ($Id: //depot/dev/client3/rdock/2013.1/src/exe/rbdock.cxx#4 $)

>  <Rbt.Library>
libRbt.so (2013.1, Build901 2013/11/27)

>  <Rbt.Parameter_File>
/export/apps/rDock/src/rDock_2013.1_src/data/scripts/dock_solv.prm

>  <Rbt.Receptor>
prm/pocket_docking_2.prm

>  <SCORE>
-9.39431

>  <SCORE.INTER>
-8.27912

>  <SCORE.INTER.CONST>
1

>  <SCORE.INTER.POLAR>
0

>  <SCORE.INTER.ROT>
5

>  <SCORE.INTER.SOLV>
13.9063

>  <SCORE.INTER.VDW>
-17.0882

>  <SCORE.INTER.norm>
-0.827912

>  <SCORE.INTRA>
-1.11519

>  <SCORE.INTRA.DIHEDRAL>
-1.30213

>  <SCORE.INTRA.DIHEDRAL.0>
3.67053

>  <SCORE.INTRA.POLAR>
0

>  <SCORE.INTRA.POLAR.0>
0

>  <SCORE.INTRA.REPUL>
0

>  <SCORE.INTRA.REPUL.0>
0

>  <SCORE.INTRA.SOLV>
-0.694859

>  <SCORE.INTRA.SOLV.lig_0>
-32.0553

>  <SCORE.INTRA.VDW>
-0.116699

>  <SCORE.INTRA.VDW.0>
-0.571921

>  <SCORE.INTRA.norm>
-0.111519

>  <SCORE.RESTR>
0

>  <SCORE.RESTR.CAVITY>
0

>  <SCORE.RESTR.norm>
0

>  <SCORE.SYSTEM>
0

>  <SCORE.SYSTEM.CONST>
0

>  <SCORE.SYSTEM.DIHEDRAL>
0

>  <SCORE.SYSTEM.SOLV>
0

>  <SCORE.SYSTEM.norm>
0

>  <SCORE.heavy>
10

>  <SCORE.norm>
-0.939431

>  <RMSD>
5.369

$$$$
ligand
 OpenBabel11021811473D
libRbt.so/2013.1/901 2013/11/27
 10  9  0  0  0  0  0  0  0  0999 V2000
   28.5915   14.3702   19.0310 N   0  0  0  0  0  0  0  0  0  0  0  0
   27.9958   14.2998   20.3991 C   0  0  2  0  0  0  0  0  0  0  0  0
   26.7150   15.1179   20.4960 C   0  0  0  0  0  0  0  0  0  0  0  0
   25.8040   14.7913   21.2489 O   0  0  0  0  0  0  0  0  0  0  0  0
   29.0074   14.7403   21.4601 C   0  0  0  0  0  0  0  0  0  0  0  0
   29.5480   16.1433   21.2441 C   0  0  0  0  0  0  0  0  0  0  0  0
   30.7357   16.4347   22.1528 C   0  0  0  0  0  0  0  0  0  0  0  0
   31.3185   17.8059   21.8522 C   0  0  0  0  0  0  0  0  0  0  0  0
   32.6048   18.0661   22.5915 N   0  0  0  0  0  0  0  0  0  0  0  0
   26.5490   16.1468   19.8550 O   0  0  0  0  0  0  0  0  0  0  0  0
  2  1  1  6  0  0  0
  2  3  1  0  0  0  0
  2  5  1  0  0  0  0
  3  4  1  0  0  0  0
  3 10  1  0  0  0  0
  5  6  1  0  0  0  0
  6  7  1  0  0  0  0
  7  8  1  0  0  0  0
  8  9  1  0  0  0  0
M  END
>  <CHROM.1>
148.87148739,57.47208003,-168.96120239,176.10687952,-172.24255934,28.84809147
15.80277553,21.03189887,-2.56882730,0.00506349,0.63401997

>  <Name>
ligand

>  <RI>
0

>  <Rbt.Current_Directory>
/home/itssahil/PROJECTS/Mol_Feturizer/New_Systems/rnas/3DIZ

>  <Rbt.Executable>
rbdock ($Id: //depot/dev/client3/rdock/2013.1/src/exe/rbdock.cxx#4 $)

>  <Rbt.Library>
libRbt.so (2013.1, Build901 2013/11/27)

>  <Rbt.Parameter_File>
/export/apps/rDock/src/rDock_2013.1_src/data/scripts/dock_solv.prm

>  <Rbt.Receptor>
prm/pocket_docking_5.prm

>  <SCORE>
-9.72877

>  <SCORE.INTER>
-8.4778

>  <SCORE.INTER.CONST>
1

>  <SCORE.INTER.POLAR>
0

>  <SCORE.INTER.ROT>
5

>  <SCORE.INTER.SOLV>
14.305

>  <SCORE.INTER.VDW>
-17.3535

>  <SCORE.INTER.norm>
-0.84778

>  <SCORE.INTRA>
-1.25097

>  <SCORE.INTRA.DIHEDRAL>
-1.41341

>  <SCORE.INTRA.DIHEDRAL.0>
3.67053

>  <SCORE.INTRA.POLAR>
0

>  <SCORE.INTRA.POLAR.0>
0

>  <SCORE.INTRA.REPUL>
0

>  <SCORE.INTRA.REPUL.0>
0

>  <SCORE.INTRA.SOLV>
-0.729218

>  <SCORE.INTRA.SOLV.lig_0>
-32.0553

>  <SCORE.INTRA.VDW>
-0.179654

>  <SCORE.INTRA.VDW.0>
-0.571921

>  <SCORE.INTRA.norm>
-0.125097

>  <SCORE.RESTR>
0

>  <SCORE.RESTR.CAVITY>
0

>  <SCORE.RESTR.norm>
0

>  <SCORE.SYSTEM>
0

>  <SCORE.SYSTEM.CONST>
0

>  <SCORE.SYSTEM.DIHEDRAL>
0

>  <SCORE.SYSTEM.SOLV>
0

>  <SCORE.SYSTEM.norm>
0

>  <SCORE.heavy>
10

>  <SCORE.norm>
-0.972877

>  <RMSD>
5.369

$$$$
ligand
 OpenBabel11021811473D
libRbt.so/2013.1/901 2013/11/27
 10  9  0  0  0  0  0  0  0  0999 V2000
   28.5791   14.3005   19.0712 N   0  0  0  0  0  0  0  0  0  0  0  0
   27.9690   14.3071   20.4348 C   0  0  2  0  0  0  0  0  0  0  0  0
   26.7190   15.1755   20.4858 C   0  0  0  0  0  0  0  0  0  0  0  0
   26.6641   16.2511   19.8996 O   0  0  0  0  0  0  0  0  0  0  0  0
   28.9869   14.7520   21.4879 C   0  0  0  0  0  0  0  0  0  0  0  0
   29.5641   16.1342   21.2346 C   0  0  0  0  0  0  0  0  0  0  0  0
   30.7359   16.4330   22.1614 C   0  0  0  0  0  0  0  0  0  0  0  0
   31.3439   17.7882   21.8390 C   0  0  0  0  0  0  0  0  0  0  0  0
   32.6006   18.0632   22.6225 N   0  0  0  0  0  0  0  0  0  0  0  0
   25.7093   14.8295   21.0841 O   0  0  0  0  0  0  0  0  0  0  0  0
  2  1  1  6  0  0  0
  2  3  1  0  0  0  0
  2  5  1  0  0  0  0
  3  4  1  0  0  0  0
  3 10  1  0  0  0  0
  5  6  1  0  0  0  0
  6  7  1  0  0  0  0
  7  8  1  0  0  0  0
  8  9  1  0  0  0  0
M  END
>  <CHROM.1>
-40.21067608,58.45263302,-170.20228308,176.92310512,-173.53580598,28.84873975
15.81561819,21.02912575,-2.57394417,-0.06609032,0.53501829

>  <Name>
ligand

>  <RI>
0

>  <Rbt.Current_Directory>
/home/itssahil/PROJECTS/Mol_Feturizer/New_Systems/rnas/3DIZ

>  <Rbt.Executable>
rbdock ($Id: //depot/dev/client3/rdock/2013.1/src/exe/rbdock.cxx#4 $)

>  <Rbt.Library>
libRbt.so (2013.1, Build901 2013/11/27)

>  <Rbt.Parameter_File>
/export/apps/rDock/src/rDock_2013.1_src/data/scripts/dock_solv.prm

>  <Rbt.Receptor>
prm/pocket_docking_8.prm

>  <SCORE>
-9.70455

>  <SCORE.INTER>
-8.41174

>  <SCORE.INTER.CONST>
1

>  <SCORE.INTER.POLAR>
0

>  <SCORE.INTER.ROT>
5

>  <SCORE.INTER.SOLV>
14.438

>  <SCORE.INTER.VDW>
-17.3538

>  <SCORE.INTER.norm>
-0.841174

>  <SCORE.INTRA>
-1.29281

>  <SCORE.INTRA.DIHEDRAL>
-1.51503

>  <SCORE.INTRA.DIHEDRAL.0>
3.67053

>  <SCORE.INTRA.POLAR>
0

>  <SCORE.INTRA.POLAR.0>
0

>  <SCORE.INTRA.REPUL>
0

>  <SCORE.INTRA.REPUL.0>
0

>  <SCORE.INTRA.SOLV>
-0.740174

>  <SCORE.INTRA.SOLV.lig_0>
-32.0553

>  <SCORE.INTRA.VDW>
-0.165208

>  <SCORE.INTRA.VDW.0>
-0.571921

>  <SCORE.INTRA.norm>
-0.129281

>  <SCORE.RESTR>
0

>  <SCORE.RESTR.CAVITY>
0

>  <SCORE.RESTR.norm>
0

>  <SCORE.SYSTEM>
0

>  <SCORE.SYSTEM.CONST>
0

>  <SCORE.SYSTEM.DIHEDRAL>
0

>  <SCORE.SYSTEM.SOLV>
0

>  <SCORE.SYSTEM.norm>
0

>  <SCORE.heavy>
10

>  <SCORE.norm>
-0.970455

>  <RMSD>
5.370

$$$$
ligand
 OpenBabel11021811473D
libRbt.so/2013.1/901 2013/11/27
 10  9  0  0  0  0  0  0  0  0999 V2000
   28.6113   14.3046   19.0704 N   0  0  0  0  0  0  0  0  0  0  0  0
   27.9813   14.3020   20.4249 C   0  0  2  0  0  0  0  0  0  0  0  0
   26.7211   15.1563   20.4591 C   0  0  0  0  0  0  0  0  0  0  0  0
   26.6469   16.2102   19.8366 O   0  0  0  0  0  0  0  0  0  0  0  0
   28.9788   14.7563   21.4935 C   0  0  0  0  0  0  0  0  0  0  0  0
   29.5536   16.1401   21.2443 C   0  0  0  0  0  0  0  0  0  0  0  0
   30.7252   16.4380   22.1716 C   0  0  0  0  0  0  0  0  0  0  0  0
   31.3263   17.7983   21.8580 C   0  0  0  0  0  0  0  0  0  0  0  0
   32.5973   18.0628   22.6218 N   0  0  0  0  0  0  0  0  0  0  0  0
   25.7220   14.8191   21.0796 O   0  0  0  0  0  0  0  0  0  0  0  0
  2  1  1  6  0  0  0
  2  3  1  0  0  0  0
  2  5  1  0  0  0  0
  3  4  1  0  0  0  0
  3 10  1  0  0  0  0
  5  6  1  0  0  0  0
  6  7  1  0  0  0  0
  7  8  1  0  0  0  0
  8  9  1  0  0  0  0
M  END
>  <CHROM.1>
-37.68157436,57.93508391,-169.09250075,177.21617897,-172.42568061,28.84773635
15.81059960,21.02256184,-2.56839245,-0.06353742,0.54587099

>  <Name>
ligand

>  <RI>
0

>  <Rbt.Current_Directory>
/home/itssahil/PROJECTS/Mol_Feturizer/New_Systems/rnas/3DIZ

>  <Rbt.Executable>
rbdock ($Id: //depot/dev/client3/rdock/2013.1/src/exe/rbdock.cxx#4 $)

>  <Rbt.Library>
libRbt.so (2013.1, Build901 2013/11/27)

>  <Rbt.Parameter_File>
/export/apps/rDock/src/rDock_2013.1_src/data/scripts/dock_solv.prm

>  <Rbt.Receptor>
prm/pocket_docking_7.prm

>  <SCORE>
-9.69117

>  <SCORE.INTER>
-8.47451

>  <SCORE.INTER.CONST>
1

>  <SCORE.INTER.POLAR>
0

>  <SCORE.INTER.ROT>
5

>  <SCORE.INTER.SOLV>
14.4947

>  <SCORE.INTER.VDW>
-17.4146

>  <SCORE.INTER.norm>
-0.847451

>  <SCORE.INTRA>
-1.21667

>  <SCORE.INTRA.DIHEDRAL>
-1.36006

>  <SCORE.INTRA.DIHEDRAL.0>
3.67053

>  <SCORE.INTRA.POLAR>
0

>  <SCORE.INTRA.POLAR.0>
0

>  <SCORE.INTRA.REPUL>
0

>  <SCORE.INTRA.REPUL.0>
0

>  <SCORE.INTRA.SOLV>
-0.724699

>  <SCORE.INTRA.SOLV.lig_0>
-32.0553

>  <SCORE.INTRA.VDW>
-0.174288

>  <SCORE.INTRA.VDW.0>
-0.571921

>  <SCORE.INTRA.norm>
-0.121667

>  <SCORE.RESTR>
0

>  <SCORE.RESTR.CAVITY>
0

>  <SCORE.RESTR.norm>
0

>  <SCORE.SYSTEM>
0

>  <SCORE.SYSTEM.CONST>
0

>  <SCORE.SYSTEM.DIHEDRAL>
0

>  <SCORE.SYSTEM.SOLV>
0

>  <SCORE.SYSTEM.norm>
0

>  <SCORE.heavy>
10

>  <SCORE.norm>
-0.969117

>  <RMSD>
5.371

$$$$
ligand
 OpenBabel11021811473D
libRbt.so/2013.1/901 2013/11/27
 10  9  0  0  0  0  0  0  0  0999 V2000
   28.5493   14.3792   19.0203 N   0  0  0  0  0  0  0  0  0  0  0  0
   27.9756   14.3099   20.3979 C   0  0  2  0  0  0  0  0  0  0  0  0
   26.7015   15.1355   20.5171 C   0  0  0  0  0  0  0  0  0  0  0  0
   26.5334   16.1505   19.8500 O   0  0  0  0  0  0  0  0  0  0  0  0
   29.0070   14.7426   21.4429 C   0  0  0  0  0  0  0  0  0  0  0  0
   29.5065   16.1650   21.2563 C   0  0  0  0  0  0  0  0  0  0  0  0
   30.7098   16.4596   22.1433 C   0  0  0  0  0  0  0  0  0  0  0  0
   31.2424   17.8584   21.8791 C   0  0  0  0  0  0  0  0  0  0  0  0
   32.5433   18.1291   22.5885 N   0  0  0  0  0  0  0  0  0  0  0  0
   25.7815   14.8109   21.2555 O   0  0  0  0  0  0  0  0  0  0  0  0
  2  1  1  6  0  0  0
  2  3  1  0  0  0  0
  2  5  1  0  0  0  0
  3  4  1  0  0  0  0
  3 10  1  0  0  0  0
  5  6  1  0  0  0  0
  6  7  1  0  0  0  0
  7  8  1  0  0  0  0
  8  9  1  0  0  0  0
M  END
>  <CHROM.1>
-31.13573740,60.04150272,-169.18445549,176.60962736,-172.00227801,28.81614995
15.82507460,21.03362573,-2.55899832,0.00173406,0.62347256

>  <Name>
ligand

>  <RI>
0

>  <Rbt.Current_Directory>
/home/itssahil/PROJECTS/Mol_Feturizer/New_Systems/rnas/3DIZ

>  <Rbt.Executable>
rbdock ($Id: //depot/dev/client3/rdock/2013.1/src/exe/rbdock.cxx#4 $)

>  <Rbt.Library>
libRbt.so (2013.1, Build901 2013/11/27)

>  <Rbt.Parameter_File>
/export/apps/rDock/src/rDock_2013.1_src/data/scripts/dock_solv.prm

>  <Rbt.Receptor>
prm/blind_docking_60.prm

>  <SCORE>
-9.59089

>  <SCORE.INTER>
-8.38046

>  <SCORE.INTER.CONST>
1

>  <SCORE.INTER.POLAR>
0

>  <SCORE.INTER.ROT>
5

>  <SCORE.INTER.SOLV>
14.368

>  <SCORE.INTER.VDW>
-17.3097

>  <SCORE.INTER.norm>
-0.838046

>  <SCORE.INTRA>
-1.21043

>  <SCORE.INTRA.DIHEDRAL>
-1.34323

>  <SCORE.INTRA.DIHEDRAL.0>
3.67053

>  <SCORE.INTRA.POLAR>
0

>  <SCORE.INTRA.POLAR.0>
0

>  <SCORE.INTRA.REPUL>
0

>  <SCORE.INTRA.REPUL.0>
0

>  <SCORE.INTRA.SOLV>
-0.748083

>  <SCORE.INTRA.SOLV.lig_0>
-32.0553

>  <SCORE.INTRA.VDW>
-0.164774

>  <SCORE.INTRA.VDW.0>
-0.571921

>  <SCORE.INTRA.norm>
-0.121043

>  <SCORE.RESTR>
0

>  <SCORE.RESTR.CAVITY>
0

>  <SCORE.RESTR.norm>
0

>  <SCORE.SYSTEM>
0

>  <SCORE.SYSTEM.CONST>
0

>  <SCORE.SYSTEM.DIHEDRAL>
0

>  <SCORE.SYSTEM.SOLV>
0

>  <SCORE.SYSTEM.norm>
0

>  <SCORE.heavy>
10

>  <SCORE.norm>
-0.959089

>  <RMSD>
5.372

$$$$
ligand
 OpenBabel11021811473D
libRbt.so/2013.1/901 2013/11/27
 10  9  0  0  0  0  0  0  0  0999 V2000
   28.6036   14.5097   19.2200 N   0  0  0  0  0  0  0  0  0  0  0  0
   28.1714   15.2247   20.4583 C   0  0  2  0  0  0  0  0  0  0  0  0
   26.6603   15.1694   20.6394 C   0  0  0  0  0  0  0  0  0  0  0  0
   25.8978   15.5911   19.7767 O   0  0  0  0  0  0  0  0  0  0  0  0
   28.6691   16.6723   20.4566 C   0  0  0  0  0  0  0  0  0  0  0  0
   30.1819   16.7985   20.5113 C   0  0  0  0  0  0  0  0  0  0  0  0
   30.7452   16.2524   21.8174 C   0  0  0  0  0  0  0  0  0  0  0  0
   32.2230   16.5837   21.9453 C   0  0  0  0  0  0  0  0  0  0  0  0
   32.4742   18.0559   22.1411 N   0  0  0  0  0  0  0  0  0  0  0  0
   26.1407   14.6785   21.6324 O   0  0  0  0  0  0  0  0  0  0  0  0
  2  1  1  6  0  0  0
  2  3  1  0  0  0  0
  2  5  1  0  0  0  0
  3  4  1  0  0  0  0
  3 10  1  0  0  0  0
  5  6  1  0  0  0  0
  6  7  1  0  0  0  0
  7  8  1  0  0  0  0
  8  9  1  0  0  0  0
M  END
>  <CHROM.1>
-57.15023324,-64.91267210,-64.35015145,-171.13025367,68.67325387,28.93243671
15.94704497,20.86158397,-2.81686396,0.29648853,1.30487953

>  <Name>
ligand

>  <RI>
0

>  <Rbt.Current_Directory>
/home/itssahil/PROJECTS/Mol_Feturizer/New_Systems/rnas/3DIZ

>  <Rbt.Executable>
rbdock ($Id: //depot/dev/client3/rdock/2013.1/src/exe/rbdock.cxx#4 $)

>  <Rbt.Library>
libRbt.so (2013.1, Build901 2013/11/27)

>  <Rbt.Parameter_File>
/export/apps/rDock/src/rDock_2013.1_src/data/scripts/dock_solv.prm

>  <Rbt.Receptor>
prm/pocket_docking_5.prm

>  <SCORE>
-8.54673

>  <SCORE.INTER>
-8.16883

>  <SCORE.INTER.CONST>
1

>  <SCORE.INTER.POLAR>
0

>  <SCORE.INTER.ROT>
5

>  <SCORE.INTER.SOLV>
12.352

>  <SCORE.INTER.VDW>
-16.4966

>  <SCORE.INTER.norm>
-0.816883

>  <SCORE.INTRA>
-0.377901

>  <SCORE.INTRA.DIHEDRAL>
-1.37554

>  <SCORE.INTRA.DIHEDRAL.0>
3.67053

>  <SCORE.INTRA.POLAR>
0

>  <SCORE.INTRA.POLAR.0>
0

>  <SCORE.INTRA.REPUL>
0

>  <SCORE.INTRA.REPUL.0>
0

>  <SCORE.INTRA.SOLV>
0.542804

>  <SCORE.INTRA.SOLV.lig_0>
-32.0553

>  <SCORE.INTRA.VDW>
0.0384669

>  <SCORE.INTRA.VDW.0>
-0.571921

>  <SCORE.INTRA.norm>
-0.0377901

>  <SCORE.RESTR>
0

>  <SCORE.RESTR.CAVITY>
0

>  <SCORE.RESTR.norm>
0

>  <SCORE.SYSTEM>
0

>  <SCORE.SYSTEM.CONST>
0

>  <SCORE.SYSTEM.DIHEDRAL>
0

>  <SCORE.SYSTEM.SOLV>
0

>  <SCORE.SYSTEM.norm>
0

>  <SCORE.heavy>
10

>  <SCORE.norm>
-0.854673

>  <RMSD>
5.372

$$$$
ligand
 OpenBabel11021811473D
libRbt.so/2013.1/901 2013/11/27
 10  9  0  0  0  0  0  0  0  0999 V2000
   28.5769   14.3520   19.0282 N   0  0  0  0  0  0  0  0  0  0  0  0
   27.9827   14.2993   20.3977 C   0  0  2  0  0  0  0  0  0  0  0  0
   26.7152   15.1381   20.4919 C   0  0  0  0  0  0  0  0  0  0  0  0
   26.5869   16.1757   19.8511 O   0  0  0  0  0  0  0  0  0  0  0  0
   29.0031   14.7303   21.4542 C   0  0  0  0  0  0  0  0  0  0  0  0
   29.5628   16.1247   21.2305 C   0  0  0  0  0  0  0  0  0  0  0  0
   30.7591   16.4021   22.1323 C   0  0  0  0  0  0  0  0  0  0  0  0
   31.3250   17.7869   21.8634 C   0  0  0  0  0  0  0  0  0  0  0  0
   32.5984   18.0525   22.6228 N   0  0  0  0  0  0  0  0  0  0  0  0
   25.7621   14.8033   21.1822 O   0  0  0  0  0  0  0  0  0  0  0  0
  2  1  1  6  0  0  0
  2  3  1  0  0  0  0
  2  5  1  0  0  0  0
  3  4  1  0  0  0  0
  3 10  1  0  0  0  0
  5  6  1  0  0  0  0
  6  7  1  0  0  0  0
  7  8  1  0  0  0  0
  8  9  1  0  0  0  0
M  END
>  <CHROM.1>
-33.83990945,57.61693746,-168.81258173,178.42595847,-173.79352993,28.84837944
15.79794374,21.02337481,-2.57072775,-0.02400587,0.60168734

>  <Name>
ligand

>  <RI>
0

>  <Rbt.Current_Directory>
/home/itssahil/PROJECTS/Mol_Feturizer/New_Systems/rnas/3DIZ

>  <Rbt.Executable>
rbdock ($Id: //depot/dev/client3/rdock/2013.1/src/exe/rbdock.cxx#4 $)

>  <Rbt.Library>
libRbt.so (2013.1, Build901 2013/11/27)

>  <Rbt.Parameter_File>
/export/apps/rDock/src/rDock_2013.1_src/data/scripts/dock_solv.prm

>  <Rbt.Receptor>
prm/pocket_docking_6.prm

>  <SCORE>
-9.6566

>  <SCORE.INTER>
-8.41153

>  <SCORE.INTER.CONST>
1

>  <SCORE.INTER.POLAR>
0

>  <SCORE.INTER.ROT>
5

>  <SCORE.INTER.SOLV>
14.3188

>  <SCORE.INTER.VDW>
-17.3139

>  <SCORE.INTER.norm>
-0.841153

>  <SCORE.INTRA>
-1.24507

>  <SCORE.INTRA.DIHEDRAL>
-1.41646

>  <SCORE.INTRA.DIHEDRAL.0>
3.67053

>  <SCORE.INTRA.POLAR>
0

>  <SCORE.INTRA.POLAR.0>
0

>  <SCORE.INTRA.REPUL>
0

>  <SCORE.INTRA.REPUL.0>
0

>  <SCORE.INTRA.SOLV>
-0.718801

>  <SCORE.INTRA.SOLV.lig_0>
-32.0553

>  <SCORE.INTRA.VDW>
-0.177442

>  <SCORE.INTRA.VDW.0>
-0.571921

>  <SCORE.INTRA.norm>
-0.124507

>  <SCORE.RESTR>
0

>  <SCORE.RESTR.CAVITY>
0

>  <SCORE.RESTR.norm>
0

>  <SCORE.SYSTEM>
0

>  <SCORE.SYSTEM.CONST>
0

>  <SCORE.SYSTEM.DIHEDRAL>
0

>  <SCORE.SYSTEM.SOLV>
0

>  <SCORE.SYSTEM.norm>
0

>  <SCORE.heavy>
10

>  <SCORE.norm>
-0.96566

>  <RMSD>
5.372

$$$$
ligand
 OpenBabel11021811473D
libRbt.so/2013.1/901 2013/11/27
 10  9  0  0  0  0  0  0  0  0999 V2000
   27.9338   15.1631   18.9331 N   0  0  0  0  0  0  0  0  0  0  0  0
   27.9390   14.4938   20.2686 C   0  0  2  0  0  0  0  0  0  0  0  0
   26.7636   14.9437   21.1261 C   0  0  0  0  0  0  0  0  0  0  0  0
   26.9108   15.2392   22.3070 O   0  0  0  0  0  0  0  0  0  0  0  0
   29.2663   14.7291   20.9937 C   0  0  0  0  0  0  0  0  0  0  0  0
   29.6066   16.1972   21.1847 C   0  0  0  0  0  0  0  0  0  0  0  0
   30.9789   16.3784   21.8216 C   0  0  0  0  0  0  0  0  0  0  0  0
   31.2991   17.8537   21.9971 C   0  0  0  0  0  0  0  0  0  0  0  0
   32.6991   18.0892   22.5006 N   0  0  0  0  0  0  0  0  0  0  0  0
   25.6330   15.0591   20.6729 O   0  0  0  0  0  0  0  0  0  0  0  0
  2  1  1  6  0  0  0
  2  3  1  0  0  0  0
  2  5  1  0  0  0  0
  3  4  1  0  0  0  0
  3 10  1  0  0  0  0
  5  6  1  0  0  0  0
  6  7  1  0  0  0  0
  7  8  1  0  0  0  0
  8  9  1  0  0  0  0
M  END
>  <CHROM.1>
-135.04007729,57.14935120,-175.99549073,179.76583248,-174.48097222,28.86651115
15.81769969,21.19660739,-2.72637305,0.33972235,1.15018841

>  <Name>
ligand

>  <RI>
0

>  <Rbt.Current_Directory>
/home/itssahil/PROJECTS/Mol_Feturizer/New_Systems/rnas/3DIZ

>  <Rbt.Executable>
rbdock ($Id: //depot/dev/client3/rdock/2013.1/src/exe/rbdock.cxx#4 $)

>  <Rbt.Library>
libRbt.so (2013.1, Build901 2013/11/27)

>  <Rbt.Parameter_File>
/export/apps/rDock/src/rDock_2013.1_src/data/scripts/dock_solv.prm

>  <Rbt.Receptor>
prm/pocket_docking_8.prm

>  <SCORE>
-9.79872

>  <SCORE.INTER>
-9.13012

>  <SCORE.INTER.CONST>
1

>  <SCORE.INTER.POLAR>
0

>  <SCORE.INTER.ROT>
5

>  <SCORE.INTER.SOLV>
13.4763

>  <SCORE.INTER.VDW>
-17.5122

>  <SCORE.INTER.norm>
-0.913012

>  <SCORE.INTRA>
-0.668608

>  <SCORE.INTRA.DIHEDRAL>
-1.9012

>  <SCORE.INTRA.DIHEDRAL.0>
3.67053

>  <SCORE.INTRA.POLAR>
0

>  <SCORE.INTRA.POLAR.0>
0

>  <SCORE.INTRA.REPUL>
0

>  <SCORE.INTRA.REPUL.0>
0

>  <SCORE.INTRA.SOLV>
-0.765346

>  <SCORE.INTRA.SOLV.lig_0>
-32.0553

>  <SCORE.INTRA.VDW>
0.664666

>  <SCORE.INTRA.VDW.0>
-0.571921

>  <SCORE.INTRA.norm>
-0.0668608

>  <SCORE.RESTR>
0

>  <SCORE.RESTR.CAVITY>
0

>  <SCORE.RESTR.norm>
0

>  <SCORE.SYSTEM>
0

>  <SCORE.SYSTEM.CONST>
0

>  <SCORE.SYSTEM.DIHEDRAL>
0

>  <SCORE.SYSTEM.SOLV>
0

>  <SCORE.SYSTEM.norm>
0

>  <SCORE.heavy>
10

>  <SCORE.norm>
-0.979872

>  <RMSD>
5.372

$$$$
ligand
 OpenBabel11021811473D
libRbt.so/2013.1/901 2013/11/27
 10  9  0  0  0  0  0  0  0  0999 V2000
   28.6310   14.5683   19.2391 N   0  0  0  0  0  0  0  0  0  0  0  0
   28.1681   15.2735   20.4719 C   0  0  2  0  0  0  0  0  0  0  0  0
   26.6580   15.1739   20.6415 C   0  0  0  0  0  0  0  0  0  0  0  0
   25.8897   15.6074   19.7898 O   0  0  0  0  0  0  0  0  0  0  0  0
   28.6226   16.7352   20.4699 C   0  0  0  0  0  0  0  0  0  0  0  0
   30.1254   16.9082   20.6084 C   0  0  0  0  0  0  0  0  0  0  0  0
   30.6275   16.4067   21.9568 C   0  0  0  0  0  0  0  0  0  0  0  0
   32.1241   16.6351   22.0916 C   0  0  0  0  0  0  0  0  0  0  0  0
   32.4904   18.0960   22.1082 N   0  0  0  0  0  0  0  0  0  0  0  0
   26.1456   14.6345   21.6128 O   0  0  0  0  0  0  0  0  0  0  0  0
  2  1  1  6  0  0  0
  2  3  1  0  0  0  0
  2  5  1  0  0  0  0
  3  4  1  0  0  0  0
  3 10  1  0  0  0  0
  5  6  1  0  0  0  0
  6  7  1  0  0  0  0
  7  8  1  0  0  0  0
  8  9  1  0  0  0  0
M  END
>  <CHROM.1>
-59.40328206,-67.90988451,-64.51079891,-177.99132565,64.91381169,28.90413805
15.99616700,20.90024727,-2.83993720,0.34613606,1.42387037

>  <Name>
ligand

>  <RI>
0

>  <Rbt.Current_Directory>
/home/itssahil/PROJECTS/Mol_Feturizer/New_Systems/rnas/3DIZ

>  <Rbt.Executable>
rbdock ($Id: //depot/dev/client3/rdock/2013.1/src/exe/rbdock.cxx#4 $)

>  <Rbt.Library>
libRbt.so (2013.1, Build901 2013/11/27)

>  <Rbt.Parameter_File>
/export/apps/rDock/src/rDock_2013.1_src/data/scripts/dock_solv.prm

>  <Rbt.Receptor>
prm/pocket_docking_6.prm

>  <SCORE>
-8.39283

>  <SCORE.INTER>
-7.83753

>  <SCORE.INTER.CONST>
1

>  <SCORE.INTER.POLAR>
0

>  <SCORE.INTER.ROT>
5

>  <SCORE.INTER.SOLV>
12.4353

>  <SCORE.INTER.VDW>
-16.3035

>  <SCORE.INTER.norm>
-0.783753

>  <SCORE.INTRA>
-0.5553

>  <SCORE.INTRA.DIHEDRAL>
-1.71792

>  <SCORE.INTRA.DIHEDRAL.0>
3.67053

>  <SCORE.INTRA.POLAR>
0

>  <SCORE.INTRA.POLAR.0>
0

>  <SCORE.INTRA.REPUL>
0

>  <SCORE.INTRA.REPUL.0>
0

>  <SCORE.INTRA.SOLV>
0.493443

>  <SCORE.INTRA.SOLV.lig_0>
-32.0553

>  <SCORE.INTRA.VDW>
0.056937

>  <SCORE.INTRA.VDW.0>
-0.571921

>  <SCORE.INTRA.norm>
-0.05553

>  <SCORE.RESTR>
0

>  <SCORE.RESTR.CAVITY>
0

>  <SCORE.RESTR.norm>
0

>  <SCORE.SYSTEM>
0

>  <SCORE.SYSTEM.CONST>
0

>  <SCORE.SYSTEM.DIHEDRAL>
0

>  <SCORE.SYSTEM.SOLV>
0

>  <SCORE.SYSTEM.norm>
0

>  <SCORE.heavy>
10

>  <SCORE.norm>
-0.839283

>  <RMSD>
5.373

$$$$
ligand
 OpenBabel11021811473D
libRbt.so/2013.1/901 2013/11/27
 10  9  0  0  0  0  0  0  0  0999 V2000
   28.2492   14.2456   21.9656 N   0  0  0  0  0  0  0  0  0  0  0  0
   27.7236   15.4704   21.2910 C   0  0  2  0  0  0  0  0  0  0  0  0
   27.0540   15.1367   19.9646 C   0  0  0  0  0  0  0  0  0  0  0  0
   25.9452   15.5764   19.6804 O   0  0  0  0  0  0  0  0  0  0  0  0
   28.8326   16.5076   21.0977 C   0  0  0  0  0  0  0  0  0  0  0  0
   30.0756   15.9547   20.4217 C   0  0  0  0  0  0  0  0  0  0  0  0
   31.2918   16.8378   20.6714 C   0  0  0  0  0  0  0  0  0  0  0  0
   32.5464   16.1989   20.0988 C   0  0  0  0  0  0  0  0  0  0  0  0
   33.8077   16.8878   20.5497 N   0  0  0  0  0  0  0  0  0  0  0  0
   27.5991   14.4447   19.1154 O   0  0  0  0  0  0  0  0  0  0  0  0
  2  1  1  6  0  0  0
  2  3  1  0  0  0  0
  2  5  1  0  0  0  0
  3  4  1  0  0  0  0
  3 10  1  0  0  0  0
  5  6  1  0  0  0  0
  6  7  1  0  0  0  0
  7  8  1  0  0  0  0
  8  9  1  0  0  0  0
M  END
>  <CHROM.1>
131.41533987,51.74692903,-160.46317681,174.64103815,-168.67866817,29.28461495
15.71634966,20.45668644,3.11324992,-0.26592781,-1.47065046

>  <Name>
ligand

>  <RI>
0

>  <Rbt.Current_Directory>
/home/itssahil/PROJECTS/Mol_Feturizer/New_Systems/rnas/3DIZ

>  <Rbt.Executable>
rbdock ($Id: //depot/dev/client3/rdock/2013.1/src/exe/rbdock.cxx#4 $)

>  <Rbt.Library>
libRbt.so (2013.1, Build901 2013/11/27)

>  <Rbt.Parameter_File>
/export/apps/rDock/src/rDock_2013.1_src/data/scripts/dock_solv.prm

>  <Rbt.Receptor>
prm/pocket_docking_2.prm

>  <SCORE>
-5.39651

>  <SCORE.INTER>
-4.99678

>  <SCORE.INTER.CONST>
1

>  <SCORE.INTER.POLAR>
0

>  <SCORE.INTER.ROT>
5

>  <SCORE.INTER.SOLV>
18.341

>  <SCORE.INTER.VDW>
-16.3782

>  <SCORE.INTER.norm>
-0.499678

>  <SCORE.INTRA>
-0.400242

>  <SCORE.INTRA.DIHEDRAL>
0.140755

>  <SCORE.INTRA.DIHEDRAL.0>
3.67053

>  <SCORE.INTRA.POLAR>
0

>  <SCORE.INTRA.POLAR.0>
0

>  <SCORE.INTRA.REPUL>
0

>  <SCORE.INTRA.REPUL.0>
0

>  <SCORE.INTRA.SOLV>
-0.608138

>  <SCORE.INTRA.SOLV.lig_0>
-32.0553

>  <SCORE.INTRA.VDW>
-0.16655

>  <SCORE.INTRA.VDW.0>
-0.571921

>  <SCORE.INTRA.norm>
-0.0400242

>  <SCORE.RESTR>
0.000509589

>  <SCORE.RESTR.CAVITY>
0.000509589

>  <SCORE.RESTR.norm>
5.09589e-05

>  <SCORE.SYSTEM>
0

>  <SCORE.SYSTEM.CONST>
0

>  <SCORE.SYSTEM.DIHEDRAL>
0

>  <SCORE.SYSTEM.SOLV>
0

>  <SCORE.SYSTEM.norm>
0

>  <SCORE.heavy>
10

>  <SCORE.norm>
-0.539651

>  <RMSD>
5.375

$$$$
ligand
 OpenBabel11021811473D
libRbt.so/2013.1/901 2013/11/27
 10  9  0  0  0  0  0  0  0  0999 V2000
   27.9385   15.1536   18.9324 N   0  0  0  0  0  0  0  0  0  0  0  0
   27.9388   14.4952   20.2733 C   0  0  2  0  0  0  0  0  0  0  0  0
   26.7637   14.9566   21.1251 C   0  0  0  0  0  0  0  0  0  0  0  0
   25.6373   15.0670   20.6532 O   0  0  0  0  0  0  0  0  0  0  0  0
   29.2658   14.7313   20.9989 C   0  0  0  0  0  0  0  0  0  0  0  0
   29.6150   16.1995   21.1719 C   0  0  0  0  0  0  0  0  0  0  0  0
   30.9913   16.3801   21.8002 C   0  0  0  0  0  0  0  0  0  0  0  0
   31.3384   17.8551   21.9188 C   0  0  0  0  0  0  0  0  0  0  0  0
   32.7268   18.0846   22.4557 N   0  0  0  0  0  0  0  0  0  0  0  0
   26.8817   15.2078   22.3167 O   0  0  0  0  0  0  0  0  0  0  0  0
  2  1  1  6  0  0  0
  2  3  1  0  0  0  0
  2  5  1  0  0  0  0
  3  4  1  0  0  0  0
  3 10  1  0  0  0  0
  5  6  1  0  0  0  0
  6  7  1  0  0  0  0
  7  8  1  0  0  0  0
  8  9  1  0  0  0  0
M  END
>  <CHROM.1>
43.35034894,56.83980461,-175.56170750,178.03623306,-176.41486308,28.87283205
15.81561146,21.18065410,-2.74236717,0.34752884,1.16503993

>  <Name>
ligand

>  <RI>
0

>  <Rbt.Current_Directory>
/home/itssahil/PROJECTS/Mol_Feturizer/New_Systems/rnas/3DIZ

>  <Rbt.Executable>
rbdock ($Id: //depot/dev/client3/rdock/2013.1/src/exe/rbdock.cxx#4 $)

>  <Rbt.Library>
libRbt.so (2013.1, Build901 2013/11/27)

>  <Rbt.Parameter_File>
/export/apps/rDock/src/rDock_2013.1_src/data/scripts/dock_solv.prm

>  <Rbt.Receptor>
prm/pocket_docking_8.prm

>  <SCORE>
-9.98638

>  <SCORE.INTER>
-9.1522

>  <SCORE.INTER.CONST>
1

>  <SCORE.INTER.POLAR>
0

>  <SCORE.INTER.ROT>
5

>  <SCORE.INTER.SOLV>
13.4205

>  <SCORE.INTER.VDW>
-17.5083

>  <SCORE.INTER.norm>
-0.91522

>  <SCORE.INTRA>
-0.834175

>  <SCORE.INTRA.DIHEDRAL>
-2.02516

>  <SCORE.INTRA.DIHEDRAL.0>
3.67053

>  <SCORE.INTRA.POLAR>
0

>  <SCORE.INTRA.POLAR.0>
0

>  <SCORE.INTRA.REPUL>
0

>  <SCORE.INTRA.REPUL.0>
0

>  <SCORE.INTRA.SOLV>
-0.764915

>  <SCORE.INTRA.SOLV.lig_0>
-32.0553

>  <SCORE.INTRA.VDW>
0.560861

>  <SCORE.INTRA.VDW.0>
-0.571921

>  <SCORE.INTRA.norm>
-0.0834175

>  <SCORE.RESTR>
0

>  <SCORE.RESTR.CAVITY>
0

>  <SCORE.RESTR.norm>
0

>  <SCORE.SYSTEM>
0

>  <SCORE.SYSTEM.CONST>
0

>  <SCORE.SYSTEM.DIHEDRAL>
0

>  <SCORE.SYSTEM.SOLV>
0

>  <SCORE.SYSTEM.norm>
0

>  <SCORE.heavy>
10

>  <SCORE.norm>
-0.998638

>  <RMSD>
5.375

$$$$
ligand
 OpenBabel11021811473D
libRbt.so/2013.1/901 2013/11/27
 10  9  0  0  0  0  0  0  0  0999 V2000
   28.5791   14.5283   19.2431 N   0  0  0  0  0  0  0  0  0  0  0  0
   28.1350   15.2398   20.4792 C   0  0  2  0  0  0  0  0  0  0  0  0
   26.6235   15.1728   20.6526 C   0  0  0  0  0  0  0  0  0  0  0  0
   25.8624   15.6042   19.7935 O   0  0  0  0  0  0  0  0  0  0  0  0
   28.6215   16.6912   20.4803 C   0  0  0  0  0  0  0  0  0  0  0  0
   30.1303   16.8300   20.5893 C   0  0  0  0  0  0  0  0  0  0  0  0
   30.6474   16.3146   21.9266 C   0  0  0  0  0  0  0  0  0  0  0  0
   32.1482   16.5263   22.0400 C   0  0  0  0  0  0  0  0  0  0  0  0
   32.5317   17.9829   22.0431 N   0  0  0  0  0  0  0  0  0  0  0  0
   26.1023   14.6628   21.6351 O   0  0  0  0  0  0  0  0  0  0  0  0
  2  1  1  6  0  0  0
  2  3  1  0  0  0  0
  2  5  1  0  0  0  0
  3  4  1  0  0  0  0
  3 10  1  0  0  0  0
  5  6  1  0  0  0  0
  6  7  1  0  0  0  0
  7  8  1  0  0  0  0
  8  9  1  0  0  0  0
M  END
>  <CHROM.1>
-58.08709065,-66.83725625,-64.90798414,-177.21710827,64.20805491,28.89384843
15.94851026,20.88977118,-2.85129711,0.32321826,1.41468262

>  <Name>
ligand

>  <RI>
0

>  <Rbt.Current_Directory>
/home/itssahil/PROJECTS/Mol_Feturizer/New_Systems/rnas/3DIZ

>  <Rbt.Executable>
rbdock ($Id: //depot/dev/client3/rdock/2013.1/src/exe/rbdock.cxx#4 $)

>  <Rbt.Library>
libRbt.so (2013.1, Build901 2013/11/27)

>  <Rbt.Parameter_File>
/export/apps/rDock/src/rDock_2013.1_src/data/scripts/dock_solv.prm

>  <Rbt.Receptor>
prm/pocket_docking_4.prm

>  <SCORE>
-8.48641

>  <SCORE.INTER>
-7.91861

>  <SCORE.INTER.CONST>
1

>  <SCORE.INTER.POLAR>
0

>  <SCORE.INTER.ROT>
5

>  <SCORE.INTER.SOLV>
12.318

>  <SCORE.INTER.VDW>
-16.3184

>  <SCORE.INTER.norm>
-0.791861

>  <SCORE.INTRA>
-0.567799

>  <SCORE.INTRA.DIHEDRAL>
-1.76986

>  <SCORE.INTRA.DIHEDRAL.0>
3.67053

>  <SCORE.INTRA.POLAR>
0

>  <SCORE.INTRA.POLAR.0>
0

>  <SCORE.INTRA.REPUL>
0

>  <SCORE.INTRA.REPUL.0>
0

>  <SCORE.INTRA.SOLV>
0.524637

>  <SCORE.INTRA.SOLV.lig_0>
-32.0553

>  <SCORE.INTRA.VDW>
0.0548146

>  <SCORE.INTRA.VDW.0>
-0.571921

>  <SCORE.INTRA.norm>
-0.0567799

>  <SCORE.RESTR>
0

>  <SCORE.RESTR.CAVITY>
0

>  <SCORE.RESTR.norm>
0

>  <SCORE.SYSTEM>
0

>  <SCORE.SYSTEM.CONST>
0

>  <SCORE.SYSTEM.DIHEDRAL>
0

>  <SCORE.SYSTEM.SOLV>
0

>  <SCORE.SYSTEM.norm>
0

>  <SCORE.heavy>
10

>  <SCORE.norm>
-0.848641

>  <RMSD>
5.376

$$$$
ligand
 OpenBabel11021811473D
libRbt.so/2013.1/901 2013/11/27
 10  9  0  0  0  0  0  0  0  0999 V2000
   28.6676   14.8771   19.0706 N   0  0  0  0  0  0  0  0  0  0  0  0
   28.2341   14.9970   20.4951 C   0  0  2  0  0  0  0  0  0  0  0  0
   26.7191   15.0963   20.6139 C   0  0  0  0  0  0  0  0  0  0  0  0
   26.0428   15.6223   19.7367 O   0  0  0  0  0  0  0  0  0  0  0  0
   28.9149   16.1867   21.1764 C   0  0  0  0  0  0  0  0  0  0  0  0
   30.4249   16.0528   21.2746 C   0  0  0  0  0  0  0  0  0  0  0  0
   31.0570   17.2768   21.9256 C   0  0  0  0  0  0  0  0  0  0  0  0
   32.5665   17.1209   22.0105 C   0  0  0  0  0  0  0  0  0  0  0  0
   33.2182   17.0225   20.6561 N   0  0  0  0  0  0  0  0  0  0  0  0
   26.1086   14.6331   21.5677 O   0  0  0  0  0  0  0  0  0  0  0  0
  2  1  1  6  0  0  0
  2  3  1  0  0  0  0
  2  5  1  0  0  0  0
  3  4  1  0  0  0  0
  3 10  1  0  0  0  0
  5  6  1  0  0  0  0
  6  7  1  0  0  0  0
  7  8  1  0  0  0  0
  8  9  1  0  0  0  0
M  END
>  <CHROM.1>
-31.10507037,-63.76975111,178.48238079,-179.90038450,62.85345518,29.14987875
15.88494286,20.85335368,-2.89594106,0.26992508,1.27557106

>  <Name>
ligand

>  <RI>
0

>  <Rbt.Current_Directory>
/home/itssahil/PROJECTS/Mol_Feturizer/New_Systems/rnas/3DIZ

>  <Rbt.Executable>
rbdock ($Id: //depot/dev/client3/rdock/2013.1/src/exe/rbdock.cxx#4 $)

>  <Rbt.Library>
libRbt.so (2013.1, Build901 2013/11/27)

>  <Rbt.Parameter_File>
/export/apps/rDock/src/rDock_2013.1_src/data/scripts/dock_solv.prm

>  <Rbt.Receptor>
prm/pocket_docking_2.prm

>  <SCORE>
-9.67016

>  <SCORE.INTER>
-8.53704

>  <SCORE.INTER.CONST>
1

>  <SCORE.INTER.POLAR>
0

>  <SCORE.INTER.ROT>
5

>  <SCORE.INTER.SOLV>
12.8686

>  <SCORE.INTER.VDW>
-16.9142

>  <SCORE.INTER.norm>
-0.853704

>  <SCORE.INTRA>
-1.13312

>  <SCORE.INTRA.DIHEDRAL>
-2.00254

>  <SCORE.INTRA.DIHEDRAL.0>
3.67053

>  <SCORE.INTRA.POLAR>
0

>  <SCORE.INTRA.POLAR.0>
0

>  <SCORE.INTRA.REPUL>
0

>  <SCORE.INTRA.REPUL.0>
0

>  <SCORE.INTRA.SOLV>
0.0938463

>  <SCORE.INTRA.SOLV.lig_0>
-32.0553

>  <SCORE.INTRA.VDW>
-0.178773

>  <SCORE.INTRA.VDW.0>
-0.571921

>  <SCORE.INTRA.norm>
-0.113312

>  <SCORE.RESTR>
0

>  <SCORE.RESTR.CAVITY>
0

>  <SCORE.RESTR.norm>
0

>  <SCORE.SYSTEM>
0

>  <SCORE.SYSTEM.CONST>
0

>  <SCORE.SYSTEM.DIHEDRAL>
0

>  <SCORE.SYSTEM.SOLV>
0

>  <SCORE.SYSTEM.norm>
0

>  <SCORE.heavy>
10

>  <SCORE.norm>
-0.967016

>  <RMSD>
5.379

$$$$
ligand
 OpenBabel11021811473D
libRbt.so/2013.1/901 2013/11/27
 10  9  0  0  0  0  0  0  0  0999 V2000
   28.9102   14.1657   19.8960 N   0  0  0  0  0  0  0  0  0  0  0  0
   28.2873   14.9548   21.0010 C   0  0  2  0  0  0  0  0  0  0  0  0
   26.7932   15.1482   20.7789 C   0  0  0  0  0  0  0  0  0  0  0  0
   26.3664   15.7705   19.8124 O   0  0  0  0  0  0  0  0  0  0  0  0
   28.9926   16.3019   21.1768 C   0  0  0  0  0  0  0  0  0  0  0  0
   30.4662   16.1795   21.5249 C   0  0  0  0  0  0  0  0  0  0  0  0
   31.0936   17.5399   21.8027 C   0  0  0  0  0  0  0  0  0  0  0  0
   32.5947   17.4088   22.0017 C   0  0  0  0  0  0  0  0  0  0  0  0
   33.3118   16.9762   20.7497 N   0  0  0  0  0  0  0  0  0  0  0  0
   25.9554   14.6703   21.5317 O   0  0  0  0  0  0  0  0  0  0  0  0
  2  1  1  6  0  0  0
  2  3  1  0  0  0  0
  2  5  1  0  0  0  0
  3  4  1  0  0  0  0
  3 10  1  0  0  0  0
  5  6  1  0  0  0  0
  6  7  1  0  0  0  0
  7  8  1  0  0  0  0
  8  9  1  0  0  0  0
M  END
>  <CHROM.1>
-62.88762470,-60.46148240,-175.25340842,-173.94124866,66.17776849,29.23203313
15.91008929,21.02158991,-2.78509887,0.13211380,0.68944943

>  <Name>
ligand

>  <RI>
0

>  <Rbt.Current_Directory>
/home/itssahil/PROJECTS/Mol_Feturizer/New_Systems/rnas/3DIZ

>  <Rbt.Executable>
rbdock ($Id: //depot/dev/client3/rdock/2013.1/src/exe/rbdock.cxx#4 $)

>  <Rbt.Library>
libRbt.so (2013.1, Build901 2013/11/27)

>  <Rbt.Parameter_File>
/export/apps/rDock/src/rDock_2013.1_src/data/scripts/dock_solv.prm

>  <Rbt.Receptor>
prm/pocket_docking_2.prm

>  <SCORE>
-9.28724

>  <SCORE.INTER>
-8.31499

>  <SCORE.INTER.CONST>
1

>  <SCORE.INTER.POLAR>
0

>  <SCORE.INTER.ROT>
5

>  <SCORE.INTER.SOLV>
14.7578

>  <SCORE.INTER.VDW>
-17.3959

>  <SCORE.INTER.norm>
-0.831499

>  <SCORE.INTRA>
-0.98003

>  <SCORE.INTRA.DIHEDRAL>
-1.7908

>  <SCORE.INTRA.DIHEDRAL.0>
3.67053

>  <SCORE.INTRA.POLAR>
0

>  <SCORE.INTRA.POLAR.0>
0

>  <SCORE.INTRA.REPUL>
0

>  <SCORE.INTRA.REPUL.0>
0

>  <SCORE.INTRA.SOLV>
0.081313

>  <SCORE.INTRA.SOLV.lig_0>
-32.0553

>  <SCORE.INTRA.VDW>
-0.125288

>  <SCORE.INTRA.VDW.0>
-0.571921

>  <SCORE.INTRA.norm>
-0.098003

>  <SCORE.RESTR>
0.00777598

>  <SCORE.RESTR.CAVITY>
0.00777598

>  <SCORE.RESTR.norm>
0.000777598

>  <SCORE.SYSTEM>
0

>  <SCORE.SYSTEM.CONST>
0

>  <SCORE.SYSTEM.DIHEDRAL>
0

>  <SCORE.SYSTEM.SOLV>
0

>  <SCORE.SYSTEM.norm>
0

>  <SCORE.heavy>
10

>  <SCORE.norm>
-0.928724

>  <RMSD>
5.380

$$$$
ligand
 OpenBabel11021811473D
libRbt.so/2013.1/901 2013/11/27
 10  9  0  0  0  0  0  0  0  0999 V2000
   25.5978   14.7597   20.8813 N   0  0  0  0  0  0  0  0  0  0  0  0
   26.9255   15.2759   20.4319 C   0  0  2  0  0  0  0  0  0  0  0  0
   27.4933   14.4442   19.2896 C   0  0  0  0  0  0  0  0  0  0  0  0
   26.8813   14.3034   18.2364 O   0  0  0  0  0  0  0  0  0  0  0  0
   27.9110   15.3435   21.6012 C   0  0  0  0  0  0  0  0  0  0  0  0
   29.2016   16.0737   21.2714 C   0  0  0  0  0  0  0  0  0  0  0  0
   30.2266   15.9380   22.3906 C   0  0  0  0  0  0  0  0  0  0  0  0
   31.4970   16.7001   22.0510 C   0  0  0  0  0  0  0  0  0  0  0  0
   32.1703   16.1833   20.8067 N   0  0  0  0  0  0  0  0  0  0  0  0
   28.5905   13.9070   19.3575 O   0  0  0  0  0  0  0  0  0  0  0  0
  2  1  1  1  0  0  0
  2  3  1  0  0  0  0
  2  5  1  0  0  0  0
  3  4  1  0  0  0  0
  3 10  1  0  0  0  0
  5  6  1  0  0  0  0
  6  7  1  0  0  0  0
  7  8  1  0  0  0  0
  8  9  1  0  0  0  0
M  END
>  <CHROM.1>
58.32515816,-170.29715272,-171.62495061,-178.81114166,-61.47045847,28.65271250
15.27186100,20.60101397,2.61133736,-0.16439701,-2.00336515

>  <Name>
ligand

>  <RI>
0

>  <Rbt.Current_Directory>
/home/itssahil/PROJECTS/Mol_Feturizer/New_Systems/rnas/3DIZ

>  <Rbt.Executable>
rbdock ($Id: //depot/dev/client3/rdock/2013.1/src/exe/rbdock.cxx#4 $)

>  <Rbt.Library>
libRbt.so (2013.1, Build901 2013/11/27)

>  <Rbt.Parameter_File>
/export/apps/rDock/src/rDock_2013.1_src/data/scripts/dock_solv.prm

>  <Rbt.Receptor>
prm/pocket_docking_4.prm

>  <SCORE>
-8.25112

>  <SCORE.INTER>
-7.79839

>  <SCORE.INTER.CONST>
1

>  <SCORE.INTER.POLAR>
0

>  <SCORE.INTER.ROT>
5

>  <SCORE.INTER.SOLV>
18.3247

>  <SCORE.INTER.VDW>
-18.2405

>  <SCORE.INTER.norm>
-0.779839

>  <SCORE.INTRA>
-0.452738

>  <SCORE.INTRA.DIHEDRAL>
-1.53275

>  <SCORE.INTRA.DIHEDRAL.0>
3.67053

>  <SCORE.INTRA.POLAR>
0

>  <SCORE.INTRA.POLAR.0>
0

>  <SCORE.INTRA.REPUL>
0

>  <SCORE.INTRA.REPUL.0>
0

>  <SCORE.INTRA.SOLV>
-0.772182

>  <SCORE.INTRA.SOLV.lig_0>
-32.0553

>  <SCORE.INTRA.VDW>
0.699729

>  <SCORE.INTRA.VDW.0>
-0.571921

>  <SCORE.INTRA.norm>
-0.0452738

>  <SCORE.RESTR>
0

>  <SCORE.RESTR.CAVITY>
0

>  <SCORE.RESTR.norm>
0

>  <SCORE.SYSTEM>
0

>  <SCORE.SYSTEM.CONST>
0

>  <SCORE.SYSTEM.DIHEDRAL>
0

>  <SCORE.SYSTEM.SOLV>
0

>  <SCORE.SYSTEM.norm>
0

>  <SCORE.heavy>
10

>  <SCORE.norm>
-0.825112

>  <RMSD>
5.384

$$$$
ligand
 OpenBabel11021811473D
libRbt.so/2013.1/901 2013/11/27
 10  9  0  0  0  0  0  0  0  0999 V2000
   28.9027   14.4151   21.2542 N   0  0  0  0  0  0  0  0  0  0  0  0
   28.0260   15.6124   21.0829 C   0  0  2  0  0  0  0  0  0  0  0  0
   26.6089   15.2181   20.6886 C   0  0  0  0  0  0  0  0  0  0  0  0
   25.8562   14.6634   21.4818 O   0  0  0  0  0  0  0  0  0  0  0  0
   28.6246   16.5884   20.0669 C   0  0  0  0  0  0  0  0  0  0  0  0
   29.9238   17.2279   20.5258 C   0  0  0  0  0  0  0  0  0  0  0  0
   31.0628   16.2171   20.5720 C   0  0  0  0  0  0  0  0  0  0  0  0
   32.3700   16.8973   20.9444 C   0  0  0  0  0  0  0  0  0  0  0  0
   32.3031   17.5964   22.2768 N   0  0  0  0  0  0  0  0  0  0  0  0
   26.1492   15.4614   19.5811 O   0  0  0  0  0  0  0  0  0  0  0  0
  2  1  1  6  0  0  0
  2  3  1  0  0  0  0
  2  5  1  0  0  0  0
  3  4  1  0  0  0  0
  3 10  1  0  0  0  0
  5  6  1  0  0  0  0
  6  7  1  0  0  0  0
  7  8  1  0  0  0  0
  8  9  1  0  0  0  0
M  END
>  <CHROM.1>
70.23265402,-66.34291511,69.39354928,176.25958473,58.49791513,28.93971007
15.97752831,20.83893366,-2.99493444,-0.33623037,-0.83549040

>  <Name>
ligand

>  <RI>
0

>  <Rbt.Current_Directory>
/home/itssahil/PROJECTS/Mol_Feturizer/New_Systems/rnas/3DIZ

>  <Rbt.Executable>
rbdock ($Id: //depot/dev/client3/rdock/2013.1/src/exe/rbdock.cxx#4 $)

>  <Rbt.Library>
libRbt.so (2013.1, Build901 2013/11/27)

>  <Rbt.Parameter_File>
/export/apps/rDock/src/rDock_2013.1_src/data/scripts/dock_solv.prm

>  <Rbt.Receptor>
prm/pocket_docking_4.prm

>  <SCORE>
-8.02097

>  <SCORE.INTER>
-8.99224

>  <SCORE.INTER.CONST>
1

>  <SCORE.INTER.POLAR>
0

>  <SCORE.INTER.ROT>
5

>  <SCORE.INTER.SOLV>
12.6586

>  <SCORE.INTER.VDW>
-17.1477

>  <SCORE.INTER.norm>
-0.899224

>  <SCORE.INTRA>
0.971267

>  <SCORE.INTRA.DIHEDRAL>
-1.54014

>  <SCORE.INTRA.DIHEDRAL.0>
3.67053

>  <SCORE.INTRA.POLAR>
0

>  <SCORE.INTRA.POLAR.0>
0

>  <SCORE.INTRA.REPUL>
0

>  <SCORE.INTRA.REPUL.0>
0

>  <SCORE.INTRA.SOLV>
1.54909

>  <SCORE.INTRA.SOLV.lig_0>
-32.0553

>  <SCORE.INTRA.VDW>
0.966795

>  <SCORE.INTRA.VDW.0>
-0.571921

>  <SCORE.INTRA.norm>
0.0971267

>  <SCORE.RESTR>
0

>  <SCORE.RESTR.CAVITY>
0

>  <SCORE.RESTR.norm>
0

>  <SCORE.SYSTEM>
0

>  <SCORE.SYSTEM.CONST>
0

>  <SCORE.SYSTEM.DIHEDRAL>
0

>  <SCORE.SYSTEM.SOLV>
0

>  <SCORE.SYSTEM.norm>
0

>  <SCORE.heavy>
10

>  <SCORE.norm>
-0.802097

>  <RMSD>
5.387

$$$$
ligand
 OpenBabel11021811473D
libRbt.so/2013.1/901 2013/11/27
 10  9  0  0  0  0  0  0  0  0999 V2000
   28.7668   15.2921   19.4384 N   0  0  0  0  0  0  0  0  0  0  0  0
   28.1314   14.9719   20.7519 C   0  0  2  0  0  0  0  0  0  0  0  0
   26.6126   15.0512   20.6745 C   0  0  0  0  0  0  0  0  0  0  0  0
   25.9017   14.5386   21.5321 O   0  0  0  0  0  0  0  0  0  0  0  0
   28.6706   15.8829   21.8575 C   0  0  0  0  0  0  0  0  0  0  0  0
   30.1865   15.8939   21.9554 C   0  0  0  0  0  0  0  0  0  0  0  0
   30.8172   16.7018   20.8280 C   0  0  0  0  0  0  0  0  0  0  0  0
   32.3154   16.8432   21.0413 C   0  0  0  0  0  0  0  0  0  0  0  0
   32.6549   17.6897   22.2400 N   0  0  0  0  0  0  0  0  0  0  0  0
   26.0363   15.6506   19.7769 O   0  0  0  0  0  0  0  0  0  0  0  0
  2  1  1  6  0  0  0
  2  3  1  0  0  0  0
  2  5  1  0  0  0  0
  3  4  1  0  0  0  0
  3 10  1  0  0  0  0
  5  6  1  0  0  0  0
  6  7  1  0  0  0  0
  7  8  1  0  0  0  0
  8  9  1  0  0  0  0
M  END
>  <CHROM.1>
163.08834931,-53.10258020,74.90036497,172.99072587,-67.22220418,28.96436917
15.84795695,21.00634339,-2.98676350,0.34722977,1.59119358

>  <Name>
ligand

>  <RI>
0

>  <Rbt.Current_Directory>
/home/itssahil/PROJECTS/Mol_Feturizer/New_Systems/rnas/3DIZ

>  <Rbt.Executable>
rbdock ($Id: //depot/dev/client3/rdock/2013.1/src/exe/rbdock.cxx#4 $)

>  <Rbt.Library>
libRbt.so (2013.1, Build901 2013/11/27)

>  <Rbt.Parameter_File>
/export/apps/rDock/src/rDock_2013.1_src/data/scripts/dock_solv.prm

>  <Rbt.Receptor>
prm/pocket_docking_6.prm

>  <SCORE>
-8.37115

>  <SCORE.INTER>
-9.29727

>  <SCORE.INTER.CONST>
1

>  <SCORE.INTER.POLAR>
0

>  <SCORE.INTER.ROT>
5

>  <SCORE.INTER.SOLV>
10.8005

>  <SCORE.INTER.VDW>
-16.7317

>  <SCORE.INTER.norm>
-0.929727

>  <SCORE.INTRA>
0.926128

>  <SCORE.INTRA.DIHEDRAL>
-0.76496

>  <SCORE.INTRA.DIHEDRAL.0>
3.67053

>  <SCORE.INTRA.POLAR>
0

>  <SCORE.INTRA.POLAR.0>
0

>  <SCORE.INTRA.REPUL>
0

>  <SCORE.INTRA.REPUL.0>
0

>  <SCORE.INTRA.SOLV>
1.68669

>  <SCORE.INTRA.SOLV.lig_0>
-32.0553

>  <SCORE.INTRA.VDW>
0.465262

>  <SCORE.INTRA.VDW.0>
-0.571921

>  <SCORE.INTRA.norm>
0.0926128

>  <SCORE.RESTR>
0

>  <SCORE.RESTR.CAVITY>
0

>  <SCORE.RESTR.norm>
0

>  <SCORE.SYSTEM>
0

>  <SCORE.SYSTEM.CONST>
0

>  <SCORE.SYSTEM.DIHEDRAL>
0

>  <SCORE.SYSTEM.SOLV>
0

>  <SCORE.SYSTEM.norm>
0

>  <SCORE.heavy>
10

>  <SCORE.norm>
-0.837115

>  <RMSD>
5.389

$$$$
ligand
 OpenBabel11021811473D
libRbt.so/2013.1/901 2013/11/27
 10  9  0  0  0  0  0  0  0  0999 V2000
   25.8548   15.1443   20.6495 N   0  0  0  0  0  0  0  0  0  0  0  0
   27.2995   15.3434   20.3261 C   0  0  2  0  0  0  0  0  0  0  0  0
   27.6139   14.9408   18.8914 C   0  0  0  0  0  0  0  0  0  0  0  0
   27.1785   13.9005   18.4100 O   0  0  0  0  0  0  0  0  0  0  0  0
   28.1910   14.5868   21.3139 C   0  0  0  0  0  0  0  0  0  0  0  0
   29.6764   14.8257   21.1035 C   0  0  0  0  0  0  0  0  0  0  0  0
   30.0958   16.2121   21.5760 C   0  0  0  0  0  0  0  0  0  0  0  0
   31.5939   16.4064   21.4087 C   0  0  0  0  0  0  0  0  0  0  0  0
   32.0742   17.7248   21.9565 N   0  0  0  0  0  0  0  0  0  0  0  0
   28.2848   15.6450   18.1492 O   0  0  0  0  0  0  0  0  0  0  0  0
  2  1  1  1  0  0  0
  2  3  1  0  0  0  0
  2  5  1  0  0  0  0
  3  4  1  0  0  0  0
  3 10  1  0  0  0  0
  5  6  1  0  0  0  0
  6  7  1  0  0  0  0
  7  8  1  0  0  0  0
  8  9  1  0  0  0  0
M  END
>  <CHROM.1>
-44.77645641,-175.87646840,73.76530613,177.66107562,-175.75354439,28.78410391
15.46166684,20.34115688,2.64146106,-0.40615428,-1.64811179

>  <Name>
ligand

>  <RI>
0

>  <Rbt.Current_Directory>
/home/itssahil/PROJECTS/Mol_Feturizer/New_Systems/rnas/3DIZ

>  <Rbt.Executable>
rbdock ($Id: //depot/dev/client3/rdock/2013.1/src/exe/rbdock.cxx#4 $)

>  <Rbt.Library>
libRbt.so (2013.1, Build901 2013/11/27)

>  <Rbt.Parameter_File>
/export/apps/rDock/src/rDock_2013.1_src/data/scripts/dock_solv.prm

>  <Rbt.Receptor>
prm/pocket_docking_8.prm

>  <SCORE>
-8.93802

>  <SCORE.INTER>
-7.36574

>  <SCORE.INTER.CONST>
1

>  <SCORE.INTER.POLAR>
0

>  <SCORE.INTER.ROT>
5

>  <SCORE.INTER.SOLV>
17.6383

>  <SCORE.INTER.VDW>
-17.7233

>  <SCORE.INTER.norm>
-0.736574

>  <SCORE.INTRA>
-1.57228

>  <SCORE.INTRA.DIHEDRAL>
-1.21861

>  <SCORE.INTRA.DIHEDRAL.0>
3.67053

>  <SCORE.INTRA.POLAR>
0

>  <SCORE.INTRA.POLAR.0>
0

>  <SCORE.INTRA.REPUL>
0

>  <SCORE.INTRA.REPUL.0>
0

>  <SCORE.INTRA.SOLV>
-1.51058

>  <SCORE.INTRA.SOLV.lig_0>
-32.0553

>  <SCORE.INTRA.VDW>
-0.207681

>  <SCORE.INTRA.VDW.0>
-0.571921

>  <SCORE.INTRA.norm>
-0.157228

>  <SCORE.RESTR>
0

>  <SCORE.RESTR.CAVITY>
0

>  <SCORE.RESTR.norm>
0

>  <SCORE.SYSTEM>
0

>  <SCORE.SYSTEM.CONST>
0

>  <SCORE.SYSTEM.DIHEDRAL>
0

>  <SCORE.SYSTEM.SOLV>
0

>  <SCORE.SYSTEM.norm>
0

>  <SCORE.heavy>
10

>  <SCORE.norm>
-0.893802

>  <RMSD>
5.389

$$$$
ligand
 OpenBabel11021811473D
libRbt.so/2013.1/901 2013/11/27
 10  9  0  0  0  0  0  0  0  0999 V2000
   25.8492   15.1860   20.6006 N   0  0  0  0  0  0  0  0  0  0  0  0
   27.2989   15.3486   20.2790 C   0  0  2  0  0  0  0  0  0  0  0  0
   27.6097   14.9110   18.8538 C   0  0  0  0  0  0  0  0  0  0  0  0
   27.2035   13.8422   18.4109 O   0  0  0  0  0  0  0  0  0  0  0  0
   28.1710   14.5934   21.2851 C   0  0  0  0  0  0  0  0  0  0  0  0
   29.6606   14.8239   21.0968 C   0  0  0  0  0  0  0  0  0  0  0  0
   30.0784   16.2130   21.5630 C   0  0  0  0  0  0  0  0  0  0  0  0
   31.5782   16.4036   21.4070 C   0  0  0  0  0  0  0  0  0  0  0  0
   32.0544   17.7299   21.9388 N   0  0  0  0  0  0  0  0  0  0  0  0
   28.2483   15.6129   18.0814 O   0  0  0  0  0  0  0  0  0  0  0  0
  2  1  1  1  0  0  0
  2  3  1  0  0  0  0
  2  5  1  0  0  0  0
  3  4  1  0  0  0  0
  3 10  1  0  0  0  0
  5  6  1  0  0  0  0
  6  7  1  0  0  0  0
  7  8  1  0  0  0  0
  8  9  1  0  0  0  0
M  END
>  <CHROM.1>
-48.05934878,-174.47315665,73.54685690,178.15640749,-176.24445610,28.77303467
15.45427954,20.31444156,2.62548963,-0.40050836,-1.66737371

>  <Name>
ligand

>  <RI>
0

>  <Rbt.Current_Directory>
/home/itssahil/PROJECTS/Mol_Feturizer/New_Systems/rnas/3DIZ

>  <Rbt.Executable>
rbdock ($Id: //depot/dev/client3/rdock/2013.1/src/exe/rbdock.cxx#4 $)

>  <Rbt.Library>
libRbt.so (2013.1, Build901 2013/11/27)

>  <Rbt.Parameter_File>
/export/apps/rDock/src/rDock_2013.1_src/data/scripts/dock_solv.prm

>  <Rbt.Receptor>
prm/pocket_docking_3.prm

>  <SCORE>
-8.93694

>  <SCORE.INTER>
-7.35086

>  <SCORE.INTER.CONST>
1

>  <SCORE.INTER.POLAR>
0

>  <SCORE.INTER.ROT>
5

>  <SCORE.INTER.SOLV>
17.588

>  <SCORE.INTER.VDW>
-17.6966

>  <SCORE.INTER.norm>
-0.735086

>  <SCORE.INTRA>
-1.58608

>  <SCORE.INTRA.DIHEDRAL>
-1.22377

>  <SCORE.INTRA.DIHEDRAL.0>
3.67053

>  <SCORE.INTRA.POLAR>
0

>  <SCORE.INTRA.POLAR.0>
0

>  <SCORE.INTRA.REPUL>
0

>  <SCORE.INTRA.REPUL.0>
0

>  <SCORE.INTRA.SOLV>
-1.50096

>  <SCORE.INTRA.SOLV.lig_0>
-32.0553

>  <SCORE.INTRA.VDW>
-0.223717

>  <SCORE.INTRA.VDW.0>
-0.571921

>  <SCORE.INTRA.norm>
-0.158608

>  <SCORE.RESTR>
0

>  <SCORE.RESTR.CAVITY>
0

>  <SCORE.RESTR.norm>
0

>  <SCORE.SYSTEM>
0

>  <SCORE.SYSTEM.CONST>
0

>  <SCORE.SYSTEM.DIHEDRAL>
0

>  <SCORE.SYSTEM.SOLV>
0

>  <SCORE.SYSTEM.norm>
0

>  <SCORE.heavy>
10

>  <SCORE.norm>
-0.893694

>  <RMSD>
5.398

$$$$
ligand
 OpenBabel11021811473D
libRbt.so/2013.1/901 2013/11/27
 10  9  0  0  0  0  0  0  0  0999 V2000
   28.8171   14.4081   22.2326 N   0  0  0  0  0  0  0  0  0  0  0  0
   28.5031   15.5314   21.2993 C   0  0  2  0  0  0  0  0  0  0  0  0
   27.0655   15.4621   20.8017 C   0  0  0  0  0  0  0  0  0  0  0  0
   26.6959   16.1053   19.8254 O   0  0  0  0  0  0  0  0  0  0  0  0
   29.4866   15.5600   20.1266 C   0  0  0  0  0  0  0  0  0  0  0  0
   30.9378   15.7103   20.5495 C   0  0  0  0  0  0  0  0  0  0  0  0
   31.1817   17.0342   21.2630 C   0  0  0  0  0  0  0  0  0  0  0  0
   32.6421   17.1684   21.6622 C   0  0  0  0  0  0  0  0  0  0  0  0
   32.9224   18.4363   22.4254 N   0  0  0  0  0  0  0  0  0  0  0  0
   26.2270   14.7447   21.3302 O   0  0  0  0  0  0  0  0  0  0  0  0
  2  1  1  1  0  0  0
  2  3  1  0  0  0  0
  2  5  1  0  0  0  0
  3  4  1  0  0  0  0
  3 10  1  0  0  0  0
  5  6  1  0  0  0  0
  6  7  1  0  0  0  0
  7  8  1  0  0  0  0
  8  9  1  0  0  0  0
M  END
>  <CHROM.1>
-164.14231394,-58.68970698,-62.84825116,-179.36601656,-177.49536751,29.40480762
16.01080040,21.13916140,-2.98081782,-0.38803329,-0.77482310

>  <Name>
ligand

>  <RI>
0

>  <Rbt.Current_Directory>
/home/itssahil/PROJECTS/Mol_Feturizer/New_Systems/rnas/3DIZ

>  <Rbt.Executable>
rbdock ($Id: //depot/dev/client3/rdock/2013.1/src/exe/rbdock.cxx#4 $)

>  <Rbt.Library>
libRbt.so (2013.1, Build901 2013/11/27)

>  <Rbt.Parameter_File>
/export/apps/rDock/src/rDock_2013.1_src/data/scripts/dock_solv.prm

>  <Rbt.Receptor>
prm/pocket_docking_3.prm

>  <SCORE>
-7.67612

>  <SCORE.INTER>
-7.00731

>  <SCORE.INTER.CONST>
1

>  <SCORE.INTER.POLAR>
0

>  <SCORE.INTER.ROT>
5

>  <SCORE.INTER.SOLV>
16.9968

>  <SCORE.INTER.VDW>
-17.2705

>  <SCORE.INTER.norm>
-0.700731

>  <SCORE.INTRA>
-0.668812

>  <SCORE.INTRA.DIHEDRAL>
-2.0633

>  <SCORE.INTRA.DIHEDRAL.0>
3.67053

>  <SCORE.INTRA.POLAR>
0

>  <SCORE.INTRA.POLAR.0>
0

>  <SCORE.INTRA.REPUL>
0

>  <SCORE.INTRA.REPUL.0>
0

>  <SCORE.INTRA.SOLV>
-0.214585

>  <SCORE.INTRA.SOLV.lig_0>
-32.0553

>  <SCORE.INTRA.VDW>
0.47013

>  <SCORE.INTRA.VDW.0>
-0.571921

>  <SCORE.INTRA.norm>
-0.0668812

>  <SCORE.RESTR>
0

>  <SCORE.RESTR.CAVITY>
0

>  <SCORE.RESTR.norm>
0

>  <SCORE.SYSTEM>
0

>  <SCORE.SYSTEM.CONST>
0

>  <SCORE.SYSTEM.DIHEDRAL>
0

>  <SCORE.SYSTEM.SOLV>
0

>  <SCORE.SYSTEM.norm>
0

>  <SCORE.heavy>
10

>  <SCORE.norm>
-0.767612

>  <RMSD>
5.399

$$$$
ligand
 OpenBabel11021811473D
libRbt.so/2013.1/901 2013/11/27
 10  9  0  0  0  0  0  0  0  0999 V2000
   27.3295   13.7840   18.2526 N   0  0  0  0  0  0  0  0  0  0  0  0
   27.8123   14.2551   19.5854 C   0  0  2  0  0  0  0  0  0  0  0  0
   26.7952   15.1653   20.2609 C   0  0  0  0  0  0  0  0  0  0  0  0
   26.2007   14.8168   21.2751 O   0  0  0  0  0  0  0  0  0  0  0  0
   29.1704   14.9502   19.4614 C   0  0  0  0  0  0  0  0  0  0  0  0
   29.7738   15.3553   20.7954 C   0  0  0  0  0  0  0  0  0  0  0  0
   31.0461   16.1734   20.6121 C   0  0  0  0  0  0  0  0  0  0  0  0
   31.5971   16.6184   21.9569 C   0  0  0  0  0  0  0  0  0  0  0  0
   32.8015   17.5132   21.8247 N   0  0  0  0  0  0  0  0  0  0  0  0
   26.5480   16.2887   19.8438 O   0  0  0  0  0  0  0  0  0  0  0  0
  2  1  1  6  0  0  0
  2  3  1  0  0  0  0
  2  5  1  0  0  0  0
  3  4  1  0  0  0  0
  3 10  1  0  0  0  0
  5  6  1  0  0  0  0
  6  7  1  0  0  0  0
  7  8  1  0  0  0  0
  8  9  1  0  0  0  0
M  END
>  <CHROM.1>
112.19623315,-175.31578123,-173.83668994,177.50790439,-175.93989023,28.87430963
15.50718789,20.39927550,-2.66812183,0.10578345,0.91991346

>  <Name>
ligand

>  <RI>
0

>  <Rbt.Current_Directory>
/home/itssahil/PROJECTS/Mol_Feturizer/New_Systems/rnas/3DIZ

>  <Rbt.Executable>
rbdock ($Id: //depot/dev/client3/rdock/2013.1/src/exe/rbdock.cxx#4 $)

>  <Rbt.Library>
libRbt.so (2013.1, Build901 2013/11/27)

>  <Rbt.Parameter_File>
/export/apps/rDock/src/rDock_2013.1_src/data/scripts/dock_solv.prm

>  <Rbt.Receptor>
prm/pocket_docking_6.prm

>  <SCORE>
-8.50534

>  <SCORE.INTER>
-6.55708

>  <SCORE.INTER.CONST>
1

>  <SCORE.INTER.POLAR>
0

>  <SCORE.INTER.ROT>
5

>  <SCORE.INTER.SOLV>
16.852

>  <SCORE.INTER.VDW>
-16.922

>  <SCORE.INTER.norm>
-0.655708

>  <SCORE.INTRA>
-1.94826

>  <SCORE.INTRA.DIHEDRAL>
-1.81772

>  <SCORE.INTRA.DIHEDRAL.0>
3.67053

>  <SCORE.INTRA.POLAR>
0

>  <SCORE.INTRA.POLAR.0>
0

>  <SCORE.INTRA.REPUL>
0

>  <SCORE.INTRA.REPUL.0>
0

>  <SCORE.INTRA.SOLV>
-1.7375

>  <SCORE.INTRA.SOLV.lig_0>
-32.0553

>  <SCORE.INTRA.VDW>
-0.170656

>  <SCORE.INTRA.VDW.0>
-0.571921

>  <SCORE.INTRA.norm>
-0.194826

>  <SCORE.RESTR>
0

>  <SCORE.RESTR.CAVITY>
0

>  <SCORE.RESTR.norm>
0

>  <SCORE.SYSTEM>
0

>  <SCORE.SYSTEM.CONST>
0

>  <SCORE.SYSTEM.DIHEDRAL>
0

>  <SCORE.SYSTEM.SOLV>
0

>  <SCORE.SYSTEM.norm>
0

>  <SCORE.heavy>
10

>  <SCORE.norm>
-0.850534

>  <RMSD>
5.400

$$$$
ligand
 OpenBabel11021811473D
libRbt.so/2013.1/901 2013/11/27
 10  9  0  0  0  0  0  0  0  0999 V2000
   26.2072   15.0578   20.6358 N   0  0  0  0  0  0  0  0  0  0  0  0
   27.5685   15.0930   20.0218 C   0  0  2  0  0  0  0  0  0  0  0  0
   27.5500   14.5838   18.5867 C   0  0  0  0  0  0  0  0  0  0  0  0
   26.9124   13.5849   18.2717 O   0  0  0  0  0  0  0  0  0  0  0  0
   28.5715   14.3052   20.8683 C   0  0  0  0  0  0  0  0  0  0  0  0
   28.8084   14.8997   22.2460 C   0  0  0  0  0  0  0  0  0  0  0  0
   29.5933   16.2033   22.1689 C   0  0  0  0  0  0  0  0  0  0  0  0
   31.0430   15.9366   21.7985 C   0  0  0  0  0  0  0  0  0  0  0  0
   31.8618   17.1976   21.7080 N   0  0  0  0  0  0  0  0  0  0  0  0
   28.1409   15.1597   17.6833 O   0  0  0  0  0  0  0  0  0  0  0  0
  2  1  1  1  0  0  0
  2  3  1  0  0  0  0
  2  5  1  0  0  0  0
  3  4  1  0  0  0  0
  3 10  1  0  0  0  0
  5  6  1  0  0  0  0
  6  7  1  0  0  0  0
  7  8  1  0  0  0  0
  8  9  1  0  0  0  0
M  END
>  <CHROM.1>
-43.11942697,-64.69912874,-70.82814925,-71.80457896,179.93583085,28.61775821
15.18830625,20.35955388,2.44046666,-0.44488657,-1.63013784

>  <Name>
ligand

>  <RI>
0

>  <Rbt.Current_Directory>
/home/itssahil/PROJECTS/Mol_Feturizer/New_Systems/rnas/3DIZ

>  <Rbt.Executable>
rbdock ($Id: //depot/dev/client3/rdock/2013.1/src/exe/rbdock.cxx#4 $)

>  <Rbt.Library>
libRbt.so (2013.1, Build901 2013/11/27)

>  <Rbt.Parameter_File>
/export/apps/rDock/src/rDock_2013.1_src/data/scripts/dock_solv.prm

>  <Rbt.Receptor>
prm/pocket_docking_4.prm

>  <SCORE>
-9.00565

>  <SCORE.INTER>
-8.72591

>  <SCORE.INTER.CONST>
1

>  <SCORE.INTER.POLAR>
0

>  <SCORE.INTER.ROT>
5

>  <SCORE.INTER.SOLV>
15.8934

>  <SCORE.INTER.VDW>
-18.0484

>  <SCORE.INTER.norm>
-0.872591

>  <SCORE.INTRA>
-0.280889

>  <SCORE.INTRA.DIHEDRAL>
-0.981898

>  <SCORE.INTRA.DIHEDRAL.0>
3.67053

>  <SCORE.INTRA.POLAR>
0

>  <SCORE.INTRA.POLAR.0>
0

>  <SCORE.INTRA.REPUL>
0

>  <SCORE.INTRA.REPUL.0>
0

>  <SCORE.INTRA.SOLV>
-0.221948

>  <SCORE.INTRA.SOLV.lig_0>
-32.0553

>  <SCORE.INTRA.VDW>
0.321035

>  <SCORE.INTRA.VDW.0>
-0.571921

>  <SCORE.INTRA.norm>
-0.0280889

>  <SCORE.RESTR>
0.00114585

>  <SCORE.RESTR.CAVITY>
0.00114585

>  <SCORE.RESTR.norm>
0.000114585

>  <SCORE.SYSTEM>
0

>  <SCORE.SYSTEM.CONST>
0

>  <SCORE.SYSTEM.DIHEDRAL>
0

>  <SCORE.SYSTEM.SOLV>
0

>  <SCORE.SYSTEM.norm>
0

>  <SCORE.heavy>
10

>  <SCORE.norm>
-0.900565

>  <RMSD>
5.403

$$$$
ligand
 OpenBabel11021811473D
libRbt.so/2013.1/901 2013/11/27
 10  9  0  0  0  0  0  0  0  0999 V2000
   28.9476   14.3836   21.0163 N   0  0  0  0  0  0  0  0  0  0  0  0
   28.0155   15.5369   20.8357 C   0  0  2  0  0  0  0  0  0  0  0  0
   26.7854   15.1429   20.0290 C   0  0  0  0  0  0  0  0  0  0  0  0
   25.6571   15.2311   20.5008 O   0  0  0  0  0  0  0  0  0  0  0  0
   28.7336   16.7257   20.1921 C   0  0  0  0  0  0  0  0  0  0  0  0
   29.8869   17.2648   21.0208 C   0  0  0  0  0  0  0  0  0  0  0  0
   31.1247   16.3843   20.9021 C   0  0  0  0  0  0  0  0  0  0  0  0
   32.1710   16.7872   21.9282 C   0  0  0  0  0  0  0  0  0  0  0  0
   32.5950   18.2261   21.7926 N   0  0  0  0  0  0  0  0  0  0  0  0
   26.8627   14.7518   18.8722 O   0  0  0  0  0  0  0  0  0  0  0  0
  2  1  1  6  0  0  0
  2  3  1  0  0  0  0
  2  5  1  0  0  0  0
  3  4  1  0  0  0  0
  3 10  1  0  0  0  0
  5  6  1  0  0  0  0
  6  7  1  0  0  0  0
  7  8  1  0  0  0  0
  8  9  1  0  0  0  0
M  END
>  <CHROM.1>
119.54634818,-61.36754713,77.54400690,-169.41416611,-58.33690261,29.03902950
16.03043085,20.68899004,-2.75665695,-0.31122235,-0.03002566

>  <Name>
ligand

>  <RI>
0

>  <Rbt.Current_Directory>
/home/itssahil/PROJECTS/Mol_Feturizer/New_Systems/rnas/3DIZ

>  <Rbt.Executable>
rbdock ($Id: //depot/dev/client3/rdock/2013.1/src/exe/rbdock.cxx#4 $)

>  <Rbt.Library>
libRbt.so (2013.1, Build901 2013/11/27)

>  <Rbt.Parameter_File>
/export/apps/rDock/src/rDock_2013.1_src/data/scripts/dock_solv.prm

>  <Rbt.Receptor>
prm/pocket_docking_4.prm

>  <SCORE>
-7.37497

>  <SCORE.INTER>
-8.10001

>  <SCORE.INTER.CONST>
1

>  <SCORE.INTER.POLAR>
0

>  <SCORE.INTER.ROT>
5

>  <SCORE.INTER.SOLV>
12.9885

>  <SCORE.INTER.VDW>
-16.6628

>  <SCORE.INTER.norm>
-0.810001

>  <SCORE.INTRA>
0.725042

>  <SCORE.INTRA.DIHEDRAL>
-0.480032

>  <SCORE.INTRA.DIHEDRAL.0>
3.67053

>  <SCORE.INTRA.POLAR>
0

>  <SCORE.INTRA.POLAR.0>
0

>  <SCORE.INTRA.REPUL>
0

>  <SCORE.INTRA.REPUL.0>
0

>  <SCORE.INTRA.SOLV>
1.617

>  <SCORE.INTRA.SOLV.lig_0>
-32.0553

>  <SCORE.INTRA.VDW>
0.15656

>  <SCORE.INTRA.VDW.0>
-0.571921

>  <SCORE.INTRA.norm>
0.0725042

>  <SCORE.RESTR>
0

>  <SCORE.RESTR.CAVITY>
0

>  <SCORE.RESTR.norm>
0

>  <SCORE.SYSTEM>
0

>  <SCORE.SYSTEM.CONST>
0

>  <SCORE.SYSTEM.DIHEDRAL>
0

>  <SCORE.SYSTEM.SOLV>
0

>  <SCORE.SYSTEM.norm>
0

>  <SCORE.heavy>
10

>  <SCORE.norm>
-0.737497

>  <RMSD>
5.410

$$$$
ligand
 OpenBabel11021811473D
libRbt.so/2013.1/901 2013/11/27
 10  9  0  0  0  0  0  0  0  0999 V2000
   28.8133   15.3355   19.7567 N   0  0  0  0  0  0  0  0  0  0  0  0
   28.0163   14.8829   20.9363 C   0  0  2  0  0  0  0  0  0  0  0  0
   26.5200   15.0184   20.6876 C   0  0  0  0  0  0  0  0  0  0  0  0
   26.0871   15.5734   19.6835 O   0  0  0  0  0  0  0  0  0  0  0  0
   28.4311   15.6400   22.2003 C   0  0  0  0  0  0  0  0  0  0  0  0
   29.9250   15.6024   22.4728 C   0  0  0  0  0  0  0  0  0  0  0  0
   30.6828   16.5863   21.5901 C   0  0  0  0  0  0  0  0  0  0  0  0
   32.1619   16.5928   21.9398 C   0  0  0  0  0  0  0  0  0  0  0  0
   32.9653   17.5076   21.0529 N   0  0  0  0  0  0  0  0  0  0  0  0
   25.6874   14.5575   21.4566 O   0  0  0  0  0  0  0  0  0  0  0  0
  2  1  1  6  0  0  0
  2  3  1  0  0  0  0
  2  5  1  0  0  0  0
  3  4  1  0  0  0  0
  3 10  1  0  0  0  0
  5  6  1  0  0  0  0
  6  7  1  0  0  0  0
  7  8  1  0  0  0  0
  8  9  1  0  0  0  0
M  END
>  <CHROM.1>
-7.28267940,-52.58050367,78.27941929,176.50624314,177.51703966,28.88435679
15.72711641,21.16961791,-3.06194920,0.33731883,1.79486419

>  <Name>
ligand

>  <RI>
0

>  <Rbt.Current_Directory>
/home/itssahil/PROJECTS/Mol_Feturizer/New_Systems/rnas/3DIZ

>  <Rbt.Executable>
rbdock ($Id: //depot/dev/client3/rdock/2013.1/src/exe/rbdock.cxx#4 $)

>  <Rbt.Library>
libRbt.so (2013.1, Build901 2013/11/27)

>  <Rbt.Parameter_File>
/export/apps/rDock/src/rDock_2013.1_src/data/scripts/dock_solv.prm

>  <Rbt.Receptor>
prm/pocket_docking_8.prm

>  <SCORE>
-9.06983

>  <SCORE.INTER>
-9.468

>  <SCORE.INTER.CONST>
1

>  <SCORE.INTER.POLAR>
0

>  <SCORE.INTER.ROT>
5

>  <SCORE.INTER.SOLV>
11.713

>  <SCORE.INTER.VDW>
-17.1497

>  <SCORE.INTER.norm>
-0.9468

>  <SCORE.INTRA>
0.398168

>  <SCORE.INTRA.DIHEDRAL>
-0.57077

>  <SCORE.INTRA.DIHEDRAL.0>
3.67053

>  <SCORE.INTRA.POLAR>
0

>  <SCORE.INTRA.POLAR.0>
0

>  <SCORE.INTRA.REPUL>
0

>  <SCORE.INTRA.REPUL.0>
0

>  <SCORE.INTRA.SOLV>
0.742098

>  <SCORE.INTRA.SOLV.lig_0>
-32.0553

>  <SCORE.INTRA.VDW>
0.312504

>  <SCORE.INTRA.VDW.0>
-0.571921

>  <SCORE.INTRA.norm>
0.0398168

>  <SCORE.RESTR>
0

>  <SCORE.RESTR.CAVITY>
0

>  <SCORE.RESTR.norm>
0

>  <SCORE.SYSTEM>
0

>  <SCORE.SYSTEM.CONST>
0

>  <SCORE.SYSTEM.DIHEDRAL>
0

>  <SCORE.SYSTEM.SOLV>
0

>  <SCORE.SYSTEM.norm>
0

>  <SCORE.heavy>
10

>  <SCORE.norm>
-0.906983

>  <RMSD>
5.410

$$$$
ligand
 OpenBabel11021811473D
libRbt.so/2013.1/901 2013/11/27
 10  9  0  0  0  0  0  0  0  0999 V2000
   26.0634   15.0934   20.6897 N   0  0  0  0  0  0  0  0  0  0  0  0
   27.3077   15.7227   20.1539 C   0  0  2  0  0  0  0  0  0  0  0  0
   27.8822   14.9269   18.9895 C   0  0  0  0  0  0  0  0  0  0  0  0
   27.9324   15.3966   17.8580 O   0  0  0  0  0  0  0  0  0  0  0  0
   28.3503   15.9028   21.2601 C   0  0  0  0  0  0  0  0  0  0  0  0
   29.6408   16.5476   20.7846 C   0  0  0  0  0  0  0  0  0  0  0  0
   30.6280   16.7410   21.9289 C   0  0  0  0  0  0  0  0  0  0  0  0
   31.9562   17.2668   21.4097 C   0  0  0  0  0  0  0  0  0  0  0  0
   32.9588   17.5014   22.5090 N   0  0  0  0  0  0  0  0  0  0  0  0
   28.3438   13.8030   19.1333 O   0  0  0  0  0  0  0  0  0  0  0  0
  2  1  1  1  0  0  0
  2  3  1  0  0  0  0
  2  5  1  0  0  0  0
  3  4  1  0  0  0  0
  3 10  1  0  0  0  0
  5  6  1  0  0  0  0
  6  7  1  0  0  0  0
  7  8  1  0  0  0  0
  8  9  1  0  0  0  0
M  END
>  <CHROM.1>
114.94192716,-179.62379257,178.35364194,174.74719219,178.83296967,29.10951174
15.86897487,20.43955235,2.52776750,-0.24533343,-1.95297862

>  <Name>
ligand

>  <RI>
0

>  <Rbt.Current_Directory>
/home/itssahil/PROJECTS/Mol_Feturizer/New_Systems/rnas/3DIZ

>  <Rbt.Executable>
rbdock ($Id: //depot/dev/client3/rdock/2013.1/src/exe/rbdock.cxx#4 $)

>  <Rbt.Library>
libRbt.so (2013.1, Build901 2013/11/27)

>  <Rbt.Parameter_File>
/export/apps/rDock/src/rDock_2013.1_src/data/scripts/dock_solv.prm

>  <Rbt.Receptor>
prm/blind_docking_60.prm

>  <SCORE>
-8.05019

>  <SCORE.INTER>
-6.07651

>  <SCORE.INTER.CONST>
1

>  <SCORE.INTER.POLAR>
0

>  <SCORE.INTER.ROT>
5

>  <SCORE.INTER.SOLV>
18.7856

>  <SCORE.INTER.VDW>
-17.2462

>  <SCORE.INTER.norm>
-0.607651

>  <SCORE.INTRA>
-1.97368

>  <SCORE.INTRA.DIHEDRAL>
-2.01624

>  <SCORE.INTRA.DIHEDRAL.0>
3.67053

>  <SCORE.INTRA.POLAR>
0

>  <SCORE.INTRA.POLAR.0>
0

>  <SCORE.INTRA.REPUL>
0

>  <SCORE.INTRA.REPUL.0>
0

>  <SCORE.INTRA.SOLV>
-1.73934

>  <SCORE.INTRA.SOLV.lig_0>
-32.0553

>  <SCORE.INTRA.VDW>
-0.0958893

>  <SCORE.INTRA.VDW.0>
-0.571921

>  <SCORE.INTRA.norm>
-0.197368

>  <SCORE.RESTR>
0

>  <SCORE.RESTR.CAVITY>
0

>  <SCORE.RESTR.norm>
0

>  <SCORE.SYSTEM>
0

>  <SCORE.SYSTEM.CONST>
0

>  <SCORE.SYSTEM.DIHEDRAL>
0

>  <SCORE.SYSTEM.SOLV>
0

>  <SCORE.SYSTEM.norm>
0

>  <SCORE.heavy>
10

>  <SCORE.norm>
-0.805019

>  <RMSD>
5.424

$$$$
ligand
 OpenBabel11021811473D
libRbt.so/2013.1/901 2013/11/27
 10  9  0  0  0  0  0  0  0  0999 V2000
   25.6613   14.9479   20.6950 N   0  0  0  0  0  0  0  0  0  0  0  0
   26.9659   15.5886   20.3500 C   0  0  2  0  0  0  0  0  0  0  0  0
   27.4407   15.1820   18.9614 C   0  0  0  0  0  0  0  0  0  0  0  0
   27.1279   14.1030   18.4700 O   0  0  0  0  0  0  0  0  0  0  0  0
   28.0279   15.2711   21.4056 C   0  0  0  0  0  0  0  0  0  0  0  0
   29.3455   15.9938   21.1838 C   0  0  0  0  0  0  0  0  0  0  0  0
   30.3969   15.5722   22.2027 C   0  0  0  0  0  0  0  0  0  0  0  0
   31.7109   16.2924   21.9482 C   0  0  0  0  0  0  0  0  0  0  0  0
   31.6177   17.7760   22.1911 N   0  0  0  0  0  0  0  0  0  0  0  0
   28.1257   15.9190   18.2653 O   0  0  0  0  0  0  0  0  0  0  0  0
  2  1  1  1  0  0  0
  2  3  1  0  0  0  0
  2  5  1  0  0  0  0
  3  4  1  0  0  0  0
  3 10  1  0  0  0  0
  5  6  1  0  0  0  0
  6  7  1  0  0  0  0
  7  8  1  0  0  0  0
  8  9  1  0  0  0  0
M  END
>  <CHROM.1>
-28.18183718,-174.77535325,-176.09582263,179.16031978,66.51136825,28.64279063
15.65356733,20.53006128,2.59190299,-0.36165025,-1.60783896

>  <Name>
ligand

>  <RI>
0

>  <Rbt.Current_Directory>
/home/itssahil/PROJECTS/Mol_Feturizer/New_Systems/rnas/3DIZ

>  <Rbt.Executable>
rbdock ($Id: //depot/dev/client3/rdock/2013.1/src/exe/rbdock.cxx#4 $)

>  <Rbt.Library>
libRbt.so (2013.1, Build901 2013/11/27)

>  <Rbt.Parameter_File>
/export/apps/rDock/src/rDock_2013.1_src/data/scripts/dock_solv.prm

>  <Rbt.Receptor>
prm/pocket_docking_3.prm

>  <SCORE>
-9.39508

>  <SCORE.INTER>
-7.97862

>  <SCORE.INTER.CONST>
1

>  <SCORE.INTER.POLAR>
0

>  <SCORE.INTER.ROT>
5

>  <SCORE.INTER.SOLV>
18.1175

>  <SCORE.INTER.VDW>
-18.2916

>  <SCORE.INTER.norm>
-0.797862

>  <SCORE.INTRA>
-1.41646

>  <SCORE.INTRA.DIHEDRAL>
-1.78601

>  <SCORE.INTRA.DIHEDRAL.0>
3.67053

>  <SCORE.INTRA.POLAR>
0

>  <SCORE.INTRA.POLAR.0>
0

>  <SCORE.INTRA.REPUL>
0

>  <SCORE.INTRA.REPUL.0>
0

>  <SCORE.INTRA.SOLV>
-0.821071

>  <SCORE.INTRA.SOLV.lig_0>
-32.0553

>  <SCORE.INTRA.VDW>
-0.112921

>  <SCORE.INTRA.VDW.0>
-0.571921

>  <SCORE.INTRA.norm>
-0.141646

>  <SCORE.RESTR>
0

>  <SCORE.RESTR.CAVITY>
0

>  <SCORE.RESTR.norm>
0

>  <SCORE.SYSTEM>
0

>  <SCORE.SYSTEM.CONST>
0

>  <SCORE.SYSTEM.DIHEDRAL>
0

>  <SCORE.SYSTEM.SOLV>
0

>  <SCORE.SYSTEM.norm>
0

>  <SCORE.heavy>
10

>  <SCORE.norm>
-0.939508

>  <RMSD>
5.427

$$$$
ligand
 OpenBabel11021811473D
libRbt.so/2013.1/901 2013/11/27
 10  9  0  0  0  0  0  0  0  0999 V2000
   25.6565   14.9439   20.7063 N   0  0  0  0  0  0  0  0  0  0  0  0
   26.9583   15.5952   20.3710 C   0  0  2  0  0  0  0  0  0  0  0  0
   27.4360   15.2095   18.9774 C   0  0  0  0  0  0  0  0  0  0  0  0
   27.1145   14.1432   18.4644 O   0  0  0  0  0  0  0  0  0  0  0  0
   28.0211   15.2683   21.4231 C   0  0  0  0  0  0  0  0  0  0  0  0
   29.3344   16.0025   21.2139 C   0  0  0  0  0  0  0  0  0  0  0  0
   30.3952   15.5529   22.2109 C   0  0  0  0  0  0  0  0  0  0  0  0
   31.7098   16.2726   21.9578 C   0  0  0  0  0  0  0  0  0  0  0  0
   31.6322   17.7472   22.2547 N   0  0  0  0  0  0  0  0  0  0  0  0
   28.1322   15.9522   18.2986 O   0  0  0  0  0  0  0  0  0  0  0  0
  2  1  1  1  0  0  0
  2  3  1  0  0  0  0
  2  5  1  0  0  0  0
  3  4  1  0  0  0  0
  3 10  1  0  0  0  0
  5  6  1  0  0  0  0
  6  7  1  0  0  0  0
  7  8  1  0  0  0  0
  8  9  1  0  0  0  0
M  END
>  <CHROM.1>
-27.23734626,-174.63725863,-175.01387399,178.43698958,67.35140731,28.63980644
15.65827827,20.55042628,2.59259891,-0.35822012,-1.59834593

>  <Name>
ligand

>  <RI>
0

>  <Rbt.Current_Directory>
/home/itssahil/PROJECTS/Mol_Feturizer/New_Systems/rnas/3DIZ

>  <Rbt.Executable>
rbdock ($Id: //depot/dev/client3/rdock/2013.1/src/exe/rbdock.cxx#4 $)

>  <Rbt.Library>
libRbt.so (2013.1, Build901 2013/11/27)

>  <Rbt.Parameter_File>
/export/apps/rDock/src/rDock_2013.1_src/data/scripts/dock_solv.prm

>  <Rbt.Receptor>
prm/pocket_docking_7.prm

>  <SCORE>
-9.36785

>  <SCORE.INTER>
-7.97025

>  <SCORE.INTER.CONST>
1

>  <SCORE.INTER.POLAR>
0

>  <SCORE.INTER.ROT>
5

>  <SCORE.INTER.SOLV>
18.0578

>  <SCORE.INTER.VDW>
-18.2661

>  <SCORE.INTER.norm>
-0.797025

>  <SCORE.INTRA>
-1.3976

>  <SCORE.INTRA.DIHEDRAL>
-1.69038

>  <SCORE.INTRA.DIHEDRAL.0>
3.67053

>  <SCORE.INTRA.POLAR>
0

>  <SCORE.INTRA.POLAR.0>
0

>  <SCORE.INTRA.REPUL>
0

>  <SCORE.INTRA.REPUL.0>
0

>  <SCORE.INTRA.SOLV>
-0.836737

>  <SCORE.INTRA.SOLV.lig_0>
-32.0553

>  <SCORE.INTRA.VDW>
-0.134045

>  <SCORE.INTRA.VDW.0>
-0.571921

>  <SCORE.INTRA.norm>
-0.13976

>  <SCORE.RESTR>
0

>  <SCORE.RESTR.CAVITY>
0

>  <SCORE.RESTR.norm>
0

>  <SCORE.SYSTEM>
0

>  <SCORE.SYSTEM.CONST>
0

>  <SCORE.SYSTEM.DIHEDRAL>
0

>  <SCORE.SYSTEM.SOLV>
0

>  <SCORE.SYSTEM.norm>
0

>  <SCORE.heavy>
10

>  <SCORE.norm>
-0.936785

>  <RMSD>
5.427

$$$$
ligand
 OpenBabel11021811473D
libRbt.so/2013.1/901 2013/11/27
 10  9  0  0  0  0  0  0  0  0999 V2000
   27.2325   14.2282   18.5210 N   0  0  0  0  0  0  0  0  0  0  0  0
   27.8789   14.5017   19.8397 C   0  0  2  0  0  0  0  0  0  0  0  0
   26.8532   14.8826   20.8989 C   0  0  0  0  0  0  0  0  0  0  0  0
   25.6697   15.0344   20.6164 O   0  0  0  0  0  0  0  0  0  0  0  0
   28.9557   15.5817   19.7081 C   0  0  0  0  0  0  0  0  0  0  0  0
   29.9018   15.6493   20.8946 C   0  0  0  0  0  0  0  0  0  0  0  0
   30.9298   16.7620   20.7316 C   0  0  0  0  0  0  0  0  0  0  0  0
   31.8875   16.7857   21.9116 C   0  0  0  0  0  0  0  0  0  0  0  0
   32.9082   17.8887   21.8103 N   0  0  0  0  0  0  0  0  0  0  0  0
   27.1544   15.0244   22.0763 O   0  0  0  0  0  0  0  0  0  0  0  0
  2  1  1  6  0  0  0
  2  3  1  0  0  0  0
  2  5  1  0  0  0  0
  3  4  1  0  0  0  0
  3 10  1  0  0  0  0
  5  6  1  0  0  0  0
  6  7  1  0  0  0  0
  7  8  1  0  0  0  0
  8  9  1  0  0  0  0
M  END
>  <CHROM.1>
-5.35058677,-164.35276942,-178.49961266,-178.46216391,-178.84951597,28.90357734
15.63568250,20.72236541,-2.81205220,0.35329833,1.27468213

>  <Name>
ligand

>  <RI>
0

>  <Rbt.Current_Directory>
/home/itssahil/PROJECTS/Mol_Feturizer/New_Systems/rnas/3DIZ

>  <Rbt.Executable>
rbdock ($Id: //depot/dev/client3/rdock/2013.1/src/exe/rbdock.cxx#4 $)

>  <Rbt.Library>
libRbt.so (2013.1, Build901 2013/11/27)

>  <Rbt.Parameter_File>
/export/apps/rDock/src/rDock_2013.1_src/data/scripts/dock_solv.prm

>  <Rbt.Receptor>
prm/pocket_docking_2.prm

>  <SCORE>
-9.16849

>  <SCORE.INTER>
-7.58102

>  <SCORE.INTER.CONST>
1

>  <SCORE.INTER.POLAR>
0

>  <SCORE.INTER.ROT>
5

>  <SCORE.INTER.SOLV>
16.1128

>  <SCORE.INTER.VDW>
-17.3583

>  <SCORE.INTER.norm>
-0.758102

>  <SCORE.INTRA>
-1.58747

>  <SCORE.INTRA.DIHEDRAL>
-1.24098

>  <SCORE.INTRA.DIHEDRAL.0>
3.67053

>  <SCORE.INTRA.POLAR>
0

>  <SCORE.INTRA.POLAR.0>
0

>  <SCORE.INTRA.REPUL>
0

>  <SCORE.INTRA.REPUL.0>
0

>  <SCORE.INTRA.SOLV>
-1.68619

>  <SCORE.INTRA.SOLV.lig_0>
-32.0553

>  <SCORE.INTRA.VDW>
-0.123884

>  <SCORE.INTRA.VDW.0>
-0.571921

>  <SCORE.INTRA.norm>
-0.158747

>  <SCORE.RESTR>
0

>  <SCORE.RESTR.CAVITY>
0

>  <SCORE.RESTR.norm>
0

>  <SCORE.SYSTEM>
0

>  <SCORE.SYSTEM.CONST>
0

>  <SCORE.SYSTEM.DIHEDRAL>
0

>  <SCORE.SYSTEM.SOLV>
0

>  <SCORE.SYSTEM.norm>
0

>  <SCORE.heavy>
10

>  <SCORE.norm>
-0.916849

>  <RMSD>
5.428

$$$$
ligand
 OpenBabel11021811473D
libRbt.so/2013.1/901 2013/11/27
 10  9  0  0  0  0  0  0  0  0999 V2000
   25.5034   14.7802   20.8966 N   0  0  0  0  0  0  0  0  0  0  0  0
   26.7847   15.4116   20.4593 C   0  0  2  0  0  0  0  0  0  0  0  0
   27.2296   14.8932   19.0983 C   0  0  0  0  0  0  0  0  0  0  0  0
   26.8912   13.7858   18.6948 O   0  0  0  0  0  0  0  0  0  0  0  0
   27.8815   15.2070   21.5073 C   0  0  0  0  0  0  0  0  0  0  0  0
   29.1372   16.0205   21.2447 C   0  0  0  0  0  0  0  0  0  0  0  0
   30.2254   15.7219   22.2685 C   0  0  0  0  0  0  0  0  0  0  0  0
   31.4904   16.5024   21.9512 C   0  0  0  0  0  0  0  0  0  0  0  0
   32.0608   16.1613   20.5995 N   0  0  0  0  0  0  0  0  0  0  0  0
   27.9146   15.5637   18.3378 O   0  0  0  0  0  0  0  0  0  0  0  0
  2  1  1  1  0  0  0
  2  3  1  0  0  0  0
  2  5  1  0  0  0  0
  3  4  1  0  0  0  0
  3 10  1  0  0  0  0
  5  6  1  0  0  0  0
  6  7  1  0  0  0  0
  7  8  1  0  0  0  0
  8  9  1  0  0  0  0
M  END
>  <CHROM.1>
-25.89908758,-170.04350133,-176.73448309,177.60522519,-60.51651146,28.51143662
15.39159288,20.47055633,2.70563981,-0.24938908,-1.72731100

>  <Name>
ligand

>  <RI>
0

>  <Rbt.Current_Directory>
/home/itssahil/PROJECTS/Mol_Feturizer/New_Systems/rnas/3DIZ

>  <Rbt.Executable>
rbdock ($Id: //depot/dev/client3/rdock/2013.1/src/exe/rbdock.cxx#4 $)

>  <Rbt.Library>
libRbt.so (2013.1, Build901 2013/11/27)

>  <Rbt.Parameter_File>
/export/apps/rDock/src/rDock_2013.1_src/data/scripts/dock_solv.prm

>  <Rbt.Receptor>
prm/pocket_docking_5.prm

>  <SCORE>
-9.35191

>  <SCORE.INTER>
-8.02921

>  <SCORE.INTER.CONST>
1

>  <SCORE.INTER.POLAR>
0

>  <SCORE.INTER.ROT>
5

>  <SCORE.INTER.SOLV>
18.8346

>  <SCORE.INTER.VDW>
-18.5643

>  <SCORE.INTER.norm>
-0.802921

>  <SCORE.INTRA>
-1.3227

>  <SCORE.INTRA.DIHEDRAL>
-1.67706

>  <SCORE.INTRA.DIHEDRAL.0>
3.67053

>  <SCORE.INTRA.POLAR>
0

>  <SCORE.INTRA.POLAR.0>
0

>  <SCORE.INTRA.REPUL>
0

>  <SCORE.INTRA.REPUL.0>
0

>  <SCORE.INTRA.SOLV>
-0.711977

>  <SCORE.INTRA.SOLV.lig_0>
-32.0553

>  <SCORE.INTRA.VDW>
-0.128183

>  <SCORE.INTRA.VDW.0>
-0.571921

>  <SCORE.INTRA.norm>
-0.13227

>  <SCORE.RESTR>
0

>  <SCORE.RESTR.CAVITY>
0

>  <SCORE.RESTR.norm>
0

>  <SCORE.SYSTEM>
0

>  <SCORE.SYSTEM.CONST>
0

>  <SCORE.SYSTEM.DIHEDRAL>
0

>  <SCORE.SYSTEM.SOLV>
0

>  <SCORE.SYSTEM.norm>
0

>  <SCORE.heavy>
10

>  <SCORE.norm>
-0.935191

>  <RMSD>
5.429

$$$$
ligand
 OpenBabel11021811473D
libRbt.so/2013.1/901 2013/11/27
 10  9  0  0  0  0  0  0  0  0999 V2000
   26.1677   14.8917   20.6251 N   0  0  0  0  0  0  0  0  0  0  0  0
   27.4408   15.1199   19.8777 C   0  0  2  0  0  0  0  0  0  0  0  0
   27.3778   14.5383   18.4717 C   0  0  0  0  0  0  0  0  0  0  0  0
   27.8483   15.1377   17.5110 O   0  0  0  0  0  0  0  0  0  0  0  0
   28.6370   14.5566   20.6491 C   0  0  0  0  0  0  0  0  0  0  0  0
   29.0457   15.4003   21.8444 C   0  0  0  0  0  0  0  0  0  0  0  0
   29.5153   16.7864   21.4205 C   0  0  0  0  0  0  0  0  0  0  0  0
   30.8346   16.7008   20.6708 C   0  0  0  0  0  0  0  0  0  0  0  0
   31.9811   16.2883   21.5563 N   0  0  0  0  0  0  0  0  0  0  0  0
   26.8858   13.4420   18.2415 O   0  0  0  0  0  0  0  0  0  0  0  0
  2  1  1  1  0  0  0
  2  3  1  0  0  0  0
  2  5  1  0  0  0  0
  3  4  1  0  0  0  0
  3 10  1  0  0  0  0
  5  6  1  0  0  0  0
  6  7  1  0  0  0  0
  7  8  1  0  0  0  0
  8  9  1  0  0  0  0
M  END
>  <CHROM.1>
139.31831637,-74.84354511,-63.27030043,-68.65346666,-68.61551404,28.56472091
15.27013110,20.04929212,2.48967937,-0.38836950,-1.73926106

>  <Name>
ligand

>  <RI>
0

>  <Rbt.Current_Directory>
/home/itssahil/PROJECTS/Mol_Feturizer/New_Systems/rnas/3DIZ

>  <Rbt.Executable>
rbdock ($Id: //depot/dev/client3/rdock/2013.1/src/exe/rbdock.cxx#4 $)

>  <Rbt.Library>
libRbt.so (2013.1, Build901 2013/11/27)

>  <Rbt.Parameter_File>
/export/apps/rDock/src/rDock_2013.1_src/data/scripts/dock_solv.prm

>  <Rbt.Receptor>
prm/pocket_docking_6.prm

>  <SCORE>
-7.45551

>  <SCORE.INTER>
-7.97508

>  <SCORE.INTER.CONST>
1

>  <SCORE.INTER.POLAR>
0

>  <SCORE.INTER.ROT>
5

>  <SCORE.INTER.SOLV>
15.9988

>  <SCORE.INTER.VDW>
-17.583

>  <SCORE.INTER.norm>
-0.797508

>  <SCORE.INTRA>
0.519569

>  <SCORE.INTRA.DIHEDRAL>
-0.731306

>  <SCORE.INTRA.DIHEDRAL.0>
3.67053

>  <SCORE.INTRA.POLAR>
0

>  <SCORE.INTRA.POLAR.0>
0

>  <SCORE.INTRA.REPUL>
0

>  <SCORE.INTRA.REPUL.0>
0

>  <SCORE.INTRA.SOLV>
0.777412

>  <SCORE.INTRA.SOLV.lig_0>
-32.0553

>  <SCORE.INTRA.VDW>
0.496516

>  <SCORE.INTRA.VDW.0>
-0.571921

>  <SCORE.INTRA.norm>
0.0519569

>  <SCORE.RESTR>
0

>  <SCORE.RESTR.CAVITY>
0

>  <SCORE.RESTR.norm>
0

>  <SCORE.SYSTEM>
0

>  <SCORE.SYSTEM.CONST>
0

>  <SCORE.SYSTEM.DIHEDRAL>
0

>  <SCORE.SYSTEM.SOLV>
0

>  <SCORE.SYSTEM.norm>
0

>  <SCORE.heavy>
10

>  <SCORE.norm>
-0.745551

>  <RMSD>
5.429

$$$$
ligand
 OpenBabel11021811473D
libRbt.so/2013.1/901 2013/11/27
 10  9  0  0  0  0  0  0  0  0999 V2000
   27.2376   14.1871   18.5408 N   0  0  0  0  0  0  0  0  0  0  0  0
   27.8749   14.4689   19.8621 C   0  0  2  0  0  0  0  0  0  0  0  0
   26.8439   14.8737   20.9072 C   0  0  0  0  0  0  0  0  0  0  0  0
   25.6677   15.0503   20.6091 O   0  0  0  0  0  0  0  0  0  0  0  0
   28.9649   15.5353   19.7279 C   0  0  0  0  0  0  0  0  0  0  0  0
   29.8827   15.6265   20.9350 C   0  0  0  0  0  0  0  0  0  0  0  0
   30.9469   16.7014   20.7526 C   0  0  0  0  0  0  0  0  0  0  0  0
   31.8694   16.7544   21.9593 C   0  0  0  0  0  0  0  0  0  0  0  0
   32.9057   17.8423   21.8521 N   0  0  0  0  0  0  0  0  0  0  0  0
   27.1326   15.0112   22.0882 O   0  0  0  0  0  0  0  0  0  0  0  0
  2  1  1  6  0  0  0
  2  3  1  0  0  0  0
  2  5  1  0  0  0  0
  3  4  1  0  0  0  0
  3 10  1  0  0  0  0
  5  6  1  0  0  0  0
  6  7  1  0  0  0  0
  7  8  1  0  0  0  0
  8  9  1  0  0  0  0
M  END
>  <CHROM.1>
-6.19939266,-165.58689726,-179.93696095,-178.83973605,-177.60474748,28.89889613
15.60749689,20.74457649,-2.80331645,0.34277725,1.26162149

>  <Name>
ligand

>  <RI>
0

>  <Rbt.Current_Directory>
/home/itssahil/PROJECTS/Mol_Feturizer/New_Systems/rnas/3DIZ

>  <Rbt.Executable>
rbdock ($Id: //depot/dev/client3/rdock/2013.1/src/exe/rbdock.cxx#4 $)

>  <Rbt.Library>
libRbt.so (2013.1, Build901 2013/11/27)

>  <Rbt.Parameter_File>
/export/apps/rDock/src/rDock_2013.1_src/data/scripts/dock_solv.prm

>  <Rbt.Receptor>
prm/pocket_docking_2.prm

>  <SCORE>
-9.14521

>  <SCORE.INTER>
-7.51161

>  <SCORE.INTER.CONST>
1

>  <SCORE.INTER.POLAR>
0

>  <SCORE.INTER.ROT>
5

>  <SCORE.INTER.SOLV>
16.1577

>  <SCORE.INTER.VDW>
-17.327

>  <SCORE.INTER.norm>
-0.751161

>  <SCORE.INTRA>
-1.6336

>  <SCORE.INTRA.DIHEDRAL>
-1.36516

>  <SCORE.INTRA.DIHEDRAL.0>
3.67053

>  <SCORE.INTRA.POLAR>
0

>  <SCORE.INTRA.POLAR.0>
0

>  <SCORE.INTRA.REPUL>
0

>  <SCORE.INTRA.REPUL.0>
0

>  <SCORE.INTRA.SOLV>
-1.68826

>  <SCORE.INTRA.SOLV.lig_0>
-32.0553

>  <SCORE.INTRA.VDW>
-0.106891

>  <SCORE.INTRA.VDW.0>
-0.571921

>  <SCORE.INTRA.norm>
-0.16336

>  <SCORE.RESTR>
0

>  <SCORE.RESTR.CAVITY>
0

>  <SCORE.RESTR.norm>
0

>  <SCORE.SYSTEM>
0

>  <SCORE.SYSTEM.CONST>
0

>  <SCORE.SYSTEM.DIHEDRAL>
0

>  <SCORE.SYSTEM.SOLV>
0

>  <SCORE.SYSTEM.norm>
0

>  <SCORE.heavy>
10

>  <SCORE.norm>
-0.914521

>  <RMSD>
5.431

$$$$
ligand
 OpenBabel11021811473D
libRbt.so/2013.1/901 2013/11/27
 10  9  0  0  0  0  0  0  0  0999 V2000
   27.2007   14.1940   18.5027 N   0  0  0  0  0  0  0  0  0  0  0  0
   27.8503   14.4550   19.8223 C   0  0  2  0  0  0  0  0  0  0  0  0
   26.8278   14.8317   20.8861 C   0  0  0  0  0  0  0  0  0  0  0  0
   27.1518   14.9794   22.0595 O   0  0  0  0  0  0  0  0  0  0  0  0
   28.9310   15.5318   19.6972 C   0  0  0  0  0  0  0  0  0  0  0  0
   29.8480   15.6207   20.9049 C   0  0  0  0  0  0  0  0  0  0  0  0
   30.9119   16.6966   20.7255 C   0  0  0  0  0  0  0  0  0  0  0  0
   31.8346   16.7462   21.9322 C   0  0  0  0  0  0  0  0  0  0  0  0
   32.9213   17.7797   21.7914 N   0  0  0  0  0  0  0  0  0  0  0  0
   25.6512   15.0322   20.6169 O   0  0  0  0  0  0  0  0  0  0  0  0
  2  1  1  6  0  0  0
  2  3  1  0  0  0  0
  2  5  1  0  0  0  0
  3  4  1  0  0  0  0
  3 10  1  0  0  0  0
  5  6  1  0  0  0  0
  6  7  1  0  0  0  0
  7  8  1  0  0  0  0
  8  9  1  0  0  0  0
M  END
>  <CHROM.1>
174.09661083,-166.47068807,179.47256590,-178.77431001,178.95322942,28.87970169
15.58924004,20.71551524,-2.81269060,0.34770068,1.28003345

>  <Name>
ligand

>  <RI>
0

>  <Rbt.Current_Directory>
/home/itssahil/PROJECTS/Mol_Feturizer/New_Systems/rnas/3DIZ

>  <Rbt.Executable>
rbdock ($Id: //depot/dev/client3/rdock/2013.1/src/exe/rbdock.cxx#4 $)

>  <Rbt.Library>
libRbt.so (2013.1, Build901 2013/11/27)

>  <Rbt.Parameter_File>
/export/apps/rDock/src/rDock_2013.1_src/data/scripts/dock_solv.prm

>  <Rbt.Receptor>
prm/pocket_docking_2.prm

>  <SCORE>
-9.06746

>  <SCORE.INTER>
-7.41602

>  <SCORE.INTER.CONST>
1

>  <SCORE.INTER.POLAR>
0

>  <SCORE.INTER.ROT>
5

>  <SCORE.INTER.SOLV>
16.3411

>  <SCORE.INTER.VDW>
-17.3244

>  <SCORE.INTER.norm>
-0.741602

>  <SCORE.INTRA>
-1.65144

>  <SCORE.INTRA.DIHEDRAL>
-1.51607

>  <SCORE.INTRA.DIHEDRAL.0>
3.67053

>  <SCORE.INTRA.POLAR>
0

>  <SCORE.INTRA.POLAR.0>
0

>  <SCORE.INTRA.REPUL>
0

>  <SCORE.INTRA.REPUL.0>
0

>  <SCORE.INTRA.SOLV>
-1.69905

>  <SCORE.INTRA.SOLV.lig_0>
-32.0553

>  <SCORE.INTRA.VDW>
-0.0438789

>  <SCORE.INTRA.VDW.0>
-0.571921

>  <SCORE.INTRA.norm>
-0.165144

>  <SCORE.RESTR>
0

>  <SCORE.RESTR.CAVITY>
0

>  <SCORE.RESTR.norm>
0

>  <SCORE.SYSTEM>
0

>  <SCORE.SYSTEM.CONST>
0

>  <SCORE.SYSTEM.DIHEDRAL>
0

>  <SCORE.SYSTEM.SOLV>
0

>  <SCORE.SYSTEM.norm>
0

>  <SCORE.heavy>
10

>  <SCORE.norm>
-0.906746

>  <RMSD>
5.432

$$$$
ligand
 OpenBabel11021811473D
libRbt.so/2013.1/901 2013/11/27
 10  9  0  0  0  0  0  0  0  0999 V2000
   28.7127   16.0934   19.8106 N   0  0  0  0  0  0  0  0  0  0  0  0
   28.0987   15.0940   20.7356 C   0  0  2  0  0  0  0  0  0  0  0  0
   26.5781   15.1157   20.6556 C   0  0  0  0  0  0  0  0  0  0  0  0
   25.9948   15.6832   19.7384 O   0  0  0  0  0  0  0  0  0  0  0  0
   28.5736   15.3151   22.1739 C   0  0  0  0  0  0  0  0  0  0  0  0
   30.0851   15.3136   22.3256 C   0  0  0  0  0  0  0  0  0  0  0  0
   30.6957   16.6392   21.8882 C   0  0  0  0  0  0  0  0  0  0  0  0
   32.2082   16.6085   22.0348 C   0  0  0  0  0  0  0  0  0  0  0  0
   32.8485   17.9392   21.7385 N   0  0  0  0  0  0  0  0  0  0  0  0
   25.8742   14.5473   21.4793 O   0  0  0  0  0  0  0  0  0  0  0  0
  2  1  1  6  0  0  0
  2  3  1  0  0  0  0
  2  5  1  0  0  0  0
  3  4  1  0  0  0  0
  3 10  1  0  0  0  0
  5  6  1  0  0  0  0
  6  7  1  0  0  0  0
  7  8  1  0  0  0  0
  8  9  1  0  0  0  0
M  END
>  <CHROM.1>
14.25342975,-54.99812487,78.59182755,-179.39300688,-174.58470644,28.92198485
15.83002135,21.25237306,-3.12617673,0.38660471,2.12949128

>  <Name>
ligand

>  <RI>
0

>  <Rbt.Current_Directory>
/home/itssahil/PROJECTS/Mol_Feturizer/New_Systems/rnas/3DIZ

>  <Rbt.Executable>
rbdock ($Id: //depot/dev/client3/rdock/2013.1/src/exe/rbdock.cxx#4 $)

>  <Rbt.Library>
libRbt.so (2013.1, Build901 2013/11/27)

>  <Rbt.Parameter_File>
/export/apps/rDock/src/rDock_2013.1_src/data/scripts/dock_solv.prm

>  <Rbt.Receptor>
prm/pocket_docking_5.prm

>  <SCORE>
-9.02053

>  <SCORE.INTER>
-9.50733

>  <SCORE.INTER.CONST>
1

>  <SCORE.INTER.POLAR>
0

>  <SCORE.INTER.ROT>
5

>  <SCORE.INTER.SOLV>
12.3542

>  <SCORE.INTER.VDW>
-17.3896

>  <SCORE.INTER.norm>
-0.950733

>  <SCORE.INTRA>
0.4868

>  <SCORE.INTRA.DIHEDRAL>
-0.668764

>  <SCORE.INTRA.DIHEDRAL.0>
3.67053

>  <SCORE.INTRA.POLAR>
0

>  <SCORE.INTRA.POLAR.0>
0

>  <SCORE.INTRA.REPUL>
0

>  <SCORE.INTRA.REPUL.0>
0

>  <SCORE.INTRA.SOLV>
0.718253

>  <SCORE.INTRA.SOLV.lig_0>
-32.0553

>  <SCORE.INTRA.VDW>
0.462056

>  <SCORE.INTRA.VDW.0>
-0.571921

>  <SCORE.INTRA.norm>
0.04868

>  <SCORE.RESTR>
0

>  <SCORE.RESTR.CAVITY>
0

>  <SCORE.RESTR.norm>
0

>  <SCORE.SYSTEM>
0

>  <SCORE.SYSTEM.CONST>
0

>  <SCORE.SYSTEM.DIHEDRAL>
0

>  <SCORE.SYSTEM.SOLV>
0

>  <SCORE.SYSTEM.norm>
0

>  <SCORE.heavy>
10

>  <SCORE.norm>
-0.902053

>  <RMSD>
5.433

$$$$
ligand
 OpenBabel11021811473D
libRbt.so/2013.1/901 2013/11/27
 10  9  0  0  0  0  0  0  0  0999 V2000
   27.1478   14.2788   18.6102 N   0  0  0  0  0  0  0  0  0  0  0  0
   27.8152   14.5234   19.9240 C   0  0  2  0  0  0  0  0  0  0  0  0
   26.8075   14.8897   21.0054 C   0  0  0  0  0  0  0  0  0  0  0  0
   27.1614   15.1202   22.1566 O   0  0  0  0  0  0  0  0  0  0  0  0
   28.8962   15.5997   19.7971 C   0  0  0  0  0  0  0  0  0  0  0  0
   29.8456   15.6552   20.9816 C   0  0  0  0  0  0  0  0  0  0  0  0
   30.9232   16.7150   20.7897 C   0  0  0  0  0  0  0  0  0  0  0  0
   31.8683   16.7419   21.9797 C   0  0  0  0  0  0  0  0  0  0  0  0
   32.9477   17.7834   21.8419 N   0  0  0  0  0  0  0  0  0  0  0  0
   25.6116   14.9995   20.7714 O   0  0  0  0  0  0  0  0  0  0  0  0
  2  1  1  6  0  0  0
  2  3  1  0  0  0  0
  2  5  1  0  0  0  0
  3  4  1  0  0  0  0
  3 10  1  0  0  0  0
  5  6  1  0  0  0  0
  6  7  1  0  0  0  0
  7  8  1  0  0  0  0
  8  9  1  0  0  0  0
M  END
>  <CHROM.1>
179.56194867,-165.35338262,178.45600957,-179.41757009,-179.55342055,28.86947491
15.63308167,20.80790792,-2.83009550,0.34206939,1.28694523

>  <Name>
ligand

>  <RI>
0

>  <Rbt.Current_Directory>
/home/itssahil/PROJECTS/Mol_Feturizer/New_Systems/rnas/3DIZ

>  <Rbt.Executable>
rbdock ($Id: //depot/dev/client3/rdock/2013.1/src/exe/rbdock.cxx#4 $)

>  <Rbt.Library>
libRbt.so (2013.1, Build901 2013/11/27)

>  <Rbt.Parameter_File>
/export/apps/rDock/src/rDock_2013.1_src/data/scripts/dock_solv.prm

>  <Rbt.Receptor>
prm/pocket_docking_5.prm

>  <SCORE>
-9.2186

>  <SCORE.INTER>
-7.70445

>  <SCORE.INTER.CONST>
1

>  <SCORE.INTER.POLAR>
0

>  <SCORE.INTER.ROT>
5

>  <SCORE.INTER.SOLV>
16.1844

>  <SCORE.INTER.VDW>
-17.4644

>  <SCORE.INTER.norm>
-0.770445

>  <SCORE.INTRA>
-1.51415

>  <SCORE.INTRA.DIHEDRAL>
-1.38716

>  <SCORE.INTRA.DIHEDRAL.0>
3.67053

>  <SCORE.INTRA.POLAR>
0

>  <SCORE.INTRA.POLAR.0>
0

>  <SCORE.INTRA.REPUL>
0

>  <SCORE.INTRA.REPUL.0>
0

>  <SCORE.INTRA.SOLV>
-1.69597

>  <SCORE.INTRA.SOLV.lig_0>
-32.0553

>  <SCORE.INTRA.VDW>
0.0274088

>  <SCORE.INTRA.VDW.0>
-0.571921

>  <SCORE.INTRA.norm>
-0.151415

>  <SCORE.RESTR>
0

>  <SCORE.RESTR.CAVITY>
0

>  <SCORE.RESTR.norm>
0

>  <SCORE.SYSTEM>
0

>  <SCORE.SYSTEM.CONST>
0

>  <SCORE.SYSTEM.DIHEDRAL>
0

>  <SCORE.SYSTEM.SOLV>
0

>  <SCORE.SYSTEM.norm>
0

>  <SCORE.heavy>
10

>  <SCORE.norm>
-0.92186

>  <RMSD>
5.433

$$$$
ligand
 OpenBabel11021811473D
libRbt.so/2013.1/901 2013/11/27
 10  9  0  0  0  0  0  0  0  0999 V2000
   26.1990   14.8243   20.6423 N   0  0  0  0  0  0  0  0  0  0  0  0
   27.4565   15.0934   19.8821 C   0  0  2  0  0  0  0  0  0  0  0  0
   27.3883   14.5318   18.4682 C   0  0  0  0  0  0  0  0  0  0  0  0
   26.8896   13.4351   18.2400 O   0  0  0  0  0  0  0  0  0  0  0  0
   28.6756   14.5468   20.6292 C   0  0  0  0  0  0  0  0  0  0  0  0
   29.0801   15.3814   21.8322 C   0  0  0  0  0  0  0  0  0  0  0  0
   29.5273   16.7791   21.4224 C   0  0  0  0  0  0  0  0  0  0  0  0
   30.8471   16.7221   20.6707 C   0  0  0  0  0  0  0  0  0  0  0  0
   31.9990   16.3081   21.5484 N   0  0  0  0  0  0  0  0  0  0  0  0
   27.7972   15.1562   17.4987 O   0  0  0  0  0  0  0  0  0  0  0  0
  2  1  1  1  0  0  0
  2  3  1  0  0  0  0
  2  5  1  0  0  0  0
  3  4  1  0  0  0  0
  3 10  1  0  0  0  0
  5  6  1  0  0  0  0
  6  7  1  0  0  0  0
  7  8  1  0  0  0  0
  8  9  1  0  0  0  0
M  END
>  <CHROM.1>
-40.81868979,-74.82589241,-63.94836302,-68.99914940,-68.16616726,28.57625922
15.26226754,20.04573564,2.50230938,-0.40934968,-1.71265686

>  <Name>
ligand

>  <RI>
0

>  <Rbt.Current_Directory>
/home/itssahil/PROJECTS/Mol_Feturizer/New_Systems/rnas/3DIZ

>  <Rbt.Executable>
rbdock ($Id: //depot/dev/client3/rdock/2013.1/src/exe/rbdock.cxx#4 $)

>  <Rbt.Library>
libRbt.so (2013.1, Build901 2013/11/27)

>  <Rbt.Parameter_File>
/export/apps/rDock/src/rDock_2013.1_src/data/scripts/dock_solv.prm

>  <Rbt.Receptor>
prm/pocket_docking_4.prm

>  <SCORE>
-7.37153

>  <SCORE.INTER>
-7.93579

>  <SCORE.INTER.CONST>
1

>  <SCORE.INTER.POLAR>
0

>  <SCORE.INTER.ROT>
5

>  <SCORE.INTER.SOLV>
15.9687

>  <SCORE.INTER.VDW>
-17.5468

>  <SCORE.INTER.norm>
-0.793579

>  <SCORE.INTRA>
0.564264

>  <SCORE.INTRA.DIHEDRAL>
-0.617282

>  <SCORE.INTRA.DIHEDRAL.0>
3.67053

>  <SCORE.INTRA.POLAR>
0

>  <SCORE.INTRA.POLAR.0>
0

>  <SCORE.INTRA.REPUL>
0

>  <SCORE.INTRA.REPUL.0>
0

>  <SCORE.INTRA.SOLV>
0.789205

>  <SCORE.INTRA.SOLV.lig_0>
-32.0553

>  <SCORE.INTRA.VDW>
0.478303

>  <SCORE.INTRA.VDW.0>
-0.571921

>  <SCORE.INTRA.norm>
0.0564264

>  <SCORE.RESTR>
0

>  <SCORE.RESTR.CAVITY>
0

>  <SCORE.RESTR.norm>
0

>  <SCORE.SYSTEM>
0

>  <SCORE.SYSTEM.CONST>
0

>  <SCORE.SYSTEM.DIHEDRAL>
0

>  <SCORE.SYSTEM.SOLV>
0

>  <SCORE.SYSTEM.norm>
0

>  <SCORE.heavy>
10

>  <SCORE.norm>
-0.737153

>  <RMSD>
5.435

$$$$
ligand
 OpenBabel11021811473D
libRbt.so/2013.1/901 2013/11/27
 10  9  0  0  0  0  0  0  0  0999 V2000
   25.9531   14.6925   20.7207 N   0  0  0  0  0  0  0  0  0  0  0  0
   26.8869   15.5072   19.8865 C   0  0  2  0  0  0  0  0  0  0  0  0
   27.3448   14.7450   18.6502 C   0  0  0  0  0  0  0  0  0  0  0  0
   26.9784   13.5944   18.4371 O   0  0  0  0  0  0  0  0  0  0  0  0
   28.0860   15.9814   20.7115 C   0  0  0  0  0  0  0  0  0  0  0  0
   28.8981   14.8491   21.3163 C   0  0  0  0  0  0  0  0  0  0  0  0
   30.1747   15.3603   21.9723 C   0  0  0  0  0  0  0  0  0  0  0  0
   31.1339   15.9067   20.9276 C   0  0  0  0  0  0  0  0  0  0  0  0
   32.3806   16.4956   21.5340 N   0  0  0  0  0  0  0  0  0  0  0  0
   28.0693   15.2511   17.8039 O   0  0  0  0  0  0  0  0  0  0  0  0
  2  1  1  1  0  0  0
  2  3  1  0  0  0  0
  2  5  1  0  0  0  0
  3  4  1  0  0  0  0
  3 10  1  0  0  0  0
  5  6  1  0  0  0  0
  6  7  1  0  0  0  0
  7  8  1  0  0  0  0
  8  9  1  0  0  0  0
M  END
>  <CHROM.1>
-1.44489846,59.13244797,172.62000571,-67.35007325,176.78655144,28.59056051
15.22054956,20.16201704,2.61660127,-0.24591061,-1.69311279

>  <Name>
ligand

>  <RI>
0

>  <Rbt.Current_Directory>
/home/itssahil/PROJECTS/Mol_Feturizer/New_Systems/rnas/3DIZ

>  <Rbt.Executable>
rbdock ($Id: //depot/dev/client3/rdock/2013.1/src/exe/rbdock.cxx#4 $)

>  <Rbt.Library>
libRbt.so (2013.1, Build901 2013/11/27)

>  <Rbt.Parameter_File>
/export/apps/rDock/src/rDock_2013.1_src/data/scripts/dock_solv.prm

>  <Rbt.Receptor>
prm/pocket_docking_6.prm

>  <SCORE>
-9.22412

>  <SCORE.INTER>
-8.71725

>  <SCORE.INTER.CONST>
1

>  <SCORE.INTER.POLAR>
0

>  <SCORE.INTER.ROT>
5

>  <SCORE.INTER.SOLV>
17.6549

>  <SCORE.INTER.VDW>
-18.6298

>  <SCORE.INTER.norm>
-0.871725

>  <SCORE.INTRA>
-0.506869

>  <SCORE.INTRA.DIHEDRAL>
-1.66536

>  <SCORE.INTRA.DIHEDRAL.0>
3.67053

>  <SCORE.INTRA.POLAR>
0

>  <SCORE.INTRA.POLAR.0>
0

>  <SCORE.INTRA.REPUL>
0

>  <SCORE.INTRA.REPUL.0>
0

>  <SCORE.INTRA.SOLV>
-0.570106

>  <SCORE.INTRA.SOLV.lig_0>
-32.0553

>  <SCORE.INTRA.VDW>
0.610865

>  <SCORE.INTRA.VDW.0>
-0.571921

>  <SCORE.INTRA.norm>
-0.0506869

>  <SCORE.RESTR>
0

>  <SCORE.RESTR.CAVITY>
0

>  <SCORE.RESTR.norm>
0

>  <SCORE.SYSTEM>
0

>  <SCORE.SYSTEM.CONST>
0

>  <SCORE.SYSTEM.DIHEDRAL>
0

>  <SCORE.SYSTEM.SOLV>
0

>  <SCORE.SYSTEM.norm>
0

>  <SCORE.heavy>
10

>  <SCORE.norm>
-0.922412

>  <RMSD>
5.437

$$$$
ligand
 OpenBabel11021811473D
libRbt.so/2013.1/901 2013/11/27
 10  9  0  0  0  0  0  0  0  0999 V2000
   27.1084   14.1984   18.6914 N   0  0  0  0  0  0  0  0  0  0  0  0
   27.7935   14.4903   19.9864 C   0  0  2  0  0  0  0  0  0  0  0  0
   26.7997   14.8876   21.0697 C   0  0  0  0  0  0  0  0  0  0  0  0
   25.5951   14.9347   20.8452 O   0  0  0  0  0  0  0  0  0  0  0  0
   28.8666   15.5672   19.8075 C   0  0  0  0  0  0  0  0  0  0  0  0
   29.8446   15.6539   20.9666 C   0  0  0  0  0  0  0  0  0  0  0  0
   30.8849   16.7447   20.7444 C   0  0  0  0  0  0  0  0  0  0  0  0
   31.8768   16.7837   21.8954 C   0  0  0  0  0  0  0  0  0  0  0  0
   32.9050   17.8735   21.7406 N   0  0  0  0  0  0  0  0  0  0  0  0
   27.1509   15.1470   22.2127 O   0  0  0  0  0  0  0  0  0  0  0  0
  2  1  1  6  0  0  0
  2  3  1  0  0  0  0
  2  5  1  0  0  0  0
  3  4  1  0  0  0  0
  3 10  1  0  0  0  0
  5  6  1  0  0  0  0
  6  7  1  0  0  0  0
  7  8  1  0  0  0  0
  8  9  1  0  0  0  0
M  END
>  <CHROM.1>
0.43940605,-164.53704922,-179.62794786,-178.24745712,-178.40055820,28.84959480
15.63027474,20.81851013,-2.84223529,0.35698798,1.26078503

>  <Name>
ligand

>  <RI>
0

>  <Rbt.Current_Directory>
/home/itssahil/PROJECTS/Mol_Feturizer/New_Systems/rnas/3DIZ

>  <Rbt.Executable>
rbdock ($Id: //depot/dev/client3/rdock/2013.1/src/exe/rbdock.cxx#4 $)

>  <Rbt.Library>
libRbt.so (2013.1, Build901 2013/11/27)

>  <Rbt.Parameter_File>
/export/apps/rDock/src/rDock_2013.1_src/data/scripts/dock_solv.prm

>  <Rbt.Receptor>
prm/pocket_docking_6.prm

>  <SCORE>
-9.28226

>  <SCORE.INTER>
-7.76985

>  <SCORE.INTER.CONST>
1

>  <SCORE.INTER.POLAR>
0

>  <SCORE.INTER.ROT>
5

>  <SCORE.INTER.SOLV>
16.2709

>  <SCORE.INTER.VDW>
-17.5369

>  <SCORE.INTER.norm>
-0.776985

>  <SCORE.INTRA>
-1.51241

>  <SCORE.INTRA.DIHEDRAL>
-1.2803

>  <SCORE.INTRA.DIHEDRAL.0>
3.67053

>  <SCORE.INTRA.POLAR>
0

>  <SCORE.INTRA.POLAR.0>
0

>  <SCORE.INTRA.REPUL>
0

>  <SCORE.INTRA.REPUL.0>
0

>  <SCORE.INTRA.SOLV>
-1.687

>  <SCORE.INTRA.SOLV.lig_0>
-32.0553

>  <SCORE.INTRA.VDW>
-0.0287605

>  <SCORE.INTRA.VDW.0>
-0.571921

>  <SCORE.INTRA.norm>
-0.151241

>  <SCORE.RESTR>
0

>  <SCORE.RESTR.CAVITY>
0

>  <SCORE.RESTR.norm>
0

>  <SCORE.SYSTEM>
0

>  <SCORE.SYSTEM.CONST>
0

>  <SCORE.SYSTEM.DIHEDRAL>
0

>  <SCORE.SYSTEM.SOLV>
0

>  <SCORE.SYSTEM.norm>
0

>  <SCORE.heavy>
10

>  <SCORE.norm>
-0.928226

>  <RMSD>
5.439

$$$$
ligand
 OpenBabel11021811473D
libRbt.so/2013.1/901 2013/11/27
 10  9  0  0  0  0  0  0  0  0999 V2000
   28.5091   14.3941   19.1600 N   0  0  0  0  0  0  0  0  0  0  0  0
   27.9971   14.5286   20.5568 C   0  0  2  0  0  0  0  0  0  0  0  0
   26.5416   14.9758   20.5801 C   0  0  0  0  0  0  0  0  0  0  0  0
   25.7749   14.6092   21.4640 O   0  0  0  0  0  0  0  0  0  0  0  0
   28.8748   15.4813   21.3724 C   0  0  0  0  0  0  0  0  0  0  0  0
   30.3130   15.0142   21.5175 C   0  0  0  0  0  0  0  0  0  0  0  0
   31.1420   15.9927   22.3402 C   0  0  0  0  0  0  0  0  0  0  0  0
   31.4682   17.2355   21.5283 C   0  0  0  0  0  0  0  0  0  0  0  0
   32.4140   18.1652   22.2425 N   0  0  0  0  0  0  0  0  0  0  0  0
   26.0811   15.7392   19.7421 O   0  0  0  0  0  0  0  0  0  0  0  0
  2  1  1  6  0  0  0
  2  3  1  0  0  0  0
  2  5  1  0  0  0  0
  3  4  1  0  0  0  0
  3 10  1  0  0  0  0
  5  6  1  0  0  0  0
  6  7  1  0  0  0  0
  7  8  1  0  0  0  0
  8  9  1  0  0  0  0
M  END
>  <CHROM.1>
147.53992963,-61.59030296,-179.78991516,-74.67368072,-173.60325124,28.86810463
15.61797077,21.04823167,-2.66599060,0.02401712,0.67618420

>  <Name>
ligand

>  <RI>
0

>  <Rbt.Current_Directory>
/home/itssahil/PROJECTS/Mol_Feturizer/New_Systems/rnas/3DIZ

>  <Rbt.Executable>
rbdock ($Id: //depot/dev/client3/rdock/2013.1/src/exe/rbdock.cxx#4 $)

>  <Rbt.Library>
libRbt.so (2013.1, Build901 2013/11/27)

>  <Rbt.Parameter_File>
/export/apps/rDock/src/rDock_2013.1_src/data/scripts/dock_solv.prm

>  <Rbt.Receptor>
prm/pocket_docking_7.prm

>  <SCORE>
-9.65417

>  <SCORE.INTER>
-8.8752

>  <SCORE.INTER.CONST>
1

>  <SCORE.INTER.POLAR>
0

>  <SCORE.INTER.ROT>
5

>  <SCORE.INTER.SOLV>
13.8052

>  <SCORE.INTER.VDW>
-17.4519

>  <SCORE.INTER.norm>
-0.88752

>  <SCORE.INTRA>
-0.778972

>  <SCORE.INTRA.DIHEDRAL>
-1.20181

>  <SCORE.INTRA.DIHEDRAL.0>
3.67053

>  <SCORE.INTRA.POLAR>
0

>  <SCORE.INTRA.POLAR.0>
0

>  <SCORE.INTRA.REPUL>
0

>  <SCORE.INTRA.REPUL.0>
0

>  <SCORE.INTRA.SOLV>
-0.683775

>  <SCORE.INTRA.SOLV.lig_0>
-32.0553

>  <SCORE.INTRA.VDW>
0.16382

>  <SCORE.INTRA.VDW.0>
-0.571921

>  <SCORE.INTRA.norm>
-0.0778972

>  <SCORE.RESTR>
0

>  <SCORE.RESTR.CAVITY>
0

>  <SCORE.RESTR.norm>
0

>  <SCORE.SYSTEM>
0

>  <SCORE.SYSTEM.CONST>
0

>  <SCORE.SYSTEM.DIHEDRAL>
0

>  <SCORE.SYSTEM.SOLV>
0

>  <SCORE.SYSTEM.norm>
0

>  <SCORE.heavy>
10

>  <SCORE.norm>
-0.965417

>  <RMSD>
5.439

$$$$
ligand
 OpenBabel11021811473D
libRbt.so/2013.1/901 2013/11/27
 10  9  0  0  0  0  0  0  0  0999 V2000
   27.1007   14.2488   18.5887 N   0  0  0  0  0  0  0  0  0  0  0  0
   27.7732   14.4841   19.9017 C   0  0  2  0  0  0  0  0  0  0  0  0
   26.7728   14.8697   20.9832 C   0  0  0  0  0  0  0  0  0  0  0  0
   27.1327   15.1052   22.1315 O   0  0  0  0  0  0  0  0  0  0  0  0
   28.8726   15.5413   19.7721 C   0  0  0  0  0  0  0  0  0  0  0  0
   29.8171   15.5899   20.9608 C   0  0  0  0  0  0  0  0  0  0  0  0
   30.8994   16.6464   20.7766 C   0  0  0  0  0  0  0  0  0  0  0  0
   31.8358   16.6707   21.9736 C   0  0  0  0  0  0  0  0  0  0  0  0
   32.9344   17.6913   21.8320 N   0  0  0  0  0  0  0  0  0  0  0  0
   25.5775   14.9907   20.7518 O   0  0  0  0  0  0  0  0  0  0  0  0
  2  1  1  6  0  0  0
  2  3  1  0  0  0  0
  2  5  1  0  0  0  0
  3  4  1  0  0  0  0
  3 10  1  0  0  0  0
  5  6  1  0  0  0  0
  6  7  1  0  0  0  0
  7  8  1  0  0  0  0
  8  9  1  0  0  0  0
M  END
>  <CHROM.1>
-179.91705605,-165.81363390,179.40881613,-179.67048889,179.38696801,28.83876703
15.58677324,20.78930350,-2.82840194,0.32995701,1.28274105

>  <Name>
ligand

>  <RI>
0

>  <Rbt.Current_Directory>
/home/itssahil/PROJECTS/Mol_Feturizer/New_Systems/rnas/3DIZ

>  <Rbt.Executable>
rbdock ($Id: //depot/dev/client3/rdock/2013.1/src/exe/rbdock.cxx#4 $)

>  <Rbt.Library>
libRbt.so (2013.1, Build901 2013/11/27)

>  <Rbt.Parameter_File>
/export/apps/rDock/src/rDock_2013.1_src/data/scripts/dock_solv.prm

>  <Rbt.Receptor>
prm/pocket_docking_7.prm

>  <SCORE>
-9.25121

>  <SCORE.INTER>
-7.73294

>  <SCORE.INTER.CONST>
1

>  <SCORE.INTER.POLAR>
0

>  <SCORE.INTER.ROT>
5

>  <SCORE.INTER.SOLV>
16.3929

>  <SCORE.INTER.VDW>
-17.5529

>  <SCORE.INTER.norm>
-0.773294

>  <SCORE.INTRA>
-1.51826

>  <SCORE.INTRA.DIHEDRAL>
-1.44107

>  <SCORE.INTRA.DIHEDRAL.0>
3.67053

>  <SCORE.INTRA.POLAR>
0

>  <SCORE.INTRA.POLAR.0>
0

>  <SCORE.INTRA.REPUL>
0

>  <SCORE.INTRA.REPUL.0>
0

>  <SCORE.INTRA.SOLV>
-1.69677

>  <SCORE.INTRA.SOLV.lig_0>
-32.0553

>  <SCORE.INTRA.VDW>
0.0506564

>  <SCORE.INTRA.VDW.0>
-0.571921

>  <SCORE.INTRA.norm>
-0.151826

>  <SCORE.RESTR>
0

>  <SCORE.RESTR.CAVITY>
0

>  <SCORE.RESTR.norm>
0

>  <SCORE.SYSTEM>
0

>  <SCORE.SYSTEM.CONST>
0

>  <SCORE.SYSTEM.DIHEDRAL>
0

>  <SCORE.SYSTEM.SOLV>
0

>  <SCORE.SYSTEM.norm>
0

>  <SCORE.heavy>
10

>  <SCORE.norm>
-0.925121

>  <RMSD>
5.443

$$$$
ligand
 OpenBabel11021811473D
libRbt.so/2013.1/901 2013/11/27
 10  9  0  0  0  0  0  0  0  0999 V2000
   27.1028   14.2415   18.6256 N   0  0  0  0  0  0  0  0  0  0  0  0
   27.7751   14.4997   19.9343 C   0  0  2  0  0  0  0  0  0  0  0  0
   26.7751   14.9077   21.0078 C   0  0  0  0  0  0  0  0  0  0  0  0
   25.5750   14.9827   20.7674 O   0  0  0  0  0  0  0  0  0  0  0  0
   28.8771   15.5518   19.7856 C   0  0  0  0  0  0  0  0  0  0  0  0
   29.8133   15.6292   20.9793 C   0  0  0  0  0  0  0  0  0  0  0  0
   30.8934   16.6851   20.7795 C   0  0  0  0  0  0  0  0  0  0  0  0
   31.8340   16.7240   21.9728 C   0  0  0  0  0  0  0  0  0  0  0  0
   32.8961   17.7840   21.8420 N   0  0  0  0  0  0  0  0  0  0  0  0
   27.1159   15.1484   22.1580 O   0  0  0  0  0  0  0  0  0  0  0  0
  2  1  1  6  0  0  0
  2  3  1  0  0  0  0
  2  5  1  0  0  0  0
  3  4  1  0  0  0  0
  3 10  1  0  0  0  0
  5  6  1  0  0  0  0
  6  7  1  0  0  0  0
  7  8  1  0  0  0  0
  8  9  1  0  0  0  0
M  END
>  <CHROM.1>
0.71758443,-166.35064473,179.75579508,-178.82475472,-178.20374194,28.83265225
15.61800556,20.80722075,-2.82399752,0.33584133,1.26667751

>  <Name>
ligand

>  <RI>
0

>  <Rbt.Current_Directory>
/home/itssahil/PROJECTS/Mol_Feturizer/New_Systems/rnas/3DIZ

>  <Rbt.Executable>
rbdock ($Id: //depot/dev/client3/rdock/2013.1/src/exe/rbdock.cxx#4 $)

>  <Rbt.Library>
libRbt.so (2013.1, Build901 2013/11/27)

>  <Rbt.Parameter_File>
/export/apps/rDock/src/rDock_2013.1_src/data/scripts/dock_solv.prm

>  <Rbt.Receptor>
prm/pocket_docking_4.prm

>  <SCORE>
-9.29332

>  <SCORE.INTER>
-7.7402

>  <SCORE.INTER.CONST>
1

>  <SCORE.INTER.POLAR>
0

>  <SCORE.INTER.ROT>
5

>  <SCORE.INTER.SOLV>
16.2808

>  <SCORE.INTER.VDW>
-17.5204

>  <SCORE.INTER.norm>
-0.77402

>  <SCORE.INTRA>
-1.55311

>  <SCORE.INTRA.DIHEDRAL>
-1.47172

>  <SCORE.INTRA.DIHEDRAL.0>
3.67053

>  <SCORE.INTRA.POLAR>
0

>  <SCORE.INTRA.POLAR.0>
0

>  <SCORE.INTRA.REPUL>
0

>  <SCORE.INTRA.REPUL.0>
0

>  <SCORE.INTRA.SOLV>
-1.69035

>  <SCORE.INTRA.SOLV.lig_0>
-32.0553

>  <SCORE.INTRA.VDW>
0.0279238

>  <SCORE.INTRA.VDW.0>
-0.571921

>  <SCORE.INTRA.norm>
-0.155311

>  <SCORE.RESTR>
0

>  <SCORE.RESTR.CAVITY>
0

>  <SCORE.RESTR.norm>
0

>  <SCORE.SYSTEM>
0

>  <SCORE.SYSTEM.CONST>
0

>  <SCORE.SYSTEM.DIHEDRAL>
0

>  <SCORE.SYSTEM.SOLV>
0

>  <SCORE.SYSTEM.norm>
0

>  <SCORE.heavy>
10

>  <SCORE.norm>
-0.929332

>  <RMSD>
5.444

$$$$
ligand
 OpenBabel11021811473D
libRbt.so/2013.1/901 2013/11/27
 10  9  0  0  0  0  0  0  0  0999 V2000
   27.2500   14.1030   18.7041 N   0  0  0  0  0  0  0  0  0  0  0  0
   27.8558   14.4338   20.0288 C   0  0  2  0  0  0  0  0  0  0  0  0
   26.7988   14.8641   21.0372 C   0  0  0  0  0  0  0  0  0  0  0  0
   27.0977   15.1583   22.1895 O   0  0  0  0  0  0  0  0  0  0  0  0
   28.9400   15.5044   19.8830 C   0  0  0  0  0  0  0  0  0  0  0  0
   29.8932   15.5738   21.0638 C   0  0  0  0  0  0  0  0  0  0  0  0
   30.9694   16.6323   20.8566 C   0  0  0  0  0  0  0  0  0  0  0  0
   31.9098   16.6831   22.0495 C   0  0  0  0  0  0  0  0  0  0  0  0
   32.9761   17.7371   21.9052 N   0  0  0  0  0  0  0  0  0  0  0  0
   25.6164   14.9643   20.7391 O   0  0  0  0  0  0  0  0  0  0  0  0
  2  1  1  6  0  0  0
  2  3  1  0  0  0  0
  2  5  1  0  0  0  0
  3  4  1  0  0  0  0
  3 10  1  0  0  0  0
  5  6  1  0  0  0  0
  6  7  1  0  0  0  0
  7  8  1  0  0  0  0
  8  9  1  0  0  0  0
M  END
>  <CHROM.1>
178.94057088,-161.34546913,178.76651969,179.99365640,-178.76630870,28.89657172
15.56932959,20.86621663,-2.80570296,0.31682655,1.21613790

>  <Name>
ligand

>  <RI>
0

>  <Rbt.Current_Directory>
/home/itssahil/PROJECTS/Mol_Feturizer/New_Systems/rnas/3DIZ

>  <Rbt.Executable>
rbdock ($Id: //depot/dev/client3/rdock/2013.1/src/exe/rbdock.cxx#4 $)

>  <Rbt.Library>
libRbt.so (2013.1, Build901 2013/11/27)

>  <Rbt.Parameter_File>
/export/apps/rDock/src/rDock_2013.1_src/data/scripts/dock_solv.prm

>  <Rbt.Receptor>
prm/pocket_docking_5.prm

>  <SCORE>
-9.24222

>  <SCORE.INTER>
-7.84345

>  <SCORE.INTER.CONST>
1

>  <SCORE.INTER.POLAR>
0

>  <SCORE.INTER.ROT>
5

>  <SCORE.INTER.SOLV>
16.1417

>  <SCORE.INTER.VDW>
-17.5429

>  <SCORE.INTER.norm>
-0.784345

>  <SCORE.INTRA>
-1.39877

>  <SCORE.INTRA.DIHEDRAL>
-0.933587

>  <SCORE.INTRA.DIHEDRAL.0>
3.67053

>  <SCORE.INTRA.POLAR>
0

>  <SCORE.INTRA.POLAR.0>
0

>  <SCORE.INTRA.REPUL>
0

>  <SCORE.INTRA.REPUL.0>
0

>  <SCORE.INTRA.SOLV>
-1.68758

>  <SCORE.INTRA.SOLV.lig_0>
-32.0553

>  <SCORE.INTRA.VDW>
-0.0881862

>  <SCORE.INTRA.VDW.0>
-0.571921

>  <SCORE.INTRA.norm>
-0.139877

>  <SCORE.RESTR>
0

>  <SCORE.RESTR.CAVITY>
0

>  <SCORE.RESTR.norm>
0

>  <SCORE.SYSTEM>
0

>  <SCORE.SYSTEM.CONST>
0

>  <SCORE.SYSTEM.DIHEDRAL>
0

>  <SCORE.SYSTEM.SOLV>
0

>  <SCORE.SYSTEM.norm>
0

>  <SCORE.heavy>
10

>  <SCORE.norm>
-0.924222

>  <RMSD>
5.445

$$$$
ligand
 OpenBabel11021811473D
libRbt.so/2013.1/901 2013/11/27
 10  9  0  0  0  0  0  0  0  0999 V2000
   28.7488   15.4996   19.7175 N   0  0  0  0  0  0  0  0  0  0  0  0
   27.9796   14.8725   20.8339 C   0  0  2  0  0  0  0  0  0  0  0  0
   26.4778   15.0373   20.6424 C   0  0  0  0  0  0  0  0  0  0  0  0
   25.6761   14.5530   21.4337 O   0  0  0  0  0  0  0  0  0  0  0  0
   28.4228   15.4339   22.1873 C   0  0  0  0  0  0  0  0  0  0  0  0
   29.9269   15.4057   22.3977 C   0  0  0  0  0  0  0  0  0  0  0  0
   30.6091   16.6004   21.7430 C   0  0  0  0  0  0  0  0  0  0  0  0
   32.1094   16.5604   21.9829 C   0  0  0  0  0  0  0  0  0  0  0  0
   32.8138   17.7883   21.4680 N   0  0  0  0  0  0  0  0  0  0  0  0
   26.0060   15.6803   19.7145 O   0  0  0  0  0  0  0  0  0  0  0  0
  2  1  1  6  0  0  0
  2  3  1  0  0  0  0
  2  5  1  0  0  0  0
  3  4  1  0  0  0  0
  3 10  1  0  0  0  0
  5  6  1  0  0  0  0
  6  7  1  0  0  0  0
  7  8  1  0  0  0  0
  8  9  1  0  0  0  0
M  END
>  <CHROM.1>
177.69953154,-50.61431210,82.48545536,179.22922363,-174.53375953,28.83228305
15.74166251,21.20525784,-3.08329170,0.36902060,1.95542440

>  <Name>
ligand

>  <RI>
0

>  <Rbt.Current_Directory>
/home/itssahil/PROJECTS/Mol_Feturizer/New_Systems/rnas/3DIZ

>  <Rbt.Executable>
rbdock ($Id: //depot/dev/client3/rdock/2013.1/src/exe/rbdock.cxx#4 $)

>  <Rbt.Library>
libRbt.so (2013.1, Build901 2013/11/27)

>  <Rbt.Parameter_File>
/export/apps/rDock/src/rDock_2013.1_src/data/scripts/dock_solv.prm

>  <Rbt.Receptor>
prm/pocket_docking_8.prm

>  <SCORE>
-9.13094

>  <SCORE.INTER>
-9.80083

>  <SCORE.INTER.CONST>
1

>  <SCORE.INTER.POLAR>
0

>  <SCORE.INTER.ROT>
5

>  <SCORE.INTER.SOLV>
11.4873

>  <SCORE.INTER.VDW>
-17.2963

>  <SCORE.INTER.norm>
-0.980083

>  <SCORE.INTRA>
0.669894

>  <SCORE.INTRA.DIHEDRAL>
0.140972

>  <SCORE.INTRA.DIHEDRAL.0>
3.67053

>  <SCORE.INTRA.POLAR>
0

>  <SCORE.INTRA.POLAR.0>
0

>  <SCORE.INTRA.REPUL>
0

>  <SCORE.INTRA.REPUL.0>
0

>  <SCORE.INTRA.SOLV>
0.703759

>  <SCORE.INTRA.SOLV.lig_0>
-32.0553

>  <SCORE.INTRA.VDW>
0.247529

>  <SCORE.INTRA.VDW.0>
-0.571921

>  <SCORE.INTRA.norm>
0.0669894

>  <SCORE.RESTR>
0

>  <SCORE.RESTR.CAVITY>
0

>  <SCORE.RESTR.norm>
0

>  <SCORE.SYSTEM>
0

>  <SCORE.SYSTEM.CONST>
0

>  <SCORE.SYSTEM.DIHEDRAL>
0

>  <SCORE.SYSTEM.SOLV>
0

>  <SCORE.SYSTEM.norm>
0

>  <SCORE.heavy>
10

>  <SCORE.norm>
-0.913094

>  <RMSD>
5.445

$$$$
ligand
 OpenBabel11021811473D
libRbt.so/2013.1/901 2013/11/27
 10  9  0  0  0  0  0  0  0  0999 V2000
   27.0988   14.2471   18.6243 N   0  0  0  0  0  0  0  0  0  0  0  0
   27.7734   14.5016   19.9326 C   0  0  2  0  0  0  0  0  0  0  0  0
   26.7742   14.8994   21.0108 C   0  0  0  0  0  0  0  0  0  0  0  0
   25.5736   14.9734   20.7730 O   0  0  0  0  0  0  0  0  0  0  0  0
   28.8699   15.5596   19.7865 C   0  0  0  0  0  0  0  0  0  0  0  0
   29.8166   15.6265   20.9726 C   0  0  0  0  0  0  0  0  0  0  0  0
   30.8989   16.6796   20.7699 C   0  0  0  0  0  0  0  0  0  0  0  0
   31.8473   16.7108   21.9571 C   0  0  0  0  0  0  0  0  0  0  0  0
   32.9135   17.7662   21.8224 N   0  0  0  0  0  0  0  0  0  0  0  0
   27.1164   15.1324   22.1622 O   0  0  0  0  0  0  0  0  0  0  0  0
  2  1  1  6  0  0  0
  2  3  1  0  0  0  0
  2  5  1  0  0  0  0
  3  4  1  0  0  0  0
  3 10  1  0  0  0  0
  5  6  1  0  0  0  0
  6  7  1  0  0  0  0
  7  8  1  0  0  0  0
  8  9  1  0  0  0  0
M  END
>  <CHROM.1>
0.52351415,-165.81562915,179.21223493,-178.99274584,-178.30471113,28.83513210
15.61204297,20.80325907,-2.83150115,0.33734477,1.27561539

>  <Name>
ligand

>  <RI>
0

>  <Rbt.Current_Directory>
/home/itssahil/PROJECTS/Mol_Feturizer/New_Systems/rnas/3DIZ

>  <Rbt.Executable>
rbdock ($Id: //depot/dev/client3/rdock/2013.1/src/exe/rbdock.cxx#4 $)

>  <Rbt.Library>
libRbt.so (2013.1, Build901 2013/11/27)

>  <Rbt.Parameter_File>
/export/apps/rDock/src/rDock_2013.1_src/data/scripts/dock_solv.prm

>  <Rbt.Receptor>
prm/blind_docking_60.prm

>  <SCORE>
-9.29584

>  <SCORE.INTER>
-7.75098

>  <SCORE.INTER.CONST>
1

>  <SCORE.INTER.POLAR>
0

>  <SCORE.INTER.ROT>
5

>  <SCORE.INTER.SOLV>
16.3102

>  <SCORE.INTER.VDW>
-17.5374

>  <SCORE.INTER.norm>
-0.775098

>  <SCORE.INTRA>
-1.54486

>  <SCORE.INTRA.DIHEDRAL>
-1.41884

>  <SCORE.INTRA.DIHEDRAL.0>
3.67053

>  <SCORE.INTRA.POLAR>
0

>  <SCORE.INTRA.POLAR.0>
0

>  <SCORE.INTRA.REPUL>
0

>  <SCORE.INTRA.REPUL.0>
0

>  <SCORE.INTRA.SOLV>
-1.68939

>  <SCORE.INTRA.SOLV.lig_0>
-32.0553

>  <SCORE.INTRA.VDW>
0.00925324

>  <SCORE.INTRA.VDW.0>
-0.571921

>  <SCORE.INTRA.norm>
-0.154486

>  <SCORE.RESTR>
0

>  <SCORE.RESTR.CAVITY>
0

>  <SCORE.RESTR.norm>
0

>  <SCORE.SYSTEM>
0

>  <SCORE.SYSTEM.CONST>
0

>  <SCORE.SYSTEM.DIHEDRAL>
0

>  <SCORE.SYSTEM.SOLV>
0

>  <SCORE.SYSTEM.norm>
0

>  <SCORE.heavy>
10

>  <SCORE.norm>
-0.929584

>  <RMSD>
5.446

$$$$
ligand
 OpenBabel11021811473D
libRbt.so/2013.1/901 2013/11/27
 10  9  0  0  0  0  0  0  0  0999 V2000
   25.7041   15.0521   20.5391 N   0  0  0  0  0  0  0  0  0  0  0  0
   27.1197   15.2860   20.1236 C   0  0  2  0  0  0  0  0  0  0  0  0
   27.3968   14.7251   18.7352 C   0  0  0  0  0  0  0  0  0  0  0  0
   28.0812   15.3386   17.9235 O   0  0  0  0  0  0  0  0  0  0  0  0
   28.0949   14.7070   21.1517 C   0  0  0  0  0  0  0  0  0  0  0  0
   29.5424   15.0992   20.9096 C   0  0  0  0  0  0  0  0  0  0  0  0
   29.7284   16.6111   20.9409 C   0  0  0  0  0  0  0  0  0  0  0  0
   31.1836   16.9784   20.7013 C   0  0  0  0  0  0  0  0  0  0  0  0
   32.0864   16.5421   21.8253 N   0  0  0  0  0  0  0  0  0  0  0  0
   26.9782   13.6322   18.3786 O   0  0  0  0  0  0  0  0  0  0  0  0
  2  1  1  1  0  0  0
  2  3  1  0  0  0  0
  2  5  1  0  0  0  0
  3  4  1  0  0  0  0
  3 10  1  0  0  0  0
  5  6  1  0  0  0  0
  6  7  1  0  0  0  0
  7  8  1  0  0  0  0
  8  9  1  0  0  0  0
M  END
>  <CHROM.1>
139.06214954,-170.77537872,59.45625028,179.80593438,-67.11699753,28.58936979
15.38196867,20.08727313,2.65096658,-0.35568406,-1.73641553

>  <Name>
ligand

>  <RI>
0

>  <Rbt.Current_Directory>
/home/itssahil/PROJECTS/Mol_Feturizer/New_Systems/rnas/3DIZ

>  <Rbt.Executable>
rbdock ($Id: //depot/dev/client3/rdock/2013.1/src/exe/rbdock.cxx#4 $)

>  <Rbt.Library>
libRbt.so (2013.1, Build901 2013/11/27)

>  <Rbt.Parameter_File>
/export/apps/rDock/src/rDock_2013.1_src/data/scripts/dock_solv.prm

>  <Rbt.Receptor>
prm/pocket_docking_4.prm

>  <SCORE>
-8.57179

>  <SCORE.INTER>
-7.47118

>  <SCORE.INTER.CONST>
1

>  <SCORE.INTER.POLAR>
0

>  <SCORE.INTER.ROT>
5

>  <SCORE.INTER.SOLV>
17.3887

>  <SCORE.INTER.VDW>
-17.7103

>  <SCORE.INTER.norm>
-0.747118

>  <SCORE.INTRA>
-1.10061

>  <SCORE.INTRA.DIHEDRAL>
-1.71737

>  <SCORE.INTRA.DIHEDRAL.0>
3.67053

>  <SCORE.INTRA.POLAR>
0

>  <SCORE.INTRA.POLAR.0>
0

>  <SCORE.INTRA.REPUL>
0

>  <SCORE.INTRA.REPUL.0>
0

>  <SCORE.INTRA.SOLV>
-0.532724

>  <SCORE.INTRA.SOLV.lig_0>
-32.0553

>  <SCORE.INTRA.VDW>
0.0244338

>  <SCORE.INTRA.VDW.0>
-0.571921

>  <SCORE.INTRA.norm>
-0.110061

>  <SCORE.RESTR>
0

>  <SCORE.RESTR.CAVITY>
0

>  <SCORE.RESTR.norm>
0

>  <SCORE.SYSTEM>
0

>  <SCORE.SYSTEM.CONST>
0

>  <SCORE.SYSTEM.DIHEDRAL>
0

>  <SCORE.SYSTEM.SOLV>
0

>  <SCORE.SYSTEM.norm>
0

>  <SCORE.heavy>
10

>  <SCORE.norm>
-0.857179

>  <RMSD>
5.446

$$$$
ligand
 OpenBabel11021811473D
libRbt.so/2013.1/901 2013/11/27
 10  9  0  0  0  0  0  0  0  0999 V2000
   25.6791   14.8547   20.8030 N   0  0  0  0  0  0  0  0  0  0  0  0
   26.9603   15.5226   20.4237 C   0  0  2  0  0  0  0  0  0  0  0  0
   27.3991   15.1368   19.0174 C   0  0  0  0  0  0  0  0  0  0  0  0
   27.0545   14.0753   18.5095 O   0  0  0  0  0  0  0  0  0  0  0  0
   28.0604   15.2159   21.4430 C   0  0  0  0  0  0  0  0  0  0  0  0
   29.3415   15.9995   21.2140 C   0  0  0  0  0  0  0  0  0  0  0  0
   30.4348   15.5883   22.1922 C   0  0  0  0  0  0  0  0  0  0  0  0
   31.7252   16.3371   21.9016 C   0  0  0  0  0  0  0  0  0  0  0  0
   31.6174   17.8128   22.1832 N   0  0  0  0  0  0  0  0  0  0  0  0
   28.0852   15.8749   18.3235 O   0  0  0  0  0  0  0  0  0  0  0  0
  2  1  1  1  0  0  0
  2  3  1  0  0  0  0
  2  5  1  0  0  0  0
  3  4  1  0  0  0  0
  3 10  1  0  0  0  0
  5  6  1  0  0  0  0
  6  7  1  0  0  0  0
  7  8  1  0  0  0  0
  8  9  1  0  0  0  0
M  END
>  <CHROM.1>
-25.74975235,-172.86709639,-176.01708274,177.30442496,67.35455670,28.63557378
15.63102583,20.56365708,2.61581890,-0.38414755,-1.59679200

>  <Name>
ligand

>  <RI>
0

>  <Rbt.Current_Directory>
/home/itssahil/PROJECTS/Mol_Feturizer/New_Systems/rnas/3DIZ

>  <Rbt.Executable>
rbdock ($Id: //depot/dev/client3/rdock/2013.1/src/exe/rbdock.cxx#4 $)

>  <Rbt.Library>
libRbt.so (2013.1, Build901 2013/11/27)

>  <Rbt.Parameter_File>
/export/apps/rDock/src/rDock_2013.1_src/data/scripts/dock_solv.prm

>  <Rbt.Receptor>
prm/pocket_docking_6.prm

>  <SCORE>
-9.41759

>  <SCORE.INTER>
-8.02665

>  <SCORE.INTER.CONST>
1

>  <SCORE.INTER.POLAR>
0

>  <SCORE.INTER.ROT>
5

>  <SCORE.INTER.SOLV>
18.4116

>  <SCORE.INTER.VDW>
-18.4216

>  <SCORE.INTER.norm>
-0.802665

>  <SCORE.INTRA>
-1.39094

>  <SCORE.INTRA.DIHEDRAL>
-1.62604

>  <SCORE.INTRA.DIHEDRAL.0>
3.67053

>  <SCORE.INTRA.POLAR>
0

>  <SCORE.INTRA.POLAR.0>
0

>  <SCORE.INTRA.REPUL>
0

>  <SCORE.INTRA.REPUL.0>
0

>  <SCORE.INTRA.SOLV>
-0.840533

>  <SCORE.INTRA.SOLV.lig_0>
-32.0553

>  <SCORE.INTRA.VDW>
-0.157651

>  <SCORE.INTRA.VDW.0>
-0.571921

>  <SCORE.INTRA.norm>
-0.139094

>  <SCORE.RESTR>
0

>  <SCORE.RESTR.CAVITY>
0

>  <SCORE.RESTR.norm>
0

>  <SCORE.SYSTEM>
0

>  <SCORE.SYSTEM.CONST>
0

>  <SCORE.SYSTEM.DIHEDRAL>
0

>  <SCORE.SYSTEM.SOLV>
0

>  <SCORE.SYSTEM.norm>
0

>  <SCORE.heavy>
10

>  <SCORE.norm>
-0.941759

>  <RMSD>
5.446

$$$$
ligand
 OpenBabel11021811473D
libRbt.so/2013.1/901 2013/11/27
 10  9  0  0  0  0  0  0  0  0999 V2000
   27.1402   14.1158   18.6949 N   0  0  0  0  0  0  0  0  0  0  0  0
   27.7916   14.4381   20.0000 C   0  0  2  0  0  0  0  0  0  0  0  0
   26.7740   14.8929   21.0377 C   0  0  0  0  0  0  0  0  0  0  0  0
   25.5792   14.9648   20.7718 O   0  0  0  0  0  0  0  0  0  0  0  0
   28.8926   15.4860   19.8184 C   0  0  0  0  0  0  0  0  0  0  0  0
   29.8246   15.6065   21.0118 C   0  0  0  0  0  0  0  0  0  0  0  0
   30.8811   16.6826   20.7942 C   0  0  0  0  0  0  0  0  0  0  0  0
   31.8394   16.7408   21.9725 C   0  0  0  0  0  0  0  0  0  0  0  0
   32.8881   17.8108   21.8171 N   0  0  0  0  0  0  0  0  0  0  0  0
   27.0946   15.1764   22.1840 O   0  0  0  0  0  0  0  0  0  0  0  0
  2  1  1  6  0  0  0
  2  3  1  0  0  0  0
  2  5  1  0  0  0  0
  3  4  1  0  0  0  0
  3 10  1  0  0  0  0
  5  6  1  0  0  0  0
  6  7  1  0  0  0  0
  7  8  1  0  0  0  0
  8  9  1  0  0  0  0
M  END
>  <CHROM.1>
-0.01853435,-165.36181357,-178.70388879,-177.39763318,-178.82978906,28.83702783
15.59502236,20.83159113,-2.81181176,0.33176616,1.21666994

>  <Name>
ligand

>  <RI>
0

>  <Rbt.Current_Directory>
/home/itssahil/PROJECTS/Mol_Feturizer/New_Systems/rnas/3DIZ

>  <Rbt.Executable>
rbdock ($Id: //depot/dev/client3/rdock/2013.1/src/exe/rbdock.cxx#4 $)

>  <Rbt.Library>
libRbt.so (2013.1, Build901 2013/11/27)

>  <Rbt.Parameter_File>
/export/apps/rDock/src/rDock_2013.1_src/data/scripts/dock_solv.prm

>  <Rbt.Receptor>
prm/blind_docking_60.prm

>  <SCORE>
-9.3045

>  <SCORE.INTER>
-7.7712

>  <SCORE.INTER.CONST>
1

>  <SCORE.INTER.POLAR>
0

>  <SCORE.INTER.ROT>
5

>  <SCORE.INTER.SOLV>
16.2607

>  <SCORE.INTER.VDW>
-17.5344

>  <SCORE.INTER.norm>
-0.77712

>  <SCORE.INTRA>
-1.53329

>  <SCORE.INTRA.DIHEDRAL>
-1.34815

>  <SCORE.INTRA.DIHEDRAL.0>
3.67053

>  <SCORE.INTRA.POLAR>
0

>  <SCORE.INTRA.POLAR.0>
0

>  <SCORE.INTRA.REPUL>
0

>  <SCORE.INTRA.REPUL.0>
0

>  <SCORE.INTRA.SOLV>
-1.68857

>  <SCORE.INTRA.SOLV.lig_0>
-32.0553

>  <SCORE.INTRA.VDW>
-0.0149321

>  <SCORE.INTRA.VDW.0>
-0.571921

>  <SCORE.INTRA.norm>
-0.153329

>  <SCORE.RESTR>
0

>  <SCORE.RESTR.CAVITY>
0

>  <SCORE.RESTR.norm>
0

>  <SCORE.SYSTEM>
0

>  <SCORE.SYSTEM.CONST>
0

>  <SCORE.SYSTEM.DIHEDRAL>
0

>  <SCORE.SYSTEM.SOLV>
0

>  <SCORE.SYSTEM.norm>
0

>  <SCORE.heavy>
10

>  <SCORE.norm>
-0.93045

>  <RMSD>
5.447

$$$$
ligand
 OpenBabel11021811473D
libRbt.so/2013.1/901 2013/11/27
 10  9  0  0  0  0  0  0  0  0999 V2000
   27.1506   14.1319   18.6792 N   0  0  0  0  0  0  0  0  0  0  0  0
   27.7943   14.4470   19.9899 C   0  0  2  0  0  0  0  0  0  0  0  0
   26.7679   14.8741   21.0306 C   0  0  0  0  0  0  0  0  0  0  0  0
   27.0998   15.1552   22.1771 O   0  0  0  0  0  0  0  0  0  0  0  0
   28.8806   15.5126   19.8241 C   0  0  0  0  0  0  0  0  0  0  0  0
   29.8234   15.6141   21.0109 C   0  0  0  0  0  0  0  0  0  0  0  0
   30.8891   16.6811   20.7932 C   0  0  0  0  0  0  0  0  0  0  0  0
   31.8513   16.7271   21.9688 C   0  0  0  0  0  0  0  0  0  0  0  0
   32.9138   17.7828   21.8098 N   0  0  0  0  0  0  0  0  0  0  0  0
   25.5785   14.9847   20.7656 O   0  0  0  0  0  0  0  0  0  0  0  0
  2  1  1  6  0  0  0
  2  3  1  0  0  0  0
  2  5  1  0  0  0  0
  3  4  1  0  0  0  0
  3 10  1  0  0  0  0
  5  6  1  0  0  0  0
  6  7  1  0  0  0  0
  7  8  1  0  0  0  0
  8  9  1  0  0  0  0
M  END
>  <CHROM.1>
178.89487494,-164.31453139,179.65737703,-177.81582634,-179.14488390,28.84152803
15.59480995,20.82631793,-2.81742120,0.33129564,1.22890774

>  <Name>
ligand

>  <RI>
0

>  <Rbt.Current_Directory>
/home/itssahil/PROJECTS/Mol_Feturizer/New_Systems/rnas/3DIZ

>  <Rbt.Executable>
rbdock ($Id: //depot/dev/client3/rdock/2013.1/src/exe/rbdock.cxx#4 $)

>  <Rbt.Library>
libRbt.so (2013.1, Build901 2013/11/27)

>  <Rbt.Parameter_File>
/export/apps/rDock/src/rDock_2013.1_src/data/scripts/dock_solv.prm

>  <Rbt.Receptor>
prm/pocket_docking_7.prm

>  <SCORE>
-9.2509

>  <SCORE.INTER>
-7.7537

>  <SCORE.INTER.CONST>
1

>  <SCORE.INTER.POLAR>
0

>  <SCORE.INTER.ROT>
5

>  <SCORE.INTER.SOLV>
16.2625

>  <SCORE.INTER.VDW>
-17.5233

>  <SCORE.INTER.norm>
-0.77537

>  <SCORE.INTRA>
-1.4972

>  <SCORE.INTRA.DIHEDRAL>
-1.26824

>  <SCORE.INTRA.DIHEDRAL.0>
3.67053

>  <SCORE.INTRA.POLAR>
0

>  <SCORE.INTRA.POLAR.0>
0

>  <SCORE.INTRA.REPUL>
0

>  <SCORE.INTRA.REPUL.0>
0

>  <SCORE.INTRA.SOLV>
-1.69402

>  <SCORE.INTRA.SOLV.lig_0>
-32.0553

>  <SCORE.INTRA.VDW>
-0.0160634

>  <SCORE.INTRA.VDW.0>
-0.571921

>  <SCORE.INTRA.norm>
-0.14972

>  <SCORE.RESTR>
0

>  <SCORE.RESTR.CAVITY>
0

>  <SCORE.RESTR.norm>
0

>  <SCORE.SYSTEM>
0

>  <SCORE.SYSTEM.CONST>
0

>  <SCORE.SYSTEM.DIHEDRAL>
0

>  <SCORE.SYSTEM.SOLV>
0

>  <SCORE.SYSTEM.norm>
0

>  <SCORE.heavy>
10

>  <SCORE.norm>
-0.92509

>  <RMSD>
5.447

$$$$
ligand
 OpenBabel11021811473D
libRbt.so/2013.1/901 2013/11/27
 10  9  0  0  0  0  0  0  0  0999 V2000
   27.1051   14.2199   18.6192 N   0  0  0  0  0  0  0  0  0  0  0  0
   27.7699   14.4889   19.9296 C   0  0  2  0  0  0  0  0  0  0  0  0
   26.7606   14.8798   21.0008 C   0  0  0  0  0  0  0  0  0  0  0  0
   27.1112   15.1227   22.1504 O   0  0  0  0  0  0  0  0  0  0  0  0
   28.8545   15.5592   19.7838 C   0  0  0  0  0  0  0  0  0  0  0  0
   29.7927   15.6450   20.9754 C   0  0  0  0  0  0  0  0  0  0  0  0
   30.8434   16.7322   20.7871 C   0  0  0  0  0  0  0  0  0  0  0  0
   31.8100   16.7542   21.9598 C   0  0  0  0  0  0  0  0  0  0  0  0
   32.8536   17.8329   21.8333 N   0  0  0  0  0  0  0  0  0  0  0  0
   25.5670   14.9979   20.7593 O   0  0  0  0  0  0  0  0  0  0  0  0
  2  1  1  6  0  0  0
  2  3  1  0  0  0  0
  2  5  1  0  0  0  0
  3  4  1  0  0  0  0
  3 10  1  0  0  0  0
  5  6  1  0  0  0  0
  6  7  1  0  0  0  0
  7  8  1  0  0  0  0
  8  9  1  0  0  0  0
M  END
>  <CHROM.1>
179.01743137,-165.92104478,-179.44854971,-177.26910233,-178.85188009,28.81387818
15.62614340,20.80181278,-2.81893379,0.34452241,1.26244596

>  <Name>
ligand

>  <RI>
0

>  <Rbt.Current_Directory>
/home/itssahil/PROJECTS/Mol_Feturizer/New_Systems/rnas/3DIZ

>  <Rbt.Executable>
rbdock ($Id: //depot/dev/client3/rdock/2013.1/src/exe/rbdock.cxx#4 $)

>  <Rbt.Library>
libRbt.so (2013.1, Build901 2013/11/27)

>  <Rbt.Parameter_File>
/export/apps/rDock/src/rDock_2013.1_src/data/scripts/dock_solv.prm

>  <Rbt.Receptor>
prm/pocket_docking_8.prm

>  <SCORE>
-9.229

>  <SCORE.INTER>
-7.70222

>  <SCORE.INTER.CONST>
1

>  <SCORE.INTER.POLAR>
0

>  <SCORE.INTER.ROT>
5

>  <SCORE.INTER.SOLV>
16.2598

>  <SCORE.INTER.VDW>
-17.4881

>  <SCORE.INTER.norm>
-0.770222

>  <SCORE.INTRA>
-1.52677

>  <SCORE.INTRA.DIHEDRAL>
-1.42107

>  <SCORE.INTRA.DIHEDRAL.0>
3.67053

>  <SCORE.INTRA.POLAR>
0

>  <SCORE.INTRA.POLAR.0>
0

>  <SCORE.INTRA.REPUL>
0

>  <SCORE.INTRA.REPUL.0>
0

>  <SCORE.INTRA.SOLV>
-1.69708

>  <SCORE.INTRA.SOLV.lig_0>
-32.0553

>  <SCORE.INTRA.VDW>
0.0323008

>  <SCORE.INTRA.VDW.0>
-0.571921

>  <SCORE.INTRA.norm>
-0.152677

>  <SCORE.RESTR>
0

>  <SCORE.RESTR.CAVITY>
0

>  <SCORE.RESTR.norm>
0

>  <SCORE.SYSTEM>
0

>  <SCORE.SYSTEM.CONST>
0

>  <SCORE.SYSTEM.DIHEDRAL>
0

>  <SCORE.SYSTEM.SOLV>
0

>  <SCORE.SYSTEM.norm>
0

>  <SCORE.heavy>
10

>  <SCORE.norm>
-0.9229

>  <RMSD>
5.447

$$$$
ligand
 OpenBabel11021811473D
libRbt.so/2013.1/901 2013/11/27
 10  9  0  0  0  0  0  0  0  0999 V2000
   28.4254   14.2565   19.2723 N   0  0  0  0  0  0  0  0  0  0  0  0
   27.8726   14.5246   20.6339 C   0  0  2  0  0  0  0  0  0  0  0  0
   26.4455   15.0518   20.5662 C   0  0  0  0  0  0  0  0  0  0  0  0
   26.1278   15.9352   19.7774 O   0  0  0  0  0  0  0  0  0  0  0  0
   28.7744   15.4866   21.4113 C   0  0  0  0  0  0  0  0  0  0  0  0
   30.0979   14.8745   21.8372 C   0  0  0  0  0  0  0  0  0  0  0  0
   31.0447   15.9229   22.4081 C   0  0  0  0  0  0  0  0  0  0  0  0
   31.6248   16.7842   21.2983 C   0  0  0  0  0  0  0  0  0  0  0  0
   32.6110   17.8025   21.8075 N   0  0  0  0  0  0  0  0  0  0  0  0
   25.5506   14.6015   21.2686 O   0  0  0  0  0  0  0  0  0  0  0  0
  2  1  1  6  0  0  0
  2  3  1  0  0  0  0
  2  5  1  0  0  0  0
  3  4  1  0  0  0  0
  3 10  1  0  0  0  0
  5  6  1  0  0  0  0
  6  7  1  0  0  0  0
  7  8  1  0  0  0  0
  8  9  1  0  0  0  0
M  END
>  <CHROM.1>
-45.82052418,-70.66163505,170.98372081,-74.58978726,-177.72739206,28.81410591
15.53062241,21.02349718,-2.99691708,-0.37390241,-0.54431135

>  <Name>
ligand

>  <RI>
0

>  <Rbt.Current_Directory>
/home/itssahil/PROJECTS/Mol_Feturizer/New_Systems/rnas/3DIZ

>  <Rbt.Executable>
rbdock ($Id: //depot/dev/client3/rdock/2013.1/src/exe/rbdock.cxx#4 $)

>  <Rbt.Library>
libRbt.so (2013.1, Build901 2013/11/27)

>  <Rbt.Parameter_File>
/export/apps/rDock/src/rDock_2013.1_src/data/scripts/dock_solv.prm

>  <Rbt.Receptor>
prm/pocket_docking_3.prm

>  <SCORE>
-9.42965

>  <SCORE.INTER>
-8.96156

>  <SCORE.INTER.CONST>
1

>  <SCORE.INTER.POLAR>
0

>  <SCORE.INTER.ROT>
5

>  <SCORE.INTER.SOLV>
13.8506

>  <SCORE.INTER.VDW>
-17.5246

>  <SCORE.INTER.norm>
-0.896156

>  <SCORE.INTRA>
-0.468091

>  <SCORE.INTRA.DIHEDRAL>
-0.466133

>  <SCORE.INTRA.DIHEDRAL.0>
3.67053

>  <SCORE.INTRA.POLAR>
0

>  <SCORE.INTRA.POLAR.0>
0

>  <SCORE.INTRA.REPUL>
0

>  <SCORE.INTRA.REPUL.0>
0

>  <SCORE.INTRA.SOLV>
-0.611948

>  <SCORE.INTRA.SOLV.lig_0>
-32.0553

>  <SCORE.INTRA.VDW>
0.07095

>  <SCORE.INTRA.VDW.0>
-0.571921

>  <SCORE.INTRA.norm>
-0.0468091

>  <SCORE.RESTR>
0

>  <SCORE.RESTR.CAVITY>
0

>  <SCORE.RESTR.norm>
0

>  <SCORE.SYSTEM>
0

>  <SCORE.SYSTEM.CONST>
0

>  <SCORE.SYSTEM.DIHEDRAL>
0

>  <SCORE.SYSTEM.SOLV>
0

>  <SCORE.SYSTEM.norm>
0

>  <SCORE.heavy>
10

>  <SCORE.norm>
-0.942965

>  <RMSD>
5.448

$$$$
ligand
 OpenBabel11021811473D
libRbt.so/2013.1/901 2013/11/27
 10  9  0  0  0  0  0  0  0  0999 V2000
   28.7119   15.6086   19.7343 N   0  0  0  0  0  0  0  0  0  0  0  0
   27.9742   14.8989   20.8222 C   0  0  2  0  0  0  0  0  0  0  0  0
   26.4662   15.0337   20.6578 C   0  0  0  0  0  0  0  0  0  0  0  0
   25.6887   14.5283   21.4600 O   0  0  0  0  0  0  0  0  0  0  0  0
   28.4204   15.3946   22.2000 C   0  0  0  0  0  0  0  0  0  0  0  0
   29.9263   15.3747   22.3985 C   0  0  0  0  0  0  0  0  0  0  0  0
   30.5945   16.5837   21.7556 C   0  0  0  0  0  0  0  0  0  0  0  0
   32.0949   16.5598   21.9970 C   0  0  0  0  0  0  0  0  0  0  0  0
   32.7889   17.7873   21.4674 N   0  0  0  0  0  0  0  0  0  0  0  0
   25.9651   15.6724   19.7424 O   0  0  0  0  0  0  0  0  0  0  0  0
  2  1  1  6  0  0  0
  2  3  1  0  0  0  0
  2  5  1  0  0  0  0
  3  4  1  0  0  0  0
  3 10  1  0  0  0  0
  5  6  1  0  0  0  0
  6  7  1  0  0  0  0
  7  8  1  0  0  0  0
  8  9  1  0  0  0  0
M  END
>  <CHROM.1>
-179.36507259,-51.51136635,80.28642484,178.58894977,-175.78886241,28.81827823
15.74211325,21.21724167,-3.09742430,0.36950092,1.99051455

>  <Name>
ligand

>  <RI>
0

>  <Rbt.Current_Directory>
/home/itssahil/PROJECTS/Mol_Feturizer/New_Systems/rnas/3DIZ

>  <Rbt.Executable>
rbdock ($Id: //depot/dev/client3/rdock/2013.1/src/exe/rbdock.cxx#4 $)

>  <Rbt.Library>
libRbt.so (2013.1, Build901 2013/11/27)

>  <Rbt.Parameter_File>
/export/apps/rDock/src/rDock_2013.1_src/data/scripts/dock_solv.prm

>  <Rbt.Receptor>
prm/pocket_docking_5.prm

>  <SCORE>
-9.0099

>  <SCORE.INTER>
-9.58219

>  <SCORE.INTER.CONST>
1

>  <SCORE.INTER.POLAR>
0

>  <SCORE.INTER.ROT>
5

>  <SCORE.INTER.SOLV>
11.5452

>  <SCORE.INTER.VDW>
-17.1698

>  <SCORE.INTER.norm>
-0.958219

>  <SCORE.INTRA>
0.572288

>  <SCORE.INTRA.DIHEDRAL>
-0.265313

>  <SCORE.INTRA.DIHEDRAL.0>
3.67053

>  <SCORE.INTRA.POLAR>
0

>  <SCORE.INTRA.POLAR.0>
0

>  <SCORE.INTRA.REPUL>
0

>  <SCORE.INTRA.REPUL.0>
0

>  <SCORE.INTRA.SOLV>
0.729741

>  <SCORE.INTRA.SOLV.lig_0>
-32.0553

>  <SCORE.INTRA.VDW>
0.340074

>  <SCORE.INTRA.VDW.0>
-0.571921

>  <SCORE.INTRA.norm>
0.0572288

>  <SCORE.RESTR>
0

>  <SCORE.RESTR.CAVITY>
0

>  <SCORE.RESTR.norm>
0

>  <SCORE.SYSTEM>
0

>  <SCORE.SYSTEM.CONST>
0

>  <SCORE.SYSTEM.DIHEDRAL>
0

>  <SCORE.SYSTEM.SOLV>
0

>  <SCORE.SYSTEM.norm>
0

>  <SCORE.heavy>
10

>  <SCORE.norm>
-0.90099

>  <RMSD>
5.448

$$$$
ligand
 OpenBabel11021811473D
libRbt.so/2013.1/901 2013/11/27
 10  9  0  0  0  0  0  0  0  0999 V2000
   27.1546   14.1279   18.6732 N   0  0  0  0  0  0  0  0  0  0  0  0
   27.7915   14.4359   19.9889 C   0  0  2  0  0  0  0  0  0  0  0  0
   26.7613   14.8713   21.0225 C   0  0  0  0  0  0  0  0  0  0  0  0
   27.0861   15.1397   22.1741 O   0  0  0  0  0  0  0  0  0  0  0  0
   28.8886   15.4918   19.8323 C   0  0  0  0  0  0  0  0  0  0  0  0
   29.8120   15.5967   21.0340 C   0  0  0  0  0  0  0  0  0  0  0  0
   30.8748   16.6702   20.8347 C   0  0  0  0  0  0  0  0  0  0  0  0
   31.8274   16.7093   22.0184 C   0  0  0  0  0  0  0  0  0  0  0  0
   32.8915   17.7655   21.8740 N   0  0  0  0  0  0  0  0  0  0  0  0
   25.5764   15.0013   20.7468 O   0  0  0  0  0  0  0  0  0  0  0  0
  2  1  1  6  0  0  0
  2  3  1  0  0  0  0
  2  5  1  0  0  0  0
  3  4  1  0  0  0  0
  3 10  1  0  0  0  0
  5  6  1  0  0  0  0
  6  7  1  0  0  0  0
  7  8  1  0  0  0  0
  8  9  1  0  0  0  0
M  END
>  <CHROM.1>
178.40784545,-165.10611012,-179.37098949,-177.17982564,-179.48245030,28.83296391
15.58488840,20.84098508,-2.80566465,0.32540889,1.22610604

>  <Name>
ligand

>  <RI>
0

>  <Rbt.Current_Directory>
/home/itssahil/PROJECTS/Mol_Feturizer/New_Systems/rnas/3DIZ

>  <Rbt.Executable>
rbdock ($Id: //depot/dev/client3/rdock/2013.1/src/exe/rbdock.cxx#4 $)

>  <Rbt.Library>
libRbt.so (2013.1, Build901 2013/11/27)

>  <Rbt.Parameter_File>
/export/apps/rDock/src/rDock_2013.1_src/data/scripts/dock_solv.prm

>  <Rbt.Receptor>
prm/pocket_docking_3.prm

>  <SCORE>
-9.29315

>  <SCORE.INTER>
-7.77088

>  <SCORE.INTER.CONST>
1

>  <SCORE.INTER.POLAR>
0

>  <SCORE.INTER.ROT>
5

>  <SCORE.INTER.SOLV>
16.2639

>  <SCORE.INTER.VDW>
-17.5352

>  <SCORE.INTER.norm>
-0.777088

>  <SCORE.INTRA>
-1.52227

>  <SCORE.INTRA.DIHEDRAL>
-1.34142

>  <SCORE.INTRA.DIHEDRAL.0>
3.67053

>  <SCORE.INTRA.POLAR>
0

>  <SCORE.INTRA.POLAR.0>
0

>  <SCORE.INTRA.REPUL>
0

>  <SCORE.INTRA.REPUL.0>
0

>  <SCORE.INTRA.SOLV>
-1.69569

>  <SCORE.INTRA.SOLV.lig_0>
-32.0553

>  <SCORE.INTRA.VDW>
-0.00371942

>  <SCORE.INTRA.VDW.0>
-0.571921

>  <SCORE.INTRA.norm>
-0.152227

>  <SCORE.RESTR>
0

>  <SCORE.RESTR.CAVITY>
0

>  <SCORE.RESTR.norm>
0

>  <SCORE.SYSTEM>
0

>  <SCORE.SYSTEM.CONST>
0

>  <SCORE.SYSTEM.DIHEDRAL>
0

>  <SCORE.SYSTEM.SOLV>
0

>  <SCORE.SYSTEM.norm>
0

>  <SCORE.heavy>
10

>  <SCORE.norm>
-0.929315

>  <RMSD>
5.449

$$$$
ligand
 OpenBabel11021811473D
libRbt.so/2013.1/901 2013/11/27
 10  9  0  0  0  0  0  0  0  0999 V2000
   25.6226   14.9742   20.7172 N   0  0  0  0  0  0  0  0  0  0  0  0
   26.9411   15.5600   20.3301 C   0  0  2  0  0  0  0  0  0  0  0  0
   27.3870   15.0787   18.9558 C   0  0  0  0  0  0  0  0  0  0  0  0
   28.1370   15.7506   18.2561 O   0  0  0  0  0  0  0  0  0  0  0  0
   28.0062   15.2576   21.3872 C   0  0  0  0  0  0  0  0  0  0  0  0
   29.3321   15.9549   21.1358 C   0  0  0  0  0  0  0  0  0  0  0  0
   30.3817   15.5560   22.1658 C   0  0  0  0  0  0  0  0  0  0  0  0
   31.6866   16.2944   21.9169 C   0  0  0  0  0  0  0  0  0  0  0  0
   31.5672   17.7788   22.1429 N   0  0  0  0  0  0  0  0  0  0  0  0
   27.0446   13.9951   18.5023 O   0  0  0  0  0  0  0  0  0  0  0  0
  2  1  1  1  0  0  0
  2  3  1  0  0  0  0
  2  5  1  0  0  0  0
  3  4  1  0  0  0  0
  3 10  1  0  0  0  0
  5  6  1  0  0  0  0
  6  7  1  0  0  0  0
  7  8  1  0  0  0  0
  8  9  1  0  0  0  0
M  END
>  <CHROM.1>
153.58780257,-173.49392355,-176.54050329,-178.43920006,66.23645862,28.61150165
15.60708550,20.51440247,2.58001642,-0.33955139,-1.67172379

>  <Name>
ligand

>  <RI>
0

>  <Rbt.Current_Directory>
/home/itssahil/PROJECTS/Mol_Feturizer/New_Systems/rnas/3DIZ

>  <Rbt.Executable>
rbdock ($Id: //depot/dev/client3/rdock/2013.1/src/exe/rbdock.cxx#4 $)

>  <Rbt.Library>
libRbt.so (2013.1, Build901 2013/11/27)

>  <Rbt.Parameter_File>
/export/apps/rDock/src/rDock_2013.1_src/data/scripts/dock_solv.prm

>  <Rbt.Receptor>
prm/pocket_docking_4.prm

>  <SCORE>
-9.42752

>  <SCORE.INTER>
-7.95085

>  <SCORE.INTER.CONST>
1

>  <SCORE.INTER.POLAR>
0

>  <SCORE.INTER.ROT>
5

>  <SCORE.INTER.SOLV>
18.2259

>  <SCORE.INTER.VDW>
-18.3092

>  <SCORE.INTER.norm>
-0.795085

>  <SCORE.INTRA>
-1.47667

>  <SCORE.INTRA.DIHEDRAL>
-1.87259

>  <SCORE.INTRA.DIHEDRAL.0>
3.67053

>  <SCORE.INTRA.POLAR>
0

>  <SCORE.INTRA.POLAR.0>
0

>  <SCORE.INTRA.REPUL>
0

>  <SCORE.INTRA.REPUL.0>
0

>  <SCORE.INTRA.SOLV>
-0.816059

>  <SCORE.INTRA.SOLV.lig_0>
-32.0553

>  <SCORE.INTRA.VDW>
-0.132344

>  <SCORE.INTRA.VDW.0>
-0.571921

>  <SCORE.INTRA.norm>
-0.147667

>  <SCORE.RESTR>
0

>  <SCORE.RESTR.CAVITY>
0

>  <SCORE.RESTR.norm>
0

>  <SCORE.SYSTEM>
0

>  <SCORE.SYSTEM.CONST>
0

>  <SCORE.SYSTEM.DIHEDRAL>
0

>  <SCORE.SYSTEM.SOLV>
0

>  <SCORE.SYSTEM.norm>
0

>  <SCORE.heavy>
10

>  <SCORE.norm>
-0.942752

>  <RMSD>
5.449

$$$$
ligand
 OpenBabel11021811473D
libRbt.so/2013.1/901 2013/11/27
 10  9  0  0  0  0  0  0  0  0999 V2000
   27.1267   14.1665   18.6831 N   0  0  0  0  0  0  0  0  0  0  0  0
   27.7769   14.4563   19.9964 C   0  0  2  0  0  0  0  0  0  0  0  0
   26.7572   14.8765   21.0466 C   0  0  0  0  0  0  0  0  0  0  0  0
   27.0994   15.1750   22.1856 O   0  0  0  0  0  0  0  0  0  0  0  0
   28.8719   15.5149   19.8435 C   0  0  0  0  0  0  0  0  0  0  0  0
   29.8110   15.5994   21.0345 C   0  0  0  0  0  0  0  0  0  0  0  0
   30.8633   16.6849   20.8453 C   0  0  0  0  0  0  0  0  0  0  0  0
   31.8373   16.6982   22.0121 C   0  0  0  0  0  0  0  0  0  0  0  0
   32.8997   17.7565   21.8709 N   0  0  0  0  0  0  0  0  0  0  0  0
   25.5627   14.9640   20.7966 O   0  0  0  0  0  0  0  0  0  0  0  0
  2  1  1  6  0  0  0
  2  3  1  0  0  0  0
  2  5  1  0  0  0  0
  3  4  1  0  0  0  0
  3 10  1  0  0  0  0
  5  6  1  0  0  0  0
  6  7  1  0  0  0  0
  7  8  1  0  0  0  0
  8  9  1  0  0  0  0
M  END
>  <CHROM.1>
-178.95032819,-164.86172254,-178.84299658,-176.81274864,179.97155738,28.82735146
15.59285131,20.85293809,-2.81442835,0.32789128,1.23766934

>  <Name>
ligand

>  <RI>
0

>  <Rbt.Current_Directory>
/home/itssahil/PROJECTS/Mol_Feturizer/New_Systems/rnas/3DIZ

>  <Rbt.Executable>
rbdock ($Id: //depot/dev/client3/rdock/2013.1/src/exe/rbdock.cxx#4 $)

>  <Rbt.Library>
libRbt.so (2013.1, Build901 2013/11/27)

>  <Rbt.Parameter_File>
/export/apps/rDock/src/rDock_2013.1_src/data/scripts/dock_solv.prm

>  <Rbt.Receptor>
prm/pocket_docking_4.prm

>  <SCORE>
-9.26348

>  <SCORE.INTER>
-7.80667

>  <SCORE.INTER.CONST>
1

>  <SCORE.INTER.POLAR>
0

>  <SCORE.INTER.ROT>
5

>  <SCORE.INTER.SOLV>
16.2798

>  <SCORE.INTER.VDW>
-17.5644

>  <SCORE.INTER.norm>
-0.780667

>  <SCORE.INTRA>
-1.45681

>  <SCORE.INTRA.DIHEDRAL>
-1.29513

>  <SCORE.INTRA.DIHEDRAL.0>
3.67053

>  <SCORE.INTRA.POLAR>
0

>  <SCORE.INTRA.POLAR.0>
0

>  <SCORE.INTRA.REPUL>
0

>  <SCORE.INTRA.REPUL.0>
0

>  <SCORE.INTRA.SOLV>
-1.69493

>  <SCORE.INTRA.SOLV.lig_0>
-32.0553

>  <SCORE.INTRA.VDW>
0.0382248

>  <SCORE.INTRA.VDW.0>
-0.571921

>  <SCORE.INTRA.norm>
-0.145681

>  <SCORE.RESTR>
0

>  <SCORE.RESTR.CAVITY>
0

>  <SCORE.RESTR.norm>
0

>  <SCORE.SYSTEM>
0

>  <SCORE.SYSTEM.CONST>
0

>  <SCORE.SYSTEM.DIHEDRAL>
0

>  <SCORE.SYSTEM.SOLV>
0

>  <SCORE.SYSTEM.norm>
0

>  <SCORE.heavy>
10

>  <SCORE.norm>
-0.926348

>  <RMSD>
5.449

$$$$
ligand
 OpenBabel11021811473D
libRbt.so/2013.1/901 2013/11/27
 10  9  0  0  0  0  0  0  0  0999 V2000
   28.4480   14.3562   19.2056 N   0  0  0  0  0  0  0  0  0  0  0  0
   27.9181   14.5066   20.5941 C   0  0  2  0  0  0  0  0  0  0  0  0
   26.4727   14.9860   20.5941 C   0  0  0  0  0  0  0  0  0  0  0  0
   26.0665   15.7900   19.7621 O   0  0  0  0  0  0  0  0  0  0  0  0
   28.8044   15.4423   21.4200 C   0  0  0  0  0  0  0  0  0  0  0  0
   30.1997   14.8976   21.6727 C   0  0  0  0  0  0  0  0  0  0  0  0
   31.0765   15.9111   22.3976 C   0  0  0  0  0  0  0  0  0  0  0  0
   31.4264   17.0718   21.4809 C   0  0  0  0  0  0  0  0  0  0  0  0
   32.3853   18.0451   22.1147 N   0  0  0  0  0  0  0  0  0  0  0  0
   25.6490   14.5723   21.3987 O   0  0  0  0  0  0  0  0  0  0  0  0
  2  1  1  6  0  0  0
  2  3  1  0  0  0  0
  2  5  1  0  0  0  0
  3  4  1  0  0  0  0
  3 10  1  0  0  0  0
  5  6  1  0  0  0  0
  6  7  1  0  0  0  0
  7  8  1  0  0  0  0
  8  9  1  0  0  0  0
M  END
>  <CHROM.1>
-36.36411686,-65.74683766,175.31111477,-70.28267582,-175.26802285,28.80120131
15.56286082,21.06072200,-2.70516341,-0.12775212,0.37637502

>  <Name>
ligand

>  <RI>
0

>  <Rbt.Current_Directory>
/home/itssahil/PROJECTS/Mol_Feturizer/New_Systems/rnas/3DIZ

>  <Rbt.Executable>
rbdock ($Id: //depot/dev/client3/rdock/2013.1/src/exe/rbdock.cxx#4 $)

>  <Rbt.Library>
libRbt.so (2013.1, Build901 2013/11/27)

>  <Rbt.Parameter_File>
/export/apps/rDock/src/rDock_2013.1_src/data/scripts/dock_solv.prm

>  <Rbt.Receptor>
prm/pocket_docking_5.prm

>  <SCORE>
-9.791

>  <SCORE.INTER>
-9.06604

>  <SCORE.INTER.CONST>
1

>  <SCORE.INTER.POLAR>
0

>  <SCORE.INTER.ROT>
5

>  <SCORE.INTER.SOLV>
13.6129

>  <SCORE.INTER.VDW>
-17.515

>  <SCORE.INTER.norm>
-0.906604

>  <SCORE.INTRA>
-0.724956

>  <SCORE.INTRA.DIHEDRAL>
-1.36088

>  <SCORE.INTRA.DIHEDRAL.0>
3.67053

>  <SCORE.INTRA.POLAR>
0

>  <SCORE.INTRA.POLAR.0>
0

>  <SCORE.INTRA.REPUL>
0

>  <SCORE.INTRA.REPUL.0>
0

>  <SCORE.INTRA.SOLV>
-0.609985

>  <SCORE.INTRA.SOLV.lig_0>
-32.0553

>  <SCORE.INTRA.VDW>
0.260478

>  <SCORE.INTRA.VDW.0>
-0.571921

>  <SCORE.INTRA.norm>
-0.0724956

>  <SCORE.RESTR>
0

>  <SCORE.RESTR.CAVITY>
0

>  <SCORE.RESTR.norm>
0

>  <SCORE.SYSTEM>
0

>  <SCORE.SYSTEM.CONST>
0

>  <SCORE.SYSTEM.DIHEDRAL>
0

>  <SCORE.SYSTEM.SOLV>
0

>  <SCORE.SYSTEM.norm>
0

>  <SCORE.heavy>
10

>  <SCORE.norm>
-0.9791

>  <RMSD>
5.449

$$$$
ligand
 OpenBabel11021811473D
libRbt.so/2013.1/901 2013/11/27
 10  9  0  0  0  0  0  0  0  0999 V2000
   27.1202   14.1413   18.6809 N   0  0  0  0  0  0  0  0  0  0  0  0
   27.7719   14.4360   19.9923 C   0  0  2  0  0  0  0  0  0  0  0  0
   26.7545   14.8689   21.0396 C   0  0  0  0  0  0  0  0  0  0  0  0
   27.0968   15.1598   22.1805 O   0  0  0  0  0  0  0  0  0  0  0  0
   28.8729   15.4873   19.8326 C   0  0  0  0  0  0  0  0  0  0  0  0
   29.8007   15.5877   21.0312 C   0  0  0  0  0  0  0  0  0  0  0  0
   30.8463   16.6800   20.8433 C   0  0  0  0  0  0  0  0  0  0  0  0
   31.8154   16.7032   22.0140 C   0  0  0  0  0  0  0  0  0  0  0  0
   32.8553   17.7854   21.8869 N   0  0  0  0  0  0  0  0  0  0  0  0
   25.5624   14.9745   20.7853 O   0  0  0  0  0  0  0  0  0  0  0  0
  2  1  1  6  0  0  0
  2  3  1  0  0  0  0
  2  5  1  0  0  0  0
  3  4  1  0  0  0  0
  3 10  1  0  0  0  0
  5  6  1  0  0  0  0
  6  7  1  0  0  0  0
  7  8  1  0  0  0  0
  8  9  1  0  0  0  0
M  END
>  <CHROM.1>
-179.70263086,-165.66758945,-177.97394663,-176.43000417,-178.93181030,28.81648843
15.58627788,20.85007276,-2.80575448,0.32885901,1.22766041

>  <Name>
ligand

>  <RI>
0

>  <Rbt.Current_Directory>
/home/itssahil/PROJECTS/Mol_Feturizer/New_Systems/rnas/3DIZ

>  <Rbt.Executable>
rbdock ($Id: //depot/dev/client3/rdock/2013.1/src/exe/rbdock.cxx#4 $)

>  <Rbt.Library>
libRbt.so (2013.1, Build901 2013/11/27)

>  <Rbt.Parameter_File>
/export/apps/rDock/src/rDock_2013.1_src/data/scripts/dock_solv.prm

>  <Rbt.Receptor>
prm/pocket_docking_3.prm

>  <SCORE>
-9.26578

>  <SCORE.INTER>
-7.78812

>  <SCORE.INTER.CONST>
1

>  <SCORE.INTER.POLAR>
0

>  <SCORE.INTER.ROT>
5

>  <SCORE.INTER.SOLV>
16.2911

>  <SCORE.INTER.VDW>
-17.5558

>  <SCORE.INTER.norm>
-0.778812

>  <SCORE.INTRA>
-1.47766

>  <SCORE.INTRA.DIHEDRAL>
-1.3542

>  <SCORE.INTRA.DIHEDRAL.0>
3.67053

>  <SCORE.INTRA.POLAR>
0

>  <SCORE.INTRA.POLAR.0>
0

>  <SCORE.INTRA.REPUL>
0

>  <SCORE.INTRA.REPUL.0>
0

>  <SCORE.INTRA.SOLV>
-1.69651

>  <SCORE.INTRA.SOLV.lig_0>
-32.0553

>  <SCORE.INTRA.VDW>
0.0477006

>  <SCORE.INTRA.VDW.0>
-0.571921

>  <SCORE.INTRA.norm>
-0.147766

>  <SCORE.RESTR>
0

>  <SCORE.RESTR.CAVITY>
0

>  <SCORE.RESTR.norm>
0

>  <SCORE.SYSTEM>
0

>  <SCORE.SYSTEM.CONST>
0

>  <SCORE.SYSTEM.DIHEDRAL>
0

>  <SCORE.SYSTEM.SOLV>
0

>  <SCORE.SYSTEM.norm>
0

>  <SCORE.heavy>
10

>  <SCORE.norm>
-0.926578

>  <RMSD>
5.450

$$$$
ligand
 OpenBabel11021811473D
libRbt.so/2013.1/901 2013/11/27
 10  9  0  0  0  0  0  0  0  0999 V2000
   27.1355   14.2544   18.5941 N   0  0  0  0  0  0  0  0  0  0  0  0
   27.7898   14.4911   19.9159 C   0  0  2  0  0  0  0  0  0  0  0  0
   26.7707   14.8447   20.9909 C   0  0  0  0  0  0  0  0  0  0  0  0
   27.1117   15.0549   22.1498 O   0  0  0  0  0  0  0  0  0  0  0  0
   28.8676   15.5726   19.8076 C   0  0  0  0  0  0  0  0  0  0  0  0
   29.8124   15.6152   20.9964 C   0  0  0  0  0  0  0  0  0  0  0  0
   30.8485   16.7229   20.8520 C   0  0  0  0  0  0  0  0  0  0  0  0
   31.8077   16.7184   22.0310 C   0  0  0  0  0  0  0  0  0  0  0  0
   32.8491   17.8027   21.9379 N   0  0  0  0  0  0  0  0  0  0  0  0
   25.5782   14.9640   20.7442 O   0  0  0  0  0  0  0  0  0  0  0  0
  2  1  1  6  0  0  0
  2  3  1  0  0  0  0
  2  5  1  0  0  0  0
  3  4  1  0  0  0  0
  3 10  1  0  0  0  0
  5  6  1  0  0  0  0
  6  7  1  0  0  0  0
  7  8  1  0  0  0  0
  8  9  1  0  0  0  0
M  END
>  <CHROM.1>
178.86306948,-164.91007325,-178.95897755,-178.25008790,-179.69463071,28.82399124
15.60613876,20.82380660,-2.81255351,0.34744463,1.28826089

>  <Name>
ligand

>  <RI>
0

>  <Rbt.Current_Directory>
/home/itssahil/PROJECTS/Mol_Feturizer/New_Systems/rnas/3DIZ

>  <Rbt.Executable>
rbdock ($Id: //depot/dev/client3/rdock/2013.1/src/exe/rbdock.cxx#4 $)

>  <Rbt.Library>
libRbt.so (2013.1, Build901 2013/11/27)

>  <Rbt.Parameter_File>
/export/apps/rDock/src/rDock_2013.1_src/data/scripts/dock_solv.prm

>  <Rbt.Receptor>
prm/pocket_docking_6.prm

>  <SCORE>
-9.16834

>  <SCORE.INTER>
-7.65027

>  <SCORE.INTER.CONST>
1

>  <SCORE.INTER.POLAR>
0

>  <SCORE.INTER.ROT>
5

>  <SCORE.INTER.SOLV>
16.2325

>  <SCORE.INTER.VDW>
-17.4443

>  <SCORE.INTER.norm>
-0.765027

>  <SCORE.INTRA>
-1.51808

>  <SCORE.INTRA.DIHEDRAL>
-1.33765

>  <SCORE.INTRA.DIHEDRAL.0>
3.67053

>  <SCORE.INTRA.POLAR>
0

>  <SCORE.INTRA.POLAR.0>
0

>  <SCORE.INTRA.REPUL>
0

>  <SCORE.INTRA.REPUL.0>
0

>  <SCORE.INTRA.SOLV>
-1.69527

>  <SCORE.INTRA.SOLV.lig_0>
-32.0553

>  <SCORE.INTRA.VDW>
-0.00161859

>  <SCORE.INTRA.VDW.0>
-0.571921

>  <SCORE.INTRA.norm>
-0.151808

>  <SCORE.RESTR>
0

>  <SCORE.RESTR.CAVITY>
0

>  <SCORE.RESTR.norm>
0

>  <SCORE.SYSTEM>
0

>  <SCORE.SYSTEM.CONST>
0

>  <SCORE.SYSTEM.DIHEDRAL>
0

>  <SCORE.SYSTEM.SOLV>
0

>  <SCORE.SYSTEM.norm>
0

>  <SCORE.heavy>
10

>  <SCORE.norm>
-0.916834

>  <RMSD>
5.450

$$$$
ligand
 OpenBabel11021811473D
libRbt.so/2013.1/901 2013/11/27
 10  9  0  0  0  0  0  0  0  0999 V2000
   27.1735   14.1501   18.7204 N   0  0  0  0  0  0  0  0  0  0  0  0
   27.8087   14.4597   20.0365 C   0  0  2  0  0  0  0  0  0  0  0  0
   26.7768   14.8933   21.0691 C   0  0  0  0  0  0  0  0  0  0  0  0
   25.5838   14.9556   20.7928 O   0  0  0  0  0  0  0  0  0  0  0  0
   28.9038   15.5178   19.8805 C   0  0  0  0  0  0  0  0  0  0  0  0
   29.8445   15.6039   21.0701 C   0  0  0  0  0  0  0  0  0  0  0  0
   30.9174   16.6657   20.8632 C   0  0  0  0  0  0  0  0  0  0  0  0
   31.8577   16.7190   22.0562 C   0  0  0  0  0  0  0  0  0  0  0  0
   32.9547   17.7372   21.8872 N   0  0  0  0  0  0  0  0  0  0  0  0
   27.0838   15.1685   22.2211 O   0  0  0  0  0  0  0  0  0  0  0  0
  2  1  1  6  0  0  0
  2  3  1  0  0  0  0
  2  5  1  0  0  0  0
  3  4  1  0  0  0  0
  3 10  1  0  0  0  0
  5  6  1  0  0  0  0
  6  7  1  0  0  0  0
  7  8  1  0  0  0  0
  8  9  1  0  0  0  0
M  END
>  <CHROM.1>
0.24843551,-163.83852209,179.76655659,-179.16251650,178.87356543,28.85656654
15.59025716,20.88084549,-2.81581878,0.32507599,1.23382168

>  <Name>
ligand

>  <RI>
0

>  <Rbt.Current_Directory>
/home/itssahil/PROJECTS/Mol_Feturizer/New_Systems/rnas/3DIZ

>  <Rbt.Executable>
rbdock ($Id: //depot/dev/client3/rdock/2013.1/src/exe/rbdock.cxx#4 $)

>  <Rbt.Library>
libRbt.so (2013.1, Build901 2013/11/27)

>  <Rbt.Parameter_File>
/export/apps/rDock/src/rDock_2013.1_src/data/scripts/dock_solv.prm

>  <Rbt.Receptor>
prm/pocket_docking_8.prm

>  <SCORE>
-9.28243

>  <SCORE.INTER>
-7.78115

>  <SCORE.INTER.CONST>
1

>  <SCORE.INTER.POLAR>
0

>  <SCORE.INTER.ROT>
5

>  <SCORE.INTER.SOLV>
16.2041

>  <SCORE.INTER.VDW>
-17.5221

>  <SCORE.INTER.norm>
-0.778115

>  <SCORE.INTRA>
-1.50127

>  <SCORE.INTRA.DIHEDRAL>
-1.2184

>  <SCORE.INTRA.DIHEDRAL.0>
3.67053

>  <SCORE.INTRA.POLAR>
0

>  <SCORE.INTRA.POLAR.0>
0

>  <SCORE.INTRA.REPUL>
0

>  <SCORE.INTRA.REPUL.0>
0

>  <SCORE.INTRA.SOLV>
-1.68567

>  <SCORE.INTRA.SOLV.lig_0>
-32.0553

>  <SCORE.INTRA.VDW>
-0.049236

>  <SCORE.INTRA.VDW.0>
-0.571921

>  <SCORE.INTRA.norm>
-0.150127

>  <SCORE.RESTR>
0

>  <SCORE.RESTR.CAVITY>
0

>  <SCORE.RESTR.norm>
0

>  <SCORE.SYSTEM>
0

>  <SCORE.SYSTEM.CONST>
0

>  <SCORE.SYSTEM.DIHEDRAL>
0

>  <SCORE.SYSTEM.SOLV>
0

>  <SCORE.SYSTEM.norm>
0

>  <SCORE.heavy>
10

>  <SCORE.norm>
-0.928243

>  <RMSD>
5.450

$$$$
ligand
 OpenBabel11021811473D
libRbt.so/2013.1/901 2013/11/27
 10  9  0  0  0  0  0  0  0  0999 V2000
   27.1068   14.2068   18.6681 N   0  0  0  0  0  0  0  0  0  0  0  0
   27.7704   14.4758   19.9791 C   0  0  2  0  0  0  0  0  0  0  0  0
   26.7630   14.8912   21.0429 C   0  0  0  0  0  0  0  0  0  0  0  0
   25.5631   14.9503   20.7978 O   0  0  0  0  0  0  0  0  0  0  0  0
   28.8724   15.5277   19.8294 C   0  0  0  0  0  0  0  0  0  0  0  0
   29.8079   15.6070   21.0235 C   0  0  0  0  0  0  0  0  0  0  0  0
   30.8792   16.6728   20.8290 C   0  0  0  0  0  0  0  0  0  0  0  0
   31.8284   16.7034   22.0157 C   0  0  0  0  0  0  0  0  0  0  0  0
   32.9045   17.7477   21.8731 N   0  0  0  0  0  0  0  0  0  0  0  0
   27.0979   15.1539   22.1900 O   0  0  0  0  0  0  0  0  0  0  0  0
  2  1  1  6  0  0  0
  2  3  1  0  0  0  0
  2  5  1  0  0  0  0
  3  4  1  0  0  0  0
  3 10  1  0  0  0  0
  5  6  1  0  0  0  0
  6  7  1  0  0  0  0
  7  8  1  0  0  0  0
  8  9  1  0  0  0  0
M  END
>  <CHROM.1>
1.45556507,-165.85398496,-179.64114566,-178.21283319,-179.74805147,28.82605658
15.59642164,20.84663698,-2.82135175,0.33202698,1.25768013

>  <Name>
ligand

>  <RI>
0

>  <Rbt.Current_Directory>
/home/itssahil/PROJECTS/Mol_Feturizer/New_Systems/rnas/3DIZ

>  <Rbt.Executable>
rbdock ($Id: //depot/dev/client3/rdock/2013.1/src/exe/rbdock.cxx#4 $)

>  <Rbt.Library>
libRbt.so (2013.1, Build901 2013/11/27)

>  <Rbt.Parameter_File>
/export/apps/rDock/src/rDock_2013.1_src/data/scripts/dock_solv.prm

>  <Rbt.Receptor>
prm/pocket_docking_8.prm

>  <SCORE>
-9.31148

>  <SCORE.INTER>
-7.77737

>  <SCORE.INTER.CONST>
1

>  <SCORE.INTER.POLAR>
0

>  <SCORE.INTER.ROT>
5

>  <SCORE.INTER.SOLV>
16.3112

>  <SCORE.INTER.VDW>
-17.5553

>  <SCORE.INTER.norm>
-0.777737

>  <SCORE.INTRA>
-1.53411

>  <SCORE.INTRA.DIHEDRAL>
-1.42924

>  <SCORE.INTRA.DIHEDRAL.0>
3.67053

>  <SCORE.INTRA.POLAR>
0

>  <SCORE.INTRA.POLAR.0>
0

>  <SCORE.INTRA.REPUL>
0

>  <SCORE.INTRA.REPUL.0>
0

>  <SCORE.INTRA.SOLV>
-1.6898

>  <SCORE.INTRA.SOLV.lig_0>
-32.0553

>  <SCORE.INTRA.VDW>
0.0254114

>  <SCORE.INTRA.VDW.0>
-0.571921

>  <SCORE.INTRA.norm>
-0.153411

>  <SCORE.RESTR>
0

>  <SCORE.RESTR.CAVITY>
0

>  <SCORE.RESTR.norm>
0

>  <SCORE.SYSTEM>
0

>  <SCORE.SYSTEM.CONST>
0

>  <SCORE.SYSTEM.DIHEDRAL>
0

>  <SCORE.SYSTEM.SOLV>
0

>  <SCORE.SYSTEM.norm>
0

>  <SCORE.heavy>
10

>  <SCORE.norm>
-0.931148

>  <RMSD>
5.450

$$$$
ligand
 OpenBabel11021811473D
libRbt.so/2013.1/901 2013/11/27
 10  9  0  0  0  0  0  0  0  0999 V2000
   27.1427   14.2136   18.4941 N   0  0  0  0  0  0  0  0  0  0  0  0
   27.7826   14.4596   19.8213 C   0  0  2  0  0  0  0  0  0  0  0  0
   26.7587   14.8743   20.8695 C   0  0  0  0  0  0  0  0  0  0  0  0
   25.5805   15.0485   20.5775 O   0  0  0  0  0  0  0  0  0  0  0  0
   28.8993   15.5003   19.7063 C   0  0  0  0  0  0  0  0  0  0  0  0
   29.7883   15.5812   20.9354 C   0  0  0  0  0  0  0  0  0  0  0  0
   30.8614   16.6522   20.7840 C   0  0  0  0  0  0  0  0  0  0  0  0
   31.7577   16.6919   22.0108 C   0  0  0  0  0  0  0  0  0  0  0  0
   32.8080   17.7685   21.9293 N   0  0  0  0  0  0  0  0  0  0  0  0
   27.0553   15.0225   22.0472 O   0  0  0  0  0  0  0  0  0  0  0  0
  2  1  1  6  0  0  0
  2  3  1  0  0  0  0
  2  5  1  0  0  0  0
  3  4  1  0  0  0  0
  3 10  1  0  0  0  0
  5  6  1  0  0  0  0
  6  7  1  0  0  0  0
  7  8  1  0  0  0  0
  8  9  1  0  0  0  0
M  END
>  <CHROM.1>
-4.14075735,-167.42811498,-178.65901868,-178.66034311,-178.05492417,28.80987422
15.58398782,20.73856243,-2.78874020,0.32850196,1.26515081

>  <Name>
ligand

>  <RI>
0

>  <Rbt.Current_Directory>
/home/itssahil/PROJECTS/Mol_Feturizer/New_Systems/rnas/3DIZ

>  <Rbt.Executable>
rbdock ($Id: //depot/dev/client3/rdock/2013.1/src/exe/rbdock.cxx#4 $)

>  <Rbt.Library>
libRbt.so (2013.1, Build901 2013/11/27)

>  <Rbt.Parameter_File>
/export/apps/rDock/src/rDock_2013.1_src/data/scripts/dock_solv.prm

>  <Rbt.Receptor>
prm/pocket_docking_2.prm

>  <SCORE>
-9.16304

>  <SCORE.INTER>
-7.51646

>  <SCORE.INTER.CONST>
1

>  <SCORE.INTER.POLAR>
0

>  <SCORE.INTER.ROT>
5

>  <SCORE.INTER.SOLV>
16.3366

>  <SCORE.INTER.VDW>
-17.3899

>  <SCORE.INTER.norm>
-0.751646

>  <SCORE.INTRA>
-1.64658

>  <SCORE.INTRA.DIHEDRAL>
-1.5462

>  <SCORE.INTRA.DIHEDRAL.0>
3.67053

>  <SCORE.INTRA.POLAR>
0

>  <SCORE.INTRA.POLAR.0>
0

>  <SCORE.INTRA.REPUL>
0

>  <SCORE.INTRA.REPUL.0>
0

>  <SCORE.INTRA.SOLV>
-1.69166

>  <SCORE.INTRA.SOLV.lig_0>
-32.0553

>  <SCORE.INTRA.VDW>
-0.0276486

>  <SCORE.INTRA.VDW.0>
-0.571921

>  <SCORE.INTRA.norm>
-0.164658

>  <SCORE.RESTR>
0

>  <SCORE.RESTR.CAVITY>
0

>  <SCORE.RESTR.norm>
0

>  <SCORE.SYSTEM>
0

>  <SCORE.SYSTEM.CONST>
0

>  <SCORE.SYSTEM.DIHEDRAL>
0

>  <SCORE.SYSTEM.SOLV>
0

>  <SCORE.SYSTEM.norm>
0

>  <SCORE.heavy>
10

>  <SCORE.norm>
-0.916304

>  <RMSD>
5.454

$$$$
ligand
 OpenBabel11021811473D
libRbt.so/2013.1/901 2013/11/27
 10  9  0  0  0  0  0  0  0  0999 V2000
   27.1064   14.1657   18.6768 N   0  0  0  0  0  0  0  0  0  0  0  0
   27.7556   14.4337   19.9952 C   0  0  2  0  0  0  0  0  0  0  0  0
   26.7378   14.8580   21.0456 C   0  0  0  0  0  0  0  0  0  0  0  0
   27.0804   15.1454   22.1874 O   0  0  0  0  0  0  0  0  0  0  0  0
   28.8658   15.4784   19.8565 C   0  0  0  0  0  0  0  0  0  0  0  0
   29.7875   15.5544   21.0616 C   0  0  0  0  0  0  0  0  0  0  0  0
   30.8637   16.6176   20.8805 C   0  0  0  0  0  0  0  0  0  0  0  0
   31.8011   16.6425   22.0767 C   0  0  0  0  0  0  0  0  0  0  0  0
   32.8360   17.7328   21.9822 N   0  0  0  0  0  0  0  0  0  0  0  0
   25.5450   14.9600   20.7933 O   0  0  0  0  0  0  0  0  0  0  0  0
  2  1  1  6  0  0  0
  2  3  1  0  0  0  0
  2  5  1  0  0  0  0
  3  4  1  0  0  0  0
  3 10  1  0  0  0  0
  5  6  1  0  0  0  0
  6  7  1  0  0  0  0
  7  8  1  0  0  0  0
  8  9  1  0  0  0  0
M  END
>  <CHROM.1>
-178.68486067,-165.82912179,-179.36824268,-178.06589321,-176.64157511,28.80474463
15.56263410,20.87691072,-2.80114013,0.32022844,1.23932304

>  <Name>
ligand

>  <RI>
0

>  <Rbt.Current_Directory>
/home/itssahil/PROJECTS/Mol_Feturizer/New_Systems/rnas/3DIZ

>  <Rbt.Executable>
rbdock ($Id: //depot/dev/client3/rdock/2013.1/src/exe/rbdock.cxx#4 $)

>  <Rbt.Library>
libRbt.so (2013.1, Build901 2013/11/27)

>  <Rbt.Parameter_File>
/export/apps/rDock/src/rDock_2013.1_src/data/scripts/dock_solv.prm

>  <Rbt.Receptor>
prm/pocket_docking_3.prm

>  <SCORE>
-9.30091

>  <SCORE.INTER>
-7.83627

>  <SCORE.INTER.CONST>
1

>  <SCORE.INTER.POLAR>
0

>  <SCORE.INTER.ROT>
5

>  <SCORE.INTER.SOLV>
16.3221

>  <SCORE.INTER.VDW>
-17.5982

>  <SCORE.INTER.norm>
-0.783627

>  <SCORE.INTRA>
-1.46464

>  <SCORE.INTRA.DIHEDRAL>
-1.38208

>  <SCORE.INTRA.DIHEDRAL.0>
3.67053

>  <SCORE.INTRA.POLAR>
0

>  <SCORE.INTRA.POLAR.0>
0

>  <SCORE.INTRA.REPUL>
0

>  <SCORE.INTRA.REPUL.0>
0

>  <SCORE.INTRA.SOLV>
-1.696

>  <SCORE.INTRA.SOLV.lig_0>
-32.0553

>  <SCORE.INTRA.VDW>
0.0743988

>  <SCORE.INTRA.VDW.0>
-0.571921

>  <SCORE.INTRA.norm>
-0.146464

>  <SCORE.RESTR>
0

>  <SCORE.RESTR.CAVITY>
0

>  <SCORE.RESTR.norm>
0

>  <SCORE.SYSTEM>
0

>  <SCORE.SYSTEM.CONST>
0

>  <SCORE.SYSTEM.DIHEDRAL>
0

>  <SCORE.SYSTEM.SOLV>
0

>  <SCORE.SYSTEM.norm>
0

>  <SCORE.heavy>
10

>  <SCORE.norm>
-0.930091

>  <RMSD>
5.457

$$$$
ligand
 OpenBabel11021811473D
libRbt.so/2013.1/901 2013/11/27
 10  9  0  0  0  0  0  0  0  0999 V2000
   27.1426   14.1169   18.7020 N   0  0  0  0  0  0  0  0  0  0  0  0
   27.7766   14.4341   20.0169 C   0  0  2  0  0  0  0  0  0  0  0  0
   26.7430   14.8674   21.0479 C   0  0  0  0  0  0  0  0  0  0  0  0
   27.0673   15.1580   22.1942 O   0  0  0  0  0  0  0  0  0  0  0  0
   28.8674   15.4961   19.8568 C   0  0  0  0  0  0  0  0  0  0  0  0
   29.8142   15.5832   21.0415 C   0  0  0  0  0  0  0  0  0  0  0  0
   30.8753   16.6570   20.8359 C   0  0  0  0  0  0  0  0  0  0  0  0
   31.8292   16.7032   22.0183 C   0  0  0  0  0  0  0  0  0  0  0  0
   32.8916   17.7602   21.8677 N   0  0  0  0  0  0  0  0  0  0  0  0
   25.5551   14.9738   20.7747 O   0  0  0  0  0  0  0  0  0  0  0  0
  2  1  1  6  0  0  0
  2  3  1  0  0  0  0
  2  5  1  0  0  0  0
  3  4  1  0  0  0  0
  3 10  1  0  0  0  0
  5  6  1  0  0  0  0
  6  7  1  0  0  0  0
  7  8  1  0  0  0  0
  8  9  1  0  0  0  0
M  END
>  <CHROM.1>
179.29659177,-163.39404813,-179.74376120,-178.67504860,-179.47556267,28.82263699
15.57891281,20.85670980,-2.81070564,0.32468336,1.22196116

>  <Name>
ligand

>  <RI>
0

>  <Rbt.Current_Directory>
/home/itssahil/PROJECTS/Mol_Feturizer/New_Systems/rnas/3DIZ

>  <Rbt.Executable>
rbdock ($Id: //depot/dev/client3/rdock/2013.1/src/exe/rbdock.cxx#4 $)

>  <Rbt.Library>
libRbt.so (2013.1, Build901 2013/11/27)

>  <Rbt.Parameter_File>
/export/apps/rDock/src/rDock_2013.1_src/data/scripts/dock_solv.prm

>  <Rbt.Receptor>
prm/pocket_docking_5.prm

>  <SCORE>
-9.30829

>  <SCORE.INTER>
-7.83819

>  <SCORE.INTER.CONST>
1

>  <SCORE.INTER.POLAR>
0

>  <SCORE.INTER.ROT>
5

>  <SCORE.INTER.SOLV>
16.2838

>  <SCORE.INTER.VDW>
-17.5867

>  <SCORE.INTER.norm>
-0.783819

>  <SCORE.INTRA>
-1.4701

>  <SCORE.INTRA.DIHEDRAL>
-1.17915

>  <SCORE.INTRA.DIHEDRAL.0>
3.67053

>  <SCORE.INTRA.POLAR>
0

>  <SCORE.INTRA.POLAR.0>
0

>  <SCORE.INTRA.REPUL>
0

>  <SCORE.INTRA.REPUL.0>
0

>  <SCORE.INTRA.SOLV>
-1.69212

>  <SCORE.INTRA.SOLV.lig_0>
-32.0553

>  <SCORE.INTRA.VDW>
-0.0344621

>  <SCORE.INTRA.VDW.0>
-0.571921

>  <SCORE.INTRA.norm>
-0.14701

>  <SCORE.RESTR>
0

>  <SCORE.RESTR.CAVITY>
0

>  <SCORE.RESTR.norm>
0

>  <SCORE.SYSTEM>
0

>  <SCORE.SYSTEM.CONST>
0

>  <SCORE.SYSTEM.DIHEDRAL>
0

>  <SCORE.SYSTEM.SOLV>
0

>  <SCORE.SYSTEM.norm>
0

>  <SCORE.heavy>
10

>  <SCORE.norm>
-0.930829

>  <RMSD>
5.457

$$$$
ligand
 OpenBabel11021811473D
libRbt.so/2013.1/901 2013/11/27
 10  9  0  0  0  0  0  0  0  0999 V2000
   27.0872   14.1595   18.7064 N   0  0  0  0  0  0  0  0  0  0  0  0
   27.7528   14.4283   20.0165 C   0  0  2  0  0  0  0  0  0  0  0  0
   26.7486   14.8563   21.0784 C   0  0  0  0  0  0  0  0  0  0  0  0
   25.5459   14.8919   20.8426 O   0  0  0  0  0  0  0  0  0  0  0  0
   28.8634   15.4704   19.8628 C   0  0  0  0  0  0  0  0  0  0  0  0
   29.7944   15.5526   21.0602 C   0  0  0  0  0  0  0  0  0  0  0  0
   30.8437   16.6431   20.8833 C   0  0  0  0  0  0  0  0  0  0  0  0
   31.7997   16.6657   22.0646 C   0  0  0  0  0  0  0  0  0  0  0  0
   32.8306   17.7587   21.9579 N   0  0  0  0  0  0  0  0  0  0  0  0
   27.0895   15.1532   22.2154 O   0  0  0  0  0  0  0  0  0  0  0  0
  2  1  1  6  0  0  0
  2  3  1  0  0  0  0
  2  5  1  0  0  0  0
  3  4  1  0  0  0  0
  3 10  1  0  0  0  0
  5  6  1  0  0  0  0
  6  7  1  0  0  0  0
  7  8  1  0  0  0  0
  8  9  1  0  0  0  0
M  END
>  <CHROM.1>
3.32263311,-166.19645462,-177.56120137,-177.51240502,-178.12161841,28.80240883
15.56096606,20.89050105,-2.80758817,0.33132707,1.24177361

>  <Name>
ligand

>  <RI>
0

>  <Rbt.Current_Directory>
/home/itssahil/PROJECTS/Mol_Feturizer/New_Systems/rnas/3DIZ

>  <Rbt.Executable>
rbdock ($Id: //depot/dev/client3/rdock/2013.1/src/exe/rbdock.cxx#4 $)

>  <Rbt.Library>
libRbt.so (2013.1, Build901 2013/11/27)

>  <Rbt.Parameter_File>
/export/apps/rDock/src/rDock_2013.1_src/data/scripts/dock_solv.prm

>  <Rbt.Receptor>
prm/pocket_docking_8.prm

>  <SCORE>
-9.30738

>  <SCORE.INTER>
-7.81917

>  <SCORE.INTER.CONST>
1

>  <SCORE.INTER.POLAR>
0

>  <SCORE.INTER.ROT>
5

>  <SCORE.INTER.SOLV>
16.3518

>  <SCORE.INTER.VDW>
-17.5967

>  <SCORE.INTER.norm>
-0.781917

>  <SCORE.INTRA>
-1.4882

>  <SCORE.INTRA.DIHEDRAL>
-1.41914

>  <SCORE.INTRA.DIHEDRAL.0>
3.67053

>  <SCORE.INTRA.POLAR>
0

>  <SCORE.INTRA.POLAR.0>
0

>  <SCORE.INTRA.REPUL>
0

>  <SCORE.INTRA.REPUL.0>
0

>  <SCORE.INTRA.SOLV>
-1.69067

>  <SCORE.INTRA.SOLV.lig_0>
-32.0553

>  <SCORE.INTRA.VDW>
0.0667066

>  <SCORE.INTRA.VDW.0>
-0.571921

>  <SCORE.INTRA.norm>
-0.14882

>  <SCORE.RESTR>
0

>  <SCORE.RESTR.CAVITY>
0

>  <SCORE.RESTR.norm>
0

>  <SCORE.SYSTEM>
0

>  <SCORE.SYSTEM.CONST>
0

>  <SCORE.SYSTEM.DIHEDRAL>
0

>  <SCORE.SYSTEM.SOLV>
0

>  <SCORE.SYSTEM.norm>
0

>  <SCORE.heavy>
10

>  <SCORE.norm>
-0.930738

>  <RMSD>
5.458

$$$$
ligand
 OpenBabel11021811473D
libRbt.so/2013.1/901 2013/11/27
 10  9  0  0  0  0  0  0  0  0999 V2000
   27.1009   14.1771   18.6946 N   0  0  0  0  0  0  0  0  0  0  0  0
   27.7555   14.4440   20.0105 C   0  0  2  0  0  0  0  0  0  0  0  0
   26.7428   14.8716   21.0644 C   0  0  0  0  0  0  0  0  0  0  0  0
   25.5429   14.9169   20.8158 O   0  0  0  0  0  0  0  0  0  0  0  0
   28.8681   15.4856   19.8673 C   0  0  0  0  0  0  0  0  0  0  0  0
   29.7984   15.5550   21.0662 C   0  0  0  0  0  0  0  0  0  0  0  0
   30.8750   16.6173   20.8821 C   0  0  0  0  0  0  0  0  0  0  0  0
   31.8046   16.6541   22.0840 C   0  0  0  0  0  0  0  0  0  0  0  0
   32.8659   17.7164   21.9662 N   0  0  0  0  0  0  0  0  0  0  0  0
   27.0731   15.1585   22.2070 O   0  0  0  0  0  0  0  0  0  0  0  0
  2  1  1  6  0  0  0
  2  3  1  0  0  0  0
  2  5  1  0  0  0  0
  3  4  1  0  0  0  0
  3 10  1  0  0  0  0
  5  6  1  0  0  0  0
  6  7  1  0  0  0  0
  7  8  1  0  0  0  0
  8  9  1  0  0  0  0
M  END
>  <CHROM.1>
2.82607165,-165.54584640,-179.24913185,-179.17426539,-178.43289232,28.80929874
15.56273913,20.88729872,-2.80883720,0.32284919,1.24581413

>  <Name>
ligand

>  <RI>
0

>  <Rbt.Current_Directory>
/home/itssahil/PROJECTS/Mol_Feturizer/New_Systems/rnas/3DIZ

>  <Rbt.Executable>
rbdock ($Id: //depot/dev/client3/rdock/2013.1/src/exe/rbdock.cxx#4 $)

>  <Rbt.Library>
libRbt.so (2013.1, Build901 2013/11/27)

>  <Rbt.Parameter_File>
/export/apps/rDock/src/rDock_2013.1_src/data/scripts/dock_solv.prm

>  <Rbt.Receptor>
prm/pocket_docking_6.prm

>  <SCORE>
-9.35182

>  <SCORE.INTER>
-7.84538

>  <SCORE.INTER.CONST>
1

>  <SCORE.INTER.POLAR>
0

>  <SCORE.INTER.ROT>
5

>  <SCORE.INTER.SOLV>
16.3417

>  <SCORE.INTER.VDW>
-17.6108

>  <SCORE.INTER.norm>
-0.784538

>  <SCORE.INTRA>
-1.50645

>  <SCORE.INTRA.DIHEDRAL>
-1.40222

>  <SCORE.INTRA.DIHEDRAL.0>
3.67053

>  <SCORE.INTRA.POLAR>
0

>  <SCORE.INTRA.POLAR.0>
0

>  <SCORE.INTRA.REPUL>
0

>  <SCORE.INTRA.REPUL.0>
0

>  <SCORE.INTRA.SOLV>
-1.68939

>  <SCORE.INTRA.SOLV.lig_0>
-32.0553

>  <SCORE.INTRA.VDW>
0.0393578

>  <SCORE.INTRA.VDW.0>
-0.571921

>  <SCORE.INTRA.norm>
-0.150645

>  <SCORE.RESTR>
0

>  <SCORE.RESTR.CAVITY>
0

>  <SCORE.RESTR.norm>
0

>  <SCORE.SYSTEM>
0

>  <SCORE.SYSTEM.CONST>
0

>  <SCORE.SYSTEM.DIHEDRAL>
0

>  <SCORE.SYSTEM.SOLV>
0

>  <SCORE.SYSTEM.norm>
0

>  <SCORE.heavy>
10

>  <SCORE.norm>
-0.935182

>  <RMSD>
5.459

$$$$
ligand
 OpenBabel11021811473D
libRbt.so/2013.1/901 2013/11/27
 10  9  0  0  0  0  0  0  0  0999 V2000
   28.4255   14.4398   19.1520 N   0  0  0  0  0  0  0  0  0  0  0  0
   27.9069   14.5177   20.5507 C   0  0  2  0  0  0  0  0  0  0  0  0
   26.4509   14.9628   20.5851 C   0  0  0  0  0  0  0  0  0  0  0  0
   26.0005   15.7392   19.7497 O   0  0  0  0  0  0  0  0  0  0  0  0
   28.7800   15.4375   21.4079 C   0  0  0  0  0  0  0  0  0  0  0  0
   30.1620   14.8757   21.6945 C   0  0  0  0  0  0  0  0  0  0  0  0
   31.0540   15.9007   22.3839 C   0  0  0  0  0  0  0  0  0  0  0  0
   31.5458   16.9400   21.3899 C   0  0  0  0  0  0  0  0  0  0  0  0
   32.4916   17.9354   22.0091 N   0  0  0  0  0  0  0  0  0  0  0  0
   25.6621   14.5468   21.4228 O   0  0  0  0  0  0  0  0  0  0  0  0
  2  1  1  6  0  0  0
  2  3  1  0  0  0  0
  2  5  1  0  0  0  0
  3  4  1  0  0  0  0
  3 10  1  0  0  0  0
  5  6  1  0  0  0  0
  6  7  1  0  0  0  0
  7  8  1  0  0  0  0
  8  9  1  0  0  0  0
M  END
>  <CHROM.1>
-32.51667684,-69.28399731,172.21897771,-75.85600442,-176.96918925,28.80409803
15.53387669,21.03202906,-2.90407286,0.36327704,1.61285353

>  <Name>
ligand

>  <RI>
0

>  <Rbt.Current_Directory>
/home/itssahil/PROJECTS/Mol_Feturizer/New_Systems/rnas/3DIZ

>  <Rbt.Executable>
rbdock ($Id: //depot/dev/client3/rdock/2013.1/src/exe/rbdock.cxx#4 $)

>  <Rbt.Library>
libRbt.so (2013.1, Build901 2013/11/27)

>  <Rbt.Parameter_File>
/export/apps/rDock/src/rDock_2013.1_src/data/scripts/dock_solv.prm

>  <Rbt.Receptor>
prm/pocket_docking_6.prm

>  <SCORE>
-9.69193

>  <SCORE.INTER>
-9.19835

>  <SCORE.INTER.CONST>
1

>  <SCORE.INTER.POLAR>
0

>  <SCORE.INTER.ROT>
5

>  <SCORE.INTER.SOLV>
13.3457

>  <SCORE.INTER.VDW>
-17.5141

>  <SCORE.INTER.norm>
-0.919835

>  <SCORE.INTRA>
-0.493581

>  <SCORE.INTRA.DIHEDRAL>
-0.473985

>  <SCORE.INTRA.DIHEDRAL.0>
3.67053

>  <SCORE.INTRA.POLAR>
0

>  <SCORE.INTRA.POLAR.0>
0

>  <SCORE.INTRA.REPUL>
0

>  <SCORE.INTRA.REPUL.0>
0

>  <SCORE.INTRA.SOLV>
-0.630094

>  <SCORE.INTRA.SOLV.lig_0>
-32.0553

>  <SCORE.INTRA.VDW>
0.0584582

>  <SCORE.INTRA.VDW.0>
-0.571921

>  <SCORE.INTRA.norm>
-0.0493581

>  <SCORE.RESTR>
0

>  <SCORE.RESTR.CAVITY>
0

>  <SCORE.RESTR.norm>
0

>  <SCORE.SYSTEM>
0

>  <SCORE.SYSTEM.CONST>
0

>  <SCORE.SYSTEM.DIHEDRAL>
0

>  <SCORE.SYSTEM.SOLV>
0

>  <SCORE.SYSTEM.norm>
0

>  <SCORE.heavy>
10

>  <SCORE.norm>
-0.969193

>  <RMSD>
5.460

$$$$
ligand
 OpenBabel11021811473D
libRbt.so/2013.1/901 2013/11/27
 10  9  0  0  0  0  0  0  0  0999 V2000
   27.0704   14.1673   18.6807 N   0  0  0  0  0  0  0  0  0  0  0  0
   27.7282   14.4349   19.9949 C   0  0  2  0  0  0  0  0  0  0  0  0
   26.7181   14.8635   21.0509 C   0  0  0  0  0  0  0  0  0  0  0  0
   27.0666   15.1371   22.1942 O   0  0  0  0  0  0  0  0  0  0  0  0
   28.8407   15.4761   19.8483 C   0  0  0  0  0  0  0  0  0  0  0  0
   29.7693   15.5514   21.0482 C   0  0  0  0  0  0  0  0  0  0  0  0
   30.8456   16.6134   20.8608 C   0  0  0  0  0  0  0  0  0  0  0  0
   31.7935   16.6333   22.0487 C   0  0  0  0  0  0  0  0  0  0  0  0
   32.8320   17.7194   21.9462 N   0  0  0  0  0  0  0  0  0  0  0  0
   25.5261   14.9826   20.8019 O   0  0  0  0  0  0  0  0  0  0  0  0
  2  1  1  6  0  0  0
  2  3  1  0  0  0  0
  2  5  1  0  0  0  0
  3  4  1  0  0  0  0
  3 10  1  0  0  0  0
  5  6  1  0  0  0  0
  6  7  1  0  0  0  0
  7  8  1  0  0  0  0
  8  9  1  0  0  0  0
M  END
>  <CHROM.1>
-179.48688566,-165.86849214,-179.23542260,-177.80862705,-176.82625754,28.78599509
15.56180740,20.86900850,-2.80892691,0.31963791,1.24234568

>  <Name>
ligand

>  <RI>
0

>  <Rbt.Current_Directory>
/home/itssahil/PROJECTS/Mol_Feturizer/New_Systems/rnas/3DIZ

>  <Rbt.Executable>
rbdock ($Id: //depot/dev/client3/rdock/2013.1/src/exe/rbdock.cxx#4 $)

>  <Rbt.Library>
libRbt.so (2013.1, Build901 2013/11/27)

>  <Rbt.Parameter_File>
/export/apps/rDock/src/rDock_2013.1_src/data/scripts/dock_solv.prm

>  <Rbt.Receptor>
prm/pocket_docking_6.prm

>  <SCORE>
-9.29286

>  <SCORE.INTER>
-7.8104

>  <SCORE.INTER.CONST>
1

>  <SCORE.INTER.POLAR>
0

>  <SCORE.INTER.ROT>
5

>  <SCORE.INTER.SOLV>
16.393

>  <SCORE.INTER.VDW>
-17.6046

>  <SCORE.INTER.norm>
-0.78104

>  <SCORE.INTRA>
-1.48246

>  <SCORE.INTRA.DIHEDRAL>
-1.38793

>  <SCORE.INTRA.DIHEDRAL.0>
3.67053

>  <SCORE.INTRA.POLAR>
0

>  <SCORE.INTRA.POLAR.0>
0

>  <SCORE.INTRA.REPUL>
0

>  <SCORE.INTRA.REPUL.0>
0

>  <SCORE.INTRA.SOLV>
-1.69624

>  <SCORE.INTRA.SOLV.lig_0>
-32.0553

>  <SCORE.INTRA.VDW>
0.0596252

>  <SCORE.INTRA.VDW.0>
-0.571921

>  <SCORE.INTRA.norm>
-0.148246

>  <SCORE.RESTR>
0

>  <SCORE.RESTR.CAVITY>
0

>  <SCORE.RESTR.norm>
0

>  <SCORE.SYSTEM>
0

>  <SCORE.SYSTEM.CONST>
0

>  <SCORE.SYSTEM.DIHEDRAL>
0

>  <SCORE.SYSTEM.SOLV>
0

>  <SCORE.SYSTEM.norm>
0

>  <SCORE.heavy>
10

>  <SCORE.norm>
-0.929286

>  <RMSD>
5.462

$$$$
ligand
 OpenBabel11021811473D
libRbt.so/2013.1/901 2013/11/27
 10  9  0  0  0  0  0  0  0  0999 V2000
   27.1426   14.2014   18.5197 N   0  0  0  0  0  0  0  0  0  0  0  0
   27.7732   14.4771   19.8456 C   0  0  2  0  0  0  0  0  0  0  0  0
   26.7370   14.8789   20.8868 C   0  0  0  0  0  0  0  0  0  0  0  0
   25.5576   15.0315   20.5883 O   0  0  0  0  0  0  0  0  0  0  0  0
   28.8651   15.5428   19.7215 C   0  0  0  0  0  0  0  0  0  0  0  0
   29.7753   15.6294   20.9346 C   0  0  0  0  0  0  0  0  0  0  0  0
   30.8619   16.6811   20.7486 C   0  0  0  0  0  0  0  0  0  0  0  0
   31.7757   16.7298   21.9621 C   0  0  0  0  0  0  0  0  0  0  0  0
   32.8514   17.7769   21.8386 N   0  0  0  0  0  0  0  0  0  0  0  0
   27.0252   15.0376   22.0652 O   0  0  0  0  0  0  0  0  0  0  0  0
  2  1  1  6  0  0  0
  2  3  1  0  0  0  0
  2  5  1  0  0  0  0
  3  4  1  0  0  0  0
  3 10  1  0  0  0  0
  5  6  1  0  0  0  0
  6  7  1  0  0  0  0
  7  8  1  0  0  0  0
  8  9  1  0  0  0  0
M  END
>  <CHROM.1>
-4.69234904,-165.66665597,178.71873462,-178.86446418,-178.78314902,28.80260363
15.60105325,20.73214050,-2.80614691,0.33493216,1.26667574

>  <Name>
ligand

>  <RI>
0

>  <Rbt.Current_Directory>
/home/itssahil/PROJECTS/Mol_Feturizer/New_Systems/rnas/3DIZ

>  <Rbt.Executable>
rbdock ($Id: //depot/dev/client3/rdock/2013.1/src/exe/rbdock.cxx#4 $)

>  <Rbt.Library>
libRbt.so (2013.1, Build901 2013/11/27)

>  <Rbt.Parameter_File>
/export/apps/rDock/src/rDock_2013.1_src/data/scripts/dock_solv.prm

>  <Rbt.Receptor>
prm/pocket_docking_2.prm

>  <SCORE>
-9.14541

>  <SCORE.INTER>
-7.52816

>  <SCORE.INTER.CONST>
1

>  <SCORE.INTER.POLAR>
0

>  <SCORE.INTER.ROT>
5

>  <SCORE.INTER.SOLV>
16.3311

>  <SCORE.INTER.VDW>
-17.3958

>  <SCORE.INTER.norm>
-0.752816

>  <SCORE.INTRA>
-1.61831

>  <SCORE.INTRA.DIHEDRAL>
-1.38723

>  <SCORE.INTRA.DIHEDRAL.0>
3.67053

>  <SCORE.INTRA.POLAR>
0

>  <SCORE.INTRA.POLAR.0>
0

>  <SCORE.INTRA.REPUL>
0

>  <SCORE.INTRA.REPUL.0>
0

>  <SCORE.INTRA.SOLV>
-1.68873

>  <SCORE.INTRA.SOLV.lig_0>
-32.0553

>  <SCORE.INTRA.VDW>
-0.0803304

>  <SCORE.INTRA.VDW.0>
-0.571921

>  <SCORE.INTRA.norm>
-0.161831

>  <SCORE.RESTR>
0.00105591

>  <SCORE.RESTR.CAVITY>
0.00105591

>  <SCORE.RESTR.norm>
0.000105591

>  <SCORE.SYSTEM>
0

>  <SCORE.SYSTEM.CONST>
0

>  <SCORE.SYSTEM.DIHEDRAL>
0

>  <SCORE.SYSTEM.SOLV>
0

>  <SCORE.SYSTEM.norm>
0

>  <SCORE.heavy>
10

>  <SCORE.norm>
-0.914541

>  <RMSD>
5.463

$$$$
ligand
 OpenBabel11021811473D
libRbt.so/2013.1/901 2013/11/27
 10  9  0  0  0  0  0  0  0  0999 V2000
   28.4029   14.5520   19.1019 N   0  0  0  0  0  0  0  0  0  0  0  0
   27.8874   14.5637   20.5039 C   0  0  2  0  0  0  0  0  0  0  0  0
   26.4204   14.9690   20.5588 C   0  0  0  0  0  0  0  0  0  0  0  0
   25.6763   14.5559   21.4415 O   0  0  0  0  0  0  0  0  0  0  0  0
   28.7393   15.4731   21.3930 C   0  0  0  0  0  0  0  0  0  0  0  0
   30.1067   14.8992   21.7221 C   0  0  0  0  0  0  0  0  0  0  0  0
   30.9850   15.9154   22.4414 C   0  0  0  0  0  0  0  0  0  0  0  0
   31.4383   17.0062   21.4850 C   0  0  0  0  0  0  0  0  0  0  0  0
   32.3250   18.0284   22.1466 N   0  0  0  0  0  0  0  0  0  0  0  0
   25.9275   15.7426   19.7492 O   0  0  0  0  0  0  0  0  0  0  0  0
  2  1  1  6  0  0  0
  2  3  1  0  0  0  0
  2  5  1  0  0  0  0
  3  4  1  0  0  0  0
  3 10  1  0  0  0  0
  5  6  1  0  0  0  0
  6  7  1  0  0  0  0
  7  8  1  0  0  0  0
  8  9  1  0  0  0  0
M  END
>  <CHROM.1>
150.47368048,-72.70280420,172.08086837,-71.93782509,-179.30572999,28.74718766
15.57435019,21.05263927,-2.86513038,0.36424923,1.56962284

>  <Name>
ligand

>  <RI>
0

>  <Rbt.Current_Directory>
/home/itssahil/PROJECTS/Mol_Feturizer/New_Systems/rnas/3DIZ

>  <Rbt.Executable>
rbdock ($Id: //depot/dev/client3/rdock/2013.1/src/exe/rbdock.cxx#4 $)

>  <Rbt.Library>
libRbt.so (2013.1, Build901 2013/11/27)

>  <Rbt.Parameter_File>
/export/apps/rDock/src/rDock_2013.1_src/data/scripts/dock_solv.prm

>  <Rbt.Receptor>
prm/pocket_docking_3.prm

>  <SCORE>
-9.63255

>  <SCORE.INTER>
-9.09974

>  <SCORE.INTER.CONST>
1

>  <SCORE.INTER.POLAR>
0

>  <SCORE.INTER.ROT>
5

>  <SCORE.INTER.SOLV>
13.1626

>  <SCORE.INTER.VDW>
-17.3874

>  <SCORE.INTER.norm>
-0.909974

>  <SCORE.INTRA>
-0.532804

>  <SCORE.INTRA.DIHEDRAL>
-0.749854

>  <SCORE.INTRA.DIHEDRAL.0>
3.67053

>  <SCORE.INTRA.POLAR>
0

>  <SCORE.INTRA.POLAR.0>
0

>  <SCORE.INTRA.REPUL>
0

>  <SCORE.INTRA.REPUL.0>
0

>  <SCORE.INTRA.SOLV>
-0.642116

>  <SCORE.INTRA.SOLV.lig_0>
-32.0553

>  <SCORE.INTRA.VDW>
0.163182

>  <SCORE.INTRA.VDW.0>
-0.571921

>  <SCORE.INTRA.norm>
-0.0532804

>  <SCORE.RESTR>
0

>  <SCORE.RESTR.CAVITY>
0

>  <SCORE.RESTR.norm>
0

>  <SCORE.SYSTEM>
0

>  <SCORE.SYSTEM.CONST>
0

>  <SCORE.SYSTEM.DIHEDRAL>
0

>  <SCORE.SYSTEM.SOLV>
0

>  <SCORE.SYSTEM.norm>
0

>  <SCORE.heavy>
10

>  <SCORE.norm>
-0.963255

>  <RMSD>
5.463

$$$$
ligand
 OpenBabel11021811473D
libRbt.so/2013.1/901 2013/11/27
 10  9  0  0  0  0  0  0  0  0999 V2000
   27.8630   15.5865   22.6345 N   0  0  0  0  0  0  0  0  0  0  0  0
   27.9778   15.5344   21.1460 C   0  0  2  0  0  0  0  0  0  0  0  0
   26.6717   15.0950   20.4977 C   0  0  0  0  0  0  0  0  0  0  0  0
   26.5355   15.0841   19.2792 O   0  0  0  0  0  0  0  0  0  0  0  0
   29.1333   14.6266   20.7173 C   0  0  0  0  0  0  0  0  0  0  0  0
   30.4988   15.1269   21.1561 C   0  0  0  0  0  0  0  0  0  0  0  0
   30.8974   16.3972   20.4150 C   0  0  0  0  0  0  0  0  0  0  0  0
   32.2707   16.8712   20.8614 C   0  0  0  0  0  0  0  0  0  0  0  0
   32.2844   17.3531   22.2883 N   0  0  0  0  0  0  0  0  0  0  0  0
   25.7159   14.7072   21.1558 O   0  0  0  0  0  0  0  0  0  0  0  0
  2  1  1  1  0  0  0
  2  3  1  0  0  0  0
  2  5  1  0  0  0  0
  3  4  1  0  0  0  0
  3 10  1  0  0  0  0
  5  6  1  0  0  0  0
  6  7  1  0  0  0  0
  7  8  1  0  0  0  0
  8  9  1  0  0  0  0
M  END
>  <CHROM.1>
174.64187864,-64.04518597,-68.67941723,-179.49737815,-67.64510654,28.94483599
15.62571984,20.99887411,2.96194731,-0.29044458,-1.73652921

>  <Name>
ligand

>  <RI>
0

>  <Rbt.Current_Directory>
/home/itssahil/PROJECTS/Mol_Feturizer/New_Systems/rnas/3DIZ

>  <Rbt.Executable>
rbdock ($Id: //depot/dev/client3/rdock/2013.1/src/exe/rbdock.cxx#4 $)

>  <Rbt.Library>
libRbt.so (2013.1, Build901 2013/11/27)

>  <Rbt.Parameter_File>
/export/apps/rDock/src/rDock_2013.1_src/data/scripts/dock_solv.prm

>  <Rbt.Receptor>
prm/pocket_docking_3.prm

>  <SCORE>
-8.12564

>  <SCORE.INTER>
-7.65304

>  <SCORE.INTER.CONST>
1

>  <SCORE.INTER.POLAR>
0

>  <SCORE.INTER.ROT>
5

>  <SCORE.INTER.SOLV>
16.4274

>  <SCORE.INTER.VDW>
-17.5112

>  <SCORE.INTER.norm>
-0.765304

>  <SCORE.INTRA>
-0.472599

>  <SCORE.INTRA.DIHEDRAL>
-1.58685

>  <SCORE.INTRA.DIHEDRAL.0>
3.67053

>  <SCORE.INTRA.POLAR>
0

>  <SCORE.INTRA.POLAR.0>
0

>  <SCORE.INTRA.REPUL>
0

>  <SCORE.INTRA.REPUL.0>
0

>  <SCORE.INTRA.SOLV>
0.473252

>  <SCORE.INTRA.SOLV.lig_0>
-32.0553

>  <SCORE.INTRA.VDW>
0.0842007

>  <SCORE.INTRA.VDW.0>
-0.571921

>  <SCORE.INTRA.norm>
-0.0472599

>  <SCORE.RESTR>
0

>  <SCORE.RESTR.CAVITY>
0

>  <SCORE.RESTR.norm>
0

>  <SCORE.SYSTEM>
0

>  <SCORE.SYSTEM.CONST>
0

>  <SCORE.SYSTEM.DIHEDRAL>
0

>  <SCORE.SYSTEM.SOLV>
0

>  <SCORE.SYSTEM.norm>
0

>  <SCORE.heavy>
10

>  <SCORE.norm>
-0.812564

>  <RMSD>
5.463

$$$$
ligand
 OpenBabel11021811473D
libRbt.so/2013.1/901 2013/11/27
 10  9  0  0  0  0  0  0  0  0999 V2000
   25.9208   14.7376   20.7089 N   0  0  0  0  0  0  0  0  0  0  0  0
   26.8375   15.5687   19.8720 C   0  0  2  0  0  0  0  0  0  0  0  0
   27.3463   14.7971   18.6617 C   0  0  0  0  0  0  0  0  0  0  0  0
   26.9906   13.6440   18.4437 O   0  0  0  0  0  0  0  0  0  0  0  0
   28.0025   16.1075   20.7060 C   0  0  0  0  0  0  0  0  0  0  0  0
   28.8546   15.0211   21.3394 C   0  0  0  0  0  0  0  0  0  0  0  0
   29.9741   15.6085   22.1899 C   0  0  0  0  0  0  0  0  0  0  0  0
   30.9570   16.3807   21.3253 C   0  0  0  0  0  0  0  0  0  0  0  0
   32.0234   17.0727   22.1332 N   0  0  0  0  0  0  0  0  0  0  0  0
   28.1036   15.2974   17.8413 O   0  0  0  0  0  0  0  0  0  0  0  0
  2  1  1  1  0  0  0
  2  3  1  0  0  0  0
  2  5  1  0  0  0  0
  3  4  1  0  0  0  0
  3 10  1  0  0  0  0
  5  6  1  0  0  0  0
  6  7  1  0  0  0  0
  7  8  1  0  0  0  0
  8  9  1  0  0  0  0
M  END
>  <CHROM.1>
1.17547322,59.70864121,-178.35321122,-64.93339886,175.45640668,28.50259413
15.40466986,20.28782942,2.50849952,-0.32631683,-1.71646835

>  <Name>
ligand

>  <RI>
0

>  <Rbt.Current_Directory>
/home/itssahil/PROJECTS/Mol_Feturizer/New_Systems/rnas/3DIZ

>  <Rbt.Executable>
rbdock ($Id: //depot/dev/client3/rdock/2013.1/src/exe/rbdock.cxx#4 $)

>  <Rbt.Library>
libRbt.so (2013.1, Build901 2013/11/27)

>  <Rbt.Parameter_File>
/export/apps/rDock/src/rDock_2013.1_src/data/scripts/dock_solv.prm

>  <Rbt.Receptor>
prm/pocket_docking_8.prm

>  <SCORE>
-8.96888

>  <SCORE.INTER>
-8.51742

>  <SCORE.INTER.CONST>
1

>  <SCORE.INTER.POLAR>
0

>  <SCORE.INTER.ROT>
5

>  <SCORE.INTER.SOLV>
17.042

>  <SCORE.INTER.VDW>
-18.2923

>  <SCORE.INTER.norm>
-0.851742

>  <SCORE.INTRA>
-0.451467

>  <SCORE.INTRA.DIHEDRAL>
-1.97551

>  <SCORE.INTRA.DIHEDRAL.0>
3.67053

>  <SCORE.INTRA.POLAR>
0

>  <SCORE.INTRA.POLAR.0>
0

>  <SCORE.INTRA.REPUL>
0

>  <SCORE.INTRA.REPUL.0>
0

>  <SCORE.INTRA.SOLV>
-0.517263

>  <SCORE.INTRA.SOLV.lig_0>
-32.0553

>  <SCORE.INTRA.VDW>
0.794919

>  <SCORE.INTRA.VDW.0>
-0.571921

>  <SCORE.INTRA.norm>
-0.0451467

>  <SCORE.RESTR>
0

>  <SCORE.RESTR.CAVITY>
0

>  <SCORE.RESTR.norm>
0

>  <SCORE.SYSTEM>
0

>  <SCORE.SYSTEM.CONST>
0

>  <SCORE.SYSTEM.DIHEDRAL>
0

>  <SCORE.SYSTEM.SOLV>
0

>  <SCORE.SYSTEM.norm>
0

>  <SCORE.heavy>
10

>  <SCORE.norm>
-0.896888

>  <RMSD>
5.463

$$$$
ligand
 OpenBabel11021811473D
libRbt.so/2013.1/901 2013/11/27
 10  9  0  0  0  0  0  0  0  0999 V2000
   28.4282   14.3862   19.1974 N   0  0  0  0  0  0  0  0  0  0  0  0
   27.9000   14.5146   20.5888 C   0  0  2  0  0  0  0  0  0  0  0  0
   26.4529   14.9888   20.5979 C   0  0  0  0  0  0  0  0  0  0  0  0
   26.0214   15.7397   19.7298 O   0  0  0  0  0  0  0  0  0  0  0  0
   28.7843   15.4415   21.4267 C   0  0  0  0  0  0  0  0  0  0  0  0
   30.1903   14.9104   21.6471 C   0  0  0  0  0  0  0  0  0  0  0  0
   31.0629   15.9178   22.3855 C   0  0  0  0  0  0  0  0  0  0  0  0
   31.5270   17.0178   21.4450 C   0  0  0  0  0  0  0  0  0  0  0  0
   32.4816   17.9802   22.1016 N   0  0  0  0  0  0  0  0  0  0  0  0
   25.6525   14.6221   21.4475 O   0  0  0  0  0  0  0  0  0  0  0  0
  2  1  1  6  0  0  0
  2  3  1  0  0  0  0
  2  5  1  0  0  0  0
  3  4  1  0  0  0  0
  3 10  1  0  0  0  0
  5  6  1  0  0  0  0
  6  7  1  0  0  0  0
  7  8  1  0  0  0  0
  8  9  1  0  0  0  0
M  END
>  <CHROM.1>
-31.84085521,-64.64713073,175.28144647,-77.32525026,-175.48576108,28.80644243
15.55682234,21.05365165,-2.72619168,0.14731664,0.96770284

>  <Name>
ligand

>  <RI>
0

>  <Rbt.Current_Directory>
/home/itssahil/PROJECTS/Mol_Feturizer/New_Systems/rnas/3DIZ

>  <Rbt.Executable>
rbdock ($Id: //depot/dev/client3/rdock/2013.1/src/exe/rbdock.cxx#4 $)

>  <Rbt.Library>
libRbt.so (2013.1, Build901 2013/11/27)

>  <Rbt.Parameter_File>
/export/apps/rDock/src/rDock_2013.1_src/data/scripts/dock_solv.prm

>  <Rbt.Receptor>
prm/pocket_docking_3.prm

>  <SCORE>
-9.69599

>  <SCORE.INTER>
-9.09773

>  <SCORE.INTER.CONST>
1

>  <SCORE.INTER.POLAR>
0

>  <SCORE.INTER.ROT>
5

>  <SCORE.INTER.SOLV>
13.5067

>  <SCORE.INTER.VDW>
-17.5007

>  <SCORE.INTER.norm>
-0.909773

>  <SCORE.INTRA>
-0.598257

>  <SCORE.INTRA.DIHEDRAL>
-0.667806

>  <SCORE.INTRA.DIHEDRAL.0>
3.67053

>  <SCORE.INTRA.POLAR>
0

>  <SCORE.INTRA.POLAR.0>
0

>  <SCORE.INTRA.REPUL>
0

>  <SCORE.INTRA.REPUL.0>
0

>  <SCORE.INTRA.SOLV>
-0.651742

>  <SCORE.INTRA.SOLV.lig_0>
-32.0553

>  <SCORE.INTRA.VDW>
0.0615171

>  <SCORE.INTRA.VDW.0>
-0.571921

>  <SCORE.INTRA.norm>
-0.0598257

>  <SCORE.RESTR>
0

>  <SCORE.RESTR.CAVITY>
0

>  <SCORE.RESTR.norm>
0

>  <SCORE.SYSTEM>
0

>  <SCORE.SYSTEM.CONST>
0

>  <SCORE.SYSTEM.DIHEDRAL>
0

>  <SCORE.SYSTEM.SOLV>
0

>  <SCORE.SYSTEM.norm>
0

>  <SCORE.heavy>
10

>  <SCORE.norm>
-0.969599

>  <RMSD>
5.464

$$$$
ligand
 OpenBabel11021811473D
libRbt.so/2013.1/901 2013/11/27
 10  9  0  0  0  0  0  0  0  0999 V2000
   27.1232   14.1624   18.5240 N   0  0  0  0  0  0  0  0  0  0  0  0
   27.7589   14.4541   19.8439 C   0  0  2  0  0  0  0  0  0  0  0  0
   26.7272   14.8717   20.8833 C   0  0  0  0  0  0  0  0  0  0  0  0
   25.5476   15.0258   20.5863 O   0  0  0  0  0  0  0  0  0  0  0  0
   28.8526   15.5156   19.7022 C   0  0  0  0  0  0  0  0  0  0  0  0
   29.7435   15.6425   20.9260 C   0  0  0  0  0  0  0  0  0  0  0  0
   30.8504   16.6675   20.7123 C   0  0  0  0  0  0  0  0  0  0  0  0
   31.7360   16.7666   21.9435 C   0  0  0  0  0  0  0  0  0  0  0  0
   32.8560   17.7597   21.7761 N   0  0  0  0  0  0  0  0  0  0  0  0
   27.0192   15.0424   22.0592 O   0  0  0  0  0  0  0  0  0  0  0  0
  2  1  1  6  0  0  0
  2  3  1  0  0  0  0
  2  5  1  0  0  0  0
  3  4  1  0  0  0  0
  3 10  1  0  0  0  0
  5  6  1  0  0  0  0
  6  7  1  0  0  0  0
  7  8  1  0  0  0  0
  8  9  1  0  0  0  0
M  END
>  <CHROM.1>
-4.85377569,-167.25796373,177.54739487,-179.42674595,179.44489856,28.78767717
15.59356365,20.71676200,-2.80756290,0.33629717,1.25565780

>  <Name>
ligand

>  <RI>
0

>  <Rbt.Current_Directory>
/home/itssahil/PROJECTS/Mol_Feturizer/New_Systems/rnas/3DIZ

>  <Rbt.Executable>
rbdock ($Id: //depot/dev/client3/rdock/2013.1/src/exe/rbdock.cxx#4 $)

>  <Rbt.Library>
libRbt.so (2013.1, Build901 2013/11/27)

>  <Rbt.Parameter_File>
/export/apps/rDock/src/rDock_2013.1_src/data/scripts/dock_solv.prm

>  <Rbt.Receptor>
prm/pocket_docking_2.prm

>  <SCORE>
-9.13643

>  <SCORE.INTER>
-7.48496

>  <SCORE.INTER.CONST>
1

>  <SCORE.INTER.POLAR>
0

>  <SCORE.INTER.ROT>
5

>  <SCORE.INTER.SOLV>
16.431

>  <SCORE.INTER.VDW>
-17.4003

>  <SCORE.INTER.norm>
-0.748496

>  <SCORE.INTRA>
-1.65147

>  <SCORE.INTRA.DIHEDRAL>
-1.53017

>  <SCORE.INTRA.DIHEDRAL.0>
3.67053

>  <SCORE.INTRA.POLAR>
0

>  <SCORE.INTRA.POLAR.0>
0

>  <SCORE.INTRA.REPUL>
0

>  <SCORE.INTRA.REPUL.0>
0

>  <SCORE.INTRA.SOLV>
-1.69157

>  <SCORE.INTRA.SOLV.lig_0>
-32.0553

>  <SCORE.INTRA.VDW>
-0.0405949

>  <SCORE.INTRA.VDW.0>
-0.571921

>  <SCORE.INTRA.norm>
-0.165147

>  <SCORE.RESTR>
0

>  <SCORE.RESTR.CAVITY>
0

>  <SCORE.RESTR.norm>
0

>  <SCORE.SYSTEM>
0

>  <SCORE.SYSTEM.CONST>
0

>  <SCORE.SYSTEM.DIHEDRAL>
0

>  <SCORE.SYSTEM.SOLV>
0

>  <SCORE.SYSTEM.norm>
0

>  <SCORE.heavy>
10

>  <SCORE.norm>
-0.913643

>  <RMSD>
5.465

$$$$
ligand
 OpenBabel11021811473D
libRbt.so/2013.1/901 2013/11/27
 10  9  0  0  0  0  0  0  0  0999 V2000
   25.8970   14.7596   20.9217 N   0  0  0  0  0  0  0  0  0  0  0  0
   26.8328   15.4917   20.0163 C   0  0  2  0  0  0  0  0  0  0  0  0
   27.2241   14.6463   18.8116 C   0  0  0  0  0  0  0  0  0  0  0  0
   28.0143   15.0603   17.9704 O   0  0  0  0  0  0  0  0  0  0  0  0
   28.0733   15.9652   20.7779 C   0  0  0  0  0  0  0  0  0  0  0  0
   28.8833   14.8350   21.3896 C   0  0  0  0  0  0  0  0  0  0  0  0
   30.1810   15.3425   22.0060 C   0  0  0  0  0  0  0  0  0  0  0  0
   31.1170   15.8686   20.9303 C   0  0  0  0  0  0  0  0  0  0  0  0
   32.3609   16.4994   21.4992 N   0  0  0  0  0  0  0  0  0  0  0  0
   26.7950   13.5128   18.6442 O   0  0  0  0  0  0  0  0  0  0  0  0
  2  1  1  1  0  0  0
  2  3  1  0  0  0  0
  2  5  1  0  0  0  0
  3  4  1  0  0  0  0
  3 10  1  0  0  0  0
  5  6  1  0  0  0  0
  6  7  1  0  0  0  0
  7  8  1  0  0  0  0
  8  9  1  0  0  0  0
M  END
>  <CHROM.1>
-178.05180689,60.68501174,173.90073234,-66.64538931,174.65751320,28.53695178
15.17830711,20.26404662,2.64536508,-0.22928894,-1.74969753

>  <Name>
ligand

>  <RI>
0

>  <Rbt.Current_Directory>
/home/itssahil/PROJECTS/Mol_Feturizer/New_Systems/rnas/3DIZ

>  <Rbt.Executable>
rbdock ($Id: //depot/dev/client3/rdock/2013.1/src/exe/rbdock.cxx#4 $)

>  <Rbt.Library>
libRbt.so (2013.1, Build901 2013/11/27)

>  <Rbt.Parameter_File>
/export/apps/rDock/src/rDock_2013.1_src/data/scripts/dock_solv.prm

>  <Rbt.Receptor>
prm/pocket_docking_2.prm

>  <SCORE>
-8.79883

>  <SCORE.INTER>
-8.34628

>  <SCORE.INTER.CONST>
1

>  <SCORE.INTER.POLAR>
0

>  <SCORE.INTER.ROT>
5

>  <SCORE.INTER.SOLV>
17.981

>  <SCORE.INTER.VDW>
-18.4912

>  <SCORE.INTER.norm>
-0.834628

>  <SCORE.INTRA>
-0.453208

>  <SCORE.INTRA.DIHEDRAL>
-1.7214

>  <SCORE.INTRA.DIHEDRAL.0>
3.67053

>  <SCORE.INTRA.POLAR>
0

>  <SCORE.INTRA.POLAR.0>
0

>  <SCORE.INTRA.REPUL>
0

>  <SCORE.INTRA.REPUL.0>
0

>  <SCORE.INTRA.SOLV>
-0.573658

>  <SCORE.INTRA.SOLV.lig_0>
-32.0553

>  <SCORE.INTRA.VDW>
0.694322

>  <SCORE.INTRA.VDW.0>
-0.571921

>  <SCORE.INTRA.norm>
-0.0453208

>  <SCORE.RESTR>
0.000659153

>  <SCORE.RESTR.CAVITY>
0.000659153

>  <SCORE.RESTR.norm>
6.59153e-05

>  <SCORE.SYSTEM>
0

>  <SCORE.SYSTEM.CONST>
0

>  <SCORE.SYSTEM.DIHEDRAL>
0

>  <SCORE.SYSTEM.SOLV>
0

>  <SCORE.SYSTEM.norm>
0

>  <SCORE.heavy>
10

>  <SCORE.norm>
-0.879883

>  <RMSD>
5.465

$$$$
ligand
 OpenBabel11021811473D
libRbt.so/2013.1/901 2013/11/27
 10  9  0  0  0  0  0  0  0  0999 V2000
   28.4328   14.3955   19.1741 N   0  0  0  0  0  0  0  0  0  0  0  0
   27.9086   14.5018   20.5689 C   0  0  2  0  0  0  0  0  0  0  0  0
   26.4543   14.9530   20.5887 C   0  0  0  0  0  0  0  0  0  0  0  0
   25.9967   15.6723   19.7073 O   0  0  0  0  0  0  0  0  0  0  0  0
   28.7817   15.4341   21.4124 C   0  0  0  0  0  0  0  0  0  0  0  0
   30.1785   14.8958   21.6710 C   0  0  0  0  0  0  0  0  0  0  0  0
   31.0382   15.9016   22.4264 C   0  0  0  0  0  0  0  0  0  0  0  0
   31.4973   17.0172   21.5019 C   0  0  0  0  0  0  0  0  0  0  0  0
   32.4359   17.9828   22.1769 N   0  0  0  0  0  0  0  0  0  0  0  0
   25.6736   14.5975   21.4611 O   0  0  0  0  0  0  0  0  0  0  0  0
  2  1  1  6  0  0  0
  2  3  1  0  0  0  0
  2  5  1  0  0  0  0
  3  4  1  0  0  0  0
  3 10  1  0  0  0  0
  5  6  1  0  0  0  0
  6  7  1  0  0  0  0
  7  8  1  0  0  0  0
  8  9  1  0  0  0  0
M  END
>  <CHROM.1>
-29.56693927,-67.08682027,175.87253181,-75.58493471,-175.69847354,28.79604011
15.53949342,21.06585447,-2.73422966,0.20274152,1.10100932

>  <Name>
ligand

>  <RI>
0

>  <Rbt.Current_Directory>
/home/itssahil/PROJECTS/Mol_Feturizer/New_Systems/rnas/3DIZ

>  <Rbt.Executable>
rbdock ($Id: //depot/dev/client3/rdock/2013.1/src/exe/rbdock.cxx#4 $)

>  <Rbt.Library>
libRbt.so (2013.1, Build901 2013/11/27)

>  <Rbt.Parameter_File>
/export/apps/rDock/src/rDock_2013.1_src/data/scripts/dock_solv.prm

>  <Rbt.Receptor>
prm/pocket_docking_6.prm

>  <SCORE>
-9.77341

>  <SCORE.INTER>
-9.13477

>  <SCORE.INTER.CONST>
1

>  <SCORE.INTER.POLAR>
0

>  <SCORE.INTER.ROT>
5

>  <SCORE.INTER.SOLV>
13.531

>  <SCORE.INTER.VDW>
-17.5335

>  <SCORE.INTER.norm>
-0.913477

>  <SCORE.INTRA>
-0.638642

>  <SCORE.INTRA.DIHEDRAL>
-0.790862

>  <SCORE.INTRA.DIHEDRAL.0>
3.67053

>  <SCORE.INTRA.POLAR>
0

>  <SCORE.INTRA.POLAR.0>
0

>  <SCORE.INTRA.REPUL>
0

>  <SCORE.INTRA.REPUL.0>
0

>  <SCORE.INTRA.SOLV>
-0.681548

>  <SCORE.INTRA.SOLV.lig_0>
-32.0553

>  <SCORE.INTRA.VDW>
0.0975626

>  <SCORE.INTRA.VDW.0>
-0.571921

>  <SCORE.INTRA.norm>
-0.0638642

>  <SCORE.RESTR>
0

>  <SCORE.RESTR.CAVITY>
0

>  <SCORE.RESTR.norm>
0

>  <SCORE.SYSTEM>
0

>  <SCORE.SYSTEM.CONST>
0

>  <SCORE.SYSTEM.DIHEDRAL>
0

>  <SCORE.SYSTEM.SOLV>
0

>  <SCORE.SYSTEM.norm>
0

>  <SCORE.heavy>
10

>  <SCORE.norm>
-0.977341

>  <RMSD>
5.469

$$$$
ligand
 OpenBabel11021811473D
libRbt.so/2013.1/901 2013/11/27
 10  9  0  0  0  0  0  0  0  0999 V2000
   28.3983   14.3306   19.1676 N   0  0  0  0  0  0  0  0  0  0  0  0
   27.9117   14.5109   20.5683 C   0  0  2  0  0  0  0  0  0  0  0  0
   26.4621   14.9763   20.6029 C   0  0  0  0  0  0  0  0  0  0  0  0
   26.0122   15.7290   19.7458 O   0  0  0  0  0  0  0  0  0  0  0  0
   28.8141   15.4758   21.3415 C   0  0  0  0  0  0  0  0  0  0  0  0
   30.1817   14.9025   21.6709 C   0  0  0  0  0  0  0  0  0  0  0  0
   31.0437   15.9041   22.4294 C   0  0  0  0  0  0  0  0  0  0  0  0
   31.5443   16.9959   21.4981 C   0  0  0  0  0  0  0  0  0  0  0  0
   32.4768   17.9613   22.1817 N   0  0  0  0  0  0  0  0  0  0  0  0
   25.6775   14.6003   21.4632 O   0  0  0  0  0  0  0  0  0  0  0  0
  2  1  1  6  0  0  0
  2  3  1  0  0  0  0
  2  5  1  0  0  0  0
  3  4  1  0  0  0  0
  3 10  1  0  0  0  0
  5  6  1  0  0  0  0
  6  7  1  0  0  0  0
  7  8  1  0  0  0  0
  8  9  1  0  0  0  0
M  END
>  <CHROM.1>
-34.54456461,-70.91864684,179.54365872,-74.11401097,-176.19472368,28.80857084
15.54340289,21.06429795,-2.70991324,0.12298090,0.92674971

>  <Name>
ligand

>  <RI>
0

>  <Rbt.Current_Directory>
/home/itssahil/PROJECTS/Mol_Feturizer/New_Systems/rnas/3DIZ

>  <Rbt.Executable>
rbdock ($Id: //depot/dev/client3/rdock/2013.1/src/exe/rbdock.cxx#4 $)

>  <Rbt.Library>
libRbt.so (2013.1, Build901 2013/11/27)

>  <Rbt.Parameter_File>
/export/apps/rDock/src/rDock_2013.1_src/data/scripts/dock_solv.prm

>  <Rbt.Receptor>
prm/pocket_docking_8.prm

>  <SCORE>
-9.65344

>  <SCORE.INTER>
-8.98465

>  <SCORE.INTER.CONST>
1

>  <SCORE.INTER.POLAR>
0

>  <SCORE.INTER.ROT>
5

>  <SCORE.INTER.SOLV>
13.6913

>  <SCORE.INTER.VDW>
-17.4869

>  <SCORE.INTER.norm>
-0.898465

>  <SCORE.INTRA>
-0.668795

>  <SCORE.INTRA.DIHEDRAL>
-0.775045

>  <SCORE.INTRA.DIHEDRAL.0>
3.67053

>  <SCORE.INTRA.POLAR>
0

>  <SCORE.INTRA.POLAR.0>
0

>  <SCORE.INTRA.REPUL>
0

>  <SCORE.INTRA.REPUL.0>
0

>  <SCORE.INTRA.SOLV>
-0.774499

>  <SCORE.INTRA.SOLV.lig_0>
-32.0553

>  <SCORE.INTRA.VDW>
0.105977

>  <SCORE.INTRA.VDW.0>
-0.571921

>  <SCORE.INTRA.norm>
-0.0668795

>  <SCORE.RESTR>
0

>  <SCORE.RESTR.CAVITY>
0

>  <SCORE.RESTR.norm>
0

>  <SCORE.SYSTEM>
0

>  <SCORE.SYSTEM.CONST>
0

>  <SCORE.SYSTEM.DIHEDRAL>
0

>  <SCORE.SYSTEM.SOLV>
0

>  <SCORE.SYSTEM.norm>
0

>  <SCORE.heavy>
10

>  <SCORE.norm>
-0.965344

>  <RMSD>
5.470

$$$$
ligand
 OpenBabel11021811473D
libRbt.so/2013.1/901 2013/11/27
 10  9  0  0  0  0  0  0  0  0999 V2000
   27.7575   15.5326   22.6294 N   0  0  0  0  0  0  0  0  0  0  0  0
   27.9368   15.5186   21.1465 C   0  0  2  0  0  0  0  0  0  0  0  0
   26.6687   15.0704   20.4323 C   0  0  0  0  0  0  0  0  0  0  0  0
   25.6636   14.7490   21.0568 O   0  0  0  0  0  0  0  0  0  0  0  0
   29.1274   14.6433   20.7472 C   0  0  0  0  0  0  0  0  0  0  0  0
   30.4669   15.1799   21.2219 C   0  0  0  0  0  0  0  0  0  0  0  0
   30.8887   16.4150   20.4358 C   0  0  0  0  0  0  0  0  0  0  0  0
   32.2221   16.9429   20.9393 C   0  0  0  0  0  0  0  0  0  0  0  0
   32.1232   17.5607   22.3094 N   0  0  0  0  0  0  0  0  0  0  0  0
   26.5846   15.0390   19.2121 O   0  0  0  0  0  0  0  0  0  0  0  0
  2  1  1  1  0  0  0
  2  3  1  0  0  0  0
  2  5  1  0  0  0  0
  3  4  1  0  0  0  0
  3 10  1  0  0  0  0
  5  6  1  0  0  0  0
  6  7  1  0  0  0  0
  7  8  1  0  0  0  0
  8  9  1  0  0  0  0
M  END
>  <CHROM.1>
-1.26394913,-65.71694516,-72.04805391,179.31833594,-70.25536949,28.90453232
15.65286190,20.99543542,2.93216178,-0.30451639,-1.76702005

>  <Name>
ligand

>  <RI>
0

>  <Rbt.Current_Directory>
/home/itssahil/PROJECTS/Mol_Feturizer/New_Systems/rnas/3DIZ

>  <Rbt.Executable>
rbdock ($Id: //depot/dev/client3/rdock/2013.1/src/exe/rbdock.cxx#4 $)

>  <Rbt.Library>
libRbt.so (2013.1, Build901 2013/11/27)

>  <Rbt.Parameter_File>
/export/apps/rDock/src/rDock_2013.1_src/data/scripts/dock_solv.prm

>  <Rbt.Receptor>
prm/pocket_docking_5.prm

>  <SCORE>
-8.17944

>  <SCORE.INTER>
-7.87141

>  <SCORE.INTER.CONST>
1

>  <SCORE.INTER.POLAR>
0

>  <SCORE.INTER.ROT>
5

>  <SCORE.INTER.SOLV>
16.1636

>  <SCORE.INTER.VDW>
-17.5688

>  <SCORE.INTER.norm>
-0.787141

>  <SCORE.INTRA>
-0.308028

>  <SCORE.INTRA.DIHEDRAL>
-1.03919

>  <SCORE.INTRA.DIHEDRAL.0>
3.67053

>  <SCORE.INTRA.POLAR>
0

>  <SCORE.INTRA.POLAR.0>
0

>  <SCORE.INTRA.REPUL>
0

>  <SCORE.INTRA.REPUL.0>
0

>  <SCORE.INTRA.SOLV>
0.3769

>  <SCORE.INTRA.SOLV.lig_0>
-32.0553

>  <SCORE.INTRA.VDW>
0.0231161

>  <SCORE.INTRA.VDW.0>
-0.571921

>  <SCORE.INTRA.norm>
-0.0308028

>  <SCORE.RESTR>
0

>  <SCORE.RESTR.CAVITY>
0

>  <SCORE.RESTR.norm>
0

>  <SCORE.SYSTEM>
0

>  <SCORE.SYSTEM.CONST>
0

>  <SCORE.SYSTEM.DIHEDRAL>
0

>  <SCORE.SYSTEM.SOLV>
0

>  <SCORE.SYSTEM.norm>
0

>  <SCORE.heavy>
10

>  <SCORE.norm>
-0.817944

>  <RMSD>
5.480

$$$$
ligand
 OpenBabel11021811473D
libRbt.so/2013.1/901 2013/11/27
 10  9  0  0  0  0  0  0  0  0999 V2000
   28.1742   15.5316   22.5252 N   0  0  0  0  0  0  0  0  0  0  0  0
   28.0293   15.7170   21.0501 C   0  0  2  0  0  0  0  0  0  0  0  0
   26.8234   14.9627   20.5058 C   0  0  0  0  0  0  0  0  0  0  0  0
   25.9044   14.6136   21.2386 O   0  0  0  0  0  0  0  0  0  0  0  0
   29.3085   15.3037   20.3180 C   0  0  0  0  0  0  0  0  0  0  0  0
   30.4799   16.2405   20.5580 C   0  0  0  0  0  0  0  0  0  0  0  0
   31.7814   15.6649   20.0136 C   0  0  0  0  0  0  0  0  0  0  0  0
   32.9273   16.6427   20.2154 C   0  0  0  0  0  0  0  0  0  0  0  0
   33.1422   16.9962   21.6637 N   0  0  0  0  0  0  0  0  0  0  0  0
   26.7023   14.6986   19.3172 O   0  0  0  0  0  0  0  0  0  0  0  0
  2  1  1  1  0  0  0
  2  3  1  0  0  0  0
  2  5  1  0  0  0  0
  3  4  1  0  0  0  0
  3 10  1  0  0  0  0
  5  6  1  0  0  0  0
  6  7  1  0  0  0  0
  7  8  1  0  0  0  0
  8  9  1  0  0  0  0
M  END
>  <CHROM.1>
20.23250386,-69.57906739,170.10878545,177.73533828,58.80363456,29.28740656
15.61862373,20.72838459,3.07397719,-0.26630821,-1.79432513

>  <Name>
ligand

>  <RI>
0

>  <Rbt.Current_Directory>
/home/itssahil/PROJECTS/Mol_Feturizer/New_Systems/rnas/3DIZ

>  <Rbt.Executable>
rbdock ($Id: //depot/dev/client3/rdock/2013.1/src/exe/rbdock.cxx#4 $)

>  <Rbt.Library>
libRbt.so (2013.1, Build901 2013/11/27)

>  <Rbt.Parameter_File>
/export/apps/rDock/src/rDock_2013.1_src/data/scripts/dock_solv.prm

>  <Rbt.Receptor>
prm/pocket_docking_3.prm

>  <SCORE>
-8.05823

>  <SCORE.INTER>
-7.65268

>  <SCORE.INTER.CONST>
1

>  <SCORE.INTER.POLAR>
0

>  <SCORE.INTER.ROT>
5

>  <SCORE.INTER.SOLV>
17.1676

>  <SCORE.INTER.VDW>
-17.7577

>  <SCORE.INTER.norm>
-0.765268

>  <SCORE.INTRA>
-0.405552

>  <SCORE.INTRA.DIHEDRAL>
-1.41586

>  <SCORE.INTRA.DIHEDRAL.0>
3.67053

>  <SCORE.INTRA.POLAR>
0

>  <SCORE.INTRA.POLAR.0>
0

>  <SCORE.INTRA.REPUL>
0

>  <SCORE.INTRA.REPUL.0>
0

>  <SCORE.INTRA.SOLV>
0.112598

>  <SCORE.INTRA.SOLV.lig_0>
-32.0553

>  <SCORE.INTRA.VDW>
0.246079

>  <SCORE.INTRA.VDW.0>
-0.571921

>  <SCORE.INTRA.norm>
-0.0405552

>  <SCORE.RESTR>
0

>  <SCORE.RESTR.CAVITY>
0

>  <SCORE.RESTR.norm>
0

>  <SCORE.SYSTEM>
0

>  <SCORE.SYSTEM.CONST>
0

>  <SCORE.SYSTEM.DIHEDRAL>
0

>  <SCORE.SYSTEM.SOLV>
0

>  <SCORE.SYSTEM.norm>
0

>  <SCORE.heavy>
10

>  <SCORE.norm>
-0.805823

>  <RMSD>
5.487

$$$$
ligand
 OpenBabel11021811473D
libRbt.so/2013.1/901 2013/11/27
 10  9  0  0  0  0  0  0  0  0999 V2000
   25.8454   14.9273   20.5890 N   0  0  0  0  0  0  0  0  0  0  0  0
   27.1233   15.3133   19.9187 C   0  0  2  0  0  0  0  0  0  0  0  0
   27.2749   14.6319   18.5652 C   0  0  0  0  0  0  0  0  0  0  0  0
   27.8339   15.1908   17.6278 O   0  0  0  0  0  0  0  0  0  0  0  0
   28.3253   15.0151   20.8184 C   0  0  0  0  0  0  0  0  0  0  0  0
   29.6535   15.4620   20.2320 C   0  0  0  0  0  0  0  0  0  0  0  0
   30.8232   15.0722   21.1271 C   0  0  0  0  0  0  0  0  0  0  0  0
   30.8315   15.9095   22.3956 C   0  0  0  0  0  0  0  0  0  0  0  0
   31.0919   17.3687   22.1277 N   0  0  0  0  0  0  0  0  0  0  0  0
   26.8761   13.4934   18.3606 O   0  0  0  0  0  0  0  0  0  0  0  0
  2  1  1  1  0  0  0
  2  3  1  0  0  0  0
  2  5  1  0  0  0  0
  3  4  1  0  0  0  0
  3 10  1  0  0  0  0
  5  6  1  0  0  0  0
  6  7  1  0  0  0  0
  7  8  1  0  0  0  0
  8  9  1  0  0  0  0
M  END
>  <CHROM.1>
146.13097480,-176.47329084,-176.74537159,-70.80299715,-65.62431873,28.56279117
15.22122762,20.13973388,2.42563712,-0.20826961,-1.84814252

>  <Name>
ligand

>  <RI>
0

>  <Rbt.Current_Directory>
/home/itssahil/PROJECTS/Mol_Feturizer/New_Systems/rnas/3DIZ

>  <Rbt.Executable>
rbdock ($Id: //depot/dev/client3/rdock/2013.1/src/exe/rbdock.cxx#4 $)

>  <Rbt.Library>
libRbt.so (2013.1, Build901 2013/11/27)

>  <Rbt.Parameter_File>
/export/apps/rDock/src/rDock_2013.1_src/data/scripts/dock_solv.prm

>  <Rbt.Receptor>
prm/pocket_docking_4.prm

>  <SCORE>
-8.07876

>  <SCORE.INTER>
-7.55363

>  <SCORE.INTER.CONST>
1

>  <SCORE.INTER.POLAR>
0

>  <SCORE.INTER.ROT>
5

>  <SCORE.INTER.SOLV>
16.9695

>  <SCORE.INTER.VDW>
-17.6256

>  <SCORE.INTER.norm>
-0.755363

>  <SCORE.INTRA>
-0.525127

>  <SCORE.INTRA.DIHEDRAL>
-1.54674

>  <SCORE.INTRA.DIHEDRAL.0>
3.67053

>  <SCORE.INTRA.POLAR>
0

>  <SCORE.INTRA.POLAR.0>
0

>  <SCORE.INTRA.REPUL>
0

>  <SCORE.INTRA.REPUL.0>
0

>  <SCORE.INTRA.SOLV>
-0.361528

>  <SCORE.INTRA.SOLV.lig_0>
-32.0553

>  <SCORE.INTRA.VDW>
0.429009

>  <SCORE.INTRA.VDW.0>
-0.571921

>  <SCORE.INTRA.norm>
-0.0525127

>  <SCORE.RESTR>
0

>  <SCORE.RESTR.CAVITY>
0

>  <SCORE.RESTR.norm>
0

>  <SCORE.SYSTEM>
0

>  <SCORE.SYSTEM.CONST>
0

>  <SCORE.SYSTEM.DIHEDRAL>
0

>  <SCORE.SYSTEM.SOLV>
0

>  <SCORE.SYSTEM.norm>
0

>  <SCORE.heavy>
10

>  <SCORE.norm>
-0.807876

>  <RMSD>
5.499

$$$$
ligand
 OpenBabel11021811473D
libRbt.so/2013.1/901 2013/11/27
 10  9  0  0  0  0  0  0  0  0999 V2000
   28.0224   15.4806   22.4851 N   0  0  0  0  0  0  0  0  0  0  0  0
   27.9314   15.5996   20.9988 C   0  0  2  0  0  0  0  0  0  0  0  0
   26.7652   14.7940   20.4419 C   0  0  0  0  0  0  0  0  0  0  0  0
   26.8700   14.1550   19.4006 O   0  0  0  0  0  0  0  0  0  0  0  0
   29.2474   15.1869   20.3349 C   0  0  0  0  0  0  0  0  0  0  0  0
   30.3964   16.1418   20.6095 C   0  0  0  0  0  0  0  0  0  0  0  0
   31.7151   15.6066   20.0652 C   0  0  0  0  0  0  0  0  0  0  0  0
   32.8147   16.6469   20.2023 C   0  0  0  0  0  0  0  0  0  0  0  0
   33.0219   17.0901   21.6268 N   0  0  0  0  0  0  0  0  0  0  0  0
   25.6882   14.7232   21.0180 O   0  0  0  0  0  0  0  0  0  0  0  0
  2  1  1  1  0  0  0
  2  3  1  0  0  0  0
  2  5  1  0  0  0  0
  3  4  1  0  0  0  0
  3 10  1  0  0  0  0
  5  6  1  0  0  0  0
  6  7  1  0  0  0  0
  7  8  1  0  0  0  0
  8  9  1  0  0  0  0
M  END
>  <CHROM.1>
-139.81551395,-68.03677106,173.40487867,173.23043520,57.88962092,29.20875929
15.52167999,20.70563977,3.01194223,-0.27409500,-1.96141392

>  <Name>
ligand

>  <RI>
0

>  <Rbt.Current_Directory>
/home/itssahil/PROJECTS/Mol_Feturizer/New_Systems/rnas/3DIZ

>  <Rbt.Executable>
rbdock ($Id: //depot/dev/client3/rdock/2013.1/src/exe/rbdock.cxx#4 $)

>  <Rbt.Library>
libRbt.so (2013.1, Build901 2013/11/27)

>  <Rbt.Parameter_File>
/export/apps/rDock/src/rDock_2013.1_src/data/scripts/dock_solv.prm

>  <Rbt.Receptor>
prm/blind_docking_60.prm

>  <SCORE>
-7.93227

>  <SCORE.INTER>
-7.81895

>  <SCORE.INTER.CONST>
1

>  <SCORE.INTER.POLAR>
0

>  <SCORE.INTER.ROT>
5

>  <SCORE.INTER.SOLV>
17.1709

>  <SCORE.INTER.VDW>
-17.8696

>  <SCORE.INTER.norm>
-0.781895

>  <SCORE.INTRA>
-0.113321

>  <SCORE.INTRA.DIHEDRAL>
-1.45647

>  <SCORE.INTRA.DIHEDRAL.0>
3.67053

>  <SCORE.INTRA.POLAR>
0

>  <SCORE.INTRA.POLAR.0>
0

>  <SCORE.INTRA.REPUL>
0

>  <SCORE.INTRA.REPUL.0>
0

>  <SCORE.INTRA.SOLV>
0.0988684

>  <SCORE.INTRA.SOLV.lig_0>
-32.0553

>  <SCORE.INTRA.VDW>
0.565477

>  <SCORE.INTRA.VDW.0>
-0.571921

>  <SCORE.INTRA.norm>
-0.0113321

>  <SCORE.RESTR>
0

>  <SCORE.RESTR.CAVITY>
0

>  <SCORE.RESTR.norm>
0

>  <SCORE.SYSTEM>
0

>  <SCORE.SYSTEM.CONST>
0

>  <SCORE.SYSTEM.DIHEDRAL>
0

>  <SCORE.SYSTEM.SOLV>
0

>  <SCORE.SYSTEM.norm>
0

>  <SCORE.heavy>
10

>  <SCORE.norm>
-0.793227

>  <RMSD>
5.521

$$$$
ligand
 OpenBabel11021811473D
libRbt.so/2013.1/901 2013/11/27
 10  9  0  0  0  0  0  0  0  0999 V2000
   27.1195   15.6633   20.6635 N   0  0  0  0  0  0  0  0  0  0  0  0
   28.1805   15.7531   19.6157 C   0  0  2  0  0  0  0  0  0  0  0  0
   28.0615   14.6257   18.5989 C   0  0  0  0  0  0  0  0  0  0  0  0
   29.0466   14.1821   18.0190 O   0  0  0  0  0  0  0  0  0  0  0  0
   29.5743   15.7740   20.2481 C   0  0  0  0  0  0  0  0  0  0  0  0
   29.8637   17.0324   21.0481 C   0  0  0  0  0  0  0  0  0  0  0  0
   31.2878   17.0396   21.5899 C   0  0  0  0  0  0  0  0  0  0  0  0
   31.5836   18.3471   22.3061 C   0  0  0  0  0  0  0  0  0  0  0  0
   32.9971   18.4213   22.8213 N   0  0  0  0  0  0  0  0  0  0  0  0
   26.9908   14.0943   18.3375 O   0  0  0  0  0  0  0  0  0  0  0  0
  2  1  1  1  0  0  0
  2  3  1  0  0  0  0
  2  5  1  0  0  0  0
  3  4  1  0  0  0  0
  3 10  1  0  0  0  0
  5  6  1  0  0  0  0
  6  7  1  0  0  0  0
  7  8  1  0  0  0  0
  8  9  1  0  0  0  0
M  END
>  <CHROM.1>
-150.19828108,-67.42649150,-176.77964265,176.20417619,-178.10198125,29.45912632
16.06175468,20.29410512,2.27455247,-0.11482740,-2.24417164

>  <Name>
ligand

>  <RI>
0

>  <Rbt.Current_Directory>
/home/itssahil/PROJECTS/Mol_Feturizer/New_Systems/rnas/3DIZ

>  <Rbt.Executable>
rbdock ($Id: //depot/dev/client3/rdock/2013.1/src/exe/rbdock.cxx#4 $)

>  <Rbt.Library>
libRbt.so (2013.1, Build901 2013/11/27)

>  <Rbt.Parameter_File>
/export/apps/rDock/src/rDock_2013.1_src/data/scripts/dock_solv.prm

>  <Rbt.Receptor>
prm/pocket_docking_8.prm

>  <SCORE>
-7.20664

>  <SCORE.INTER>
-6.14667

>  <SCORE.INTER.CONST>
1

>  <SCORE.INTER.POLAR>
0

>  <SCORE.INTER.ROT>
5

>  <SCORE.INTER.SOLV>
15.8396

>  <SCORE.INTER.VDW>
-16.311

>  <SCORE.INTER.norm>
-0.614667

>  <SCORE.INTRA>
-1.05998

>  <SCORE.INTRA.DIHEDRAL>
-1.75848

>  <SCORE.INTRA.DIHEDRAL.0>
3.67053

>  <SCORE.INTRA.POLAR>
0

>  <SCORE.INTRA.POLAR.0>
0

>  <SCORE.INTRA.REPUL>
0

>  <SCORE.INTRA.REPUL.0>
0

>  <SCORE.INTRA.SOLV>
-0.923253

>  <SCORE.INTRA.SOLV.lig_0>
-32.0553

>  <SCORE.INTRA.VDW>
0.280889

>  <SCORE.INTRA.VDW.0>
-0.571921

>  <SCORE.INTRA.norm>
-0.105998

>  <SCORE.RESTR>
0

>  <SCORE.RESTR.CAVITY>
0

>  <SCORE.RESTR.norm>
0

>  <SCORE.SYSTEM>
0

>  <SCORE.SYSTEM.CONST>
0

>  <SCORE.SYSTEM.DIHEDRAL>
0

>  <SCORE.SYSTEM.SOLV>
0

>  <SCORE.SYSTEM.norm>
0

>  <SCORE.heavy>
10

>  <SCORE.norm>
-0.720664

>  <RMSD>
5.522

$$$$
ligand
 OpenBabel11021811473D
libRbt.so/2013.1/901 2013/11/27
 10  9  0  0  0  0  0  0  0  0999 V2000
   28.2964   14.4874   21.9792 N   0  0  0  0  0  0  0  0  0  0  0  0
   28.0850   15.5310   20.9315 C   0  0  2  0  0  0  0  0  0  0  0  0
   27.0397   15.0986   19.9120 C   0  0  0  0  0  0  0  0  0  0  0  0
   25.9192   15.5964   19.8957 O   0  0  0  0  0  0  0  0  0  0  0  0
   29.4040   15.8907   20.2431 C   0  0  0  0  0  0  0  0  0  0  0  0
   30.4682   16.4104   21.1944 C   0  0  0  0  0  0  0  0  0  0  0  0
   31.7768   16.7009   20.4701 C   0  0  0  0  0  0  0  0  0  0  0  0
   32.8383   17.1762   21.4485 C   0  0  0  0  0  0  0  0  0  0  0  0
   32.4605   18.4609   22.1381 N   0  0  0  0  0  0  0  0  0  0  0  0
   27.2767   14.2632   19.0501 O   0  0  0  0  0  0  0  0  0  0  0  0
  2  1  1  1  0  0  0
  2  3  1  0  0  0  0
  2  5  1  0  0  0  0
  3  4  1  0  0  0  0
  3 10  1  0  0  0  0
  5  6  1  0  0  0  0
  6  7  1  0  0  0  0
  7  8  1  0  0  0  0
  8  9  1  0  0  0  0
M  END
>  <CHROM.1>
106.87677318,-58.76520738,177.72983116,-178.16754221,-61.85805395,29.32124678
15.94795895,20.70100763,2.83169830,-0.39902522,-1.71108489

>  <Name>
ligand

>  <RI>
0

>  <Rbt.Current_Directory>
/home/itssahil/PROJECTS/Mol_Feturizer/New_Systems/rnas/3DIZ

>  <Rbt.Executable>
rbdock ($Id: //depot/dev/client3/rdock/2013.1/src/exe/rbdock.cxx#4 $)

>  <Rbt.Library>
libRbt.so (2013.1, Build901 2013/11/27)

>  <Rbt.Parameter_File>
/export/apps/rDock/src/rDock_2013.1_src/data/scripts/dock_solv.prm

>  <Rbt.Receptor>
prm/pocket_docking_2.prm

>  <SCORE>
-7.48114

>  <SCORE.INTER>
-6.54674

>  <SCORE.INTER.CONST>
1

>  <SCORE.INTER.POLAR>
0

>  <SCORE.INTER.ROT>
5

>  <SCORE.INTER.SOLV>
16.0624

>  <SCORE.INTER.VDW>
-16.6519

>  <SCORE.INTER.norm>
-0.654674

>  <SCORE.INTRA>
-0.934407

>  <SCORE.INTRA.DIHEDRAL>
-2.07365

>  <SCORE.INTRA.DIHEDRAL.0>
3.67053

>  <SCORE.INTRA.POLAR>
0

>  <SCORE.INTRA.POLAR.0>
0

>  <SCORE.INTRA.REPUL>
0

>  <SCORE.INTRA.REPUL.0>
0

>  <SCORE.INTRA.SOLV>
0.133105

>  <SCORE.INTRA.SOLV.lig_0>
-32.0553

>  <SCORE.INTRA.VDW>
0.0358654

>  <SCORE.INTRA.VDW.0>
-0.571921

>  <SCORE.INTRA.norm>
-0.0934407

>  <SCORE.RESTR>
0

>  <SCORE.RESTR.CAVITY>
0

>  <SCORE.RESTR.norm>
0

>  <SCORE.SYSTEM>
0

>  <SCORE.SYSTEM.CONST>
0

>  <SCORE.SYSTEM.DIHEDRAL>
0

>  <SCORE.SYSTEM.SOLV>
0

>  <SCORE.SYSTEM.norm>
0

>  <SCORE.heavy>
10

>  <SCORE.norm>
-0.748114

>  <RMSD>
5.524

$$$$
ligand
 OpenBabel11021811473D
libRbt.so/2013.1/901 2013/11/27
 10  9  0  0  0  0  0  0  0  0999 V2000
   25.9375   14.6498   20.7915 N   0  0  0  0  0  0  0  0  0  0  0  0
   26.8701   15.4696   19.9609 C   0  0  2  0  0  0  0  0  0  0  0  0
   27.2597   14.7483   18.6776 C   0  0  0  0  0  0  0  0  0  0  0  0
   26.9237   13.5874   18.4702 O   0  0  0  0  0  0  0  0  0  0  0  0
   28.1117   15.8674   20.7629 C   0  0  0  0  0  0  0  0  0  0  0  0
   28.9481   16.9477   20.0989 C   0  0  0  0  0  0  0  0  0  0  0  0
   30.2018   17.2637   20.9050 C   0  0  0  0  0  0  0  0  0  0  0  0
   31.2564   16.1883   20.7018 C   0  0  0  0  0  0  0  0  0  0  0  0
   32.5750   16.5386   21.3400 N   0  0  0  0  0  0  0  0  0  0  0  0
   27.8950   15.2982   17.7882 O   0  0  0  0  0  0  0  0  0  0  0  0
  2  1  1  1  0  0  0
  2  3  1  0  0  0  0
  2  5  1  0  0  0  0
  3  4  1  0  0  0  0
  3 10  1  0  0  0  0
  5  6  1  0  0  0  0
  6  7  1  0  0  0  0
  7  8  1  0  0  0  0
  8  9  1  0  0  0  0
M  END
>  <CHROM.1>
-6.56739645,-167.03218131,-177.49372692,77.15636747,172.89271632,28.59595699
15.63628789,19.91660172,2.64104397,-0.25452973,-1.99054224

>  <Name>
ligand

>  <RI>
0

>  <Rbt.Current_Directory>
/home/itssahil/PROJECTS/Mol_Feturizer/New_Systems/rnas/3DIZ

>  <Rbt.Executable>
rbdock ($Id: //depot/dev/client3/rdock/2013.1/src/exe/rbdock.cxx#4 $)

>  <Rbt.Library>
libRbt.so (2013.1, Build901 2013/11/27)

>  <Rbt.Parameter_File>
/export/apps/rDock/src/rDock_2013.1_src/data/scripts/dock_solv.prm

>  <Rbt.Receptor>
prm/pocket_docking_8.prm

>  <SCORE>
-8.07867

>  <SCORE.INTER>
-7.48024

>  <SCORE.INTER.CONST>
1

>  <SCORE.INTER.POLAR>
0

>  <SCORE.INTER.ROT>
5

>  <SCORE.INTER.SOLV>
18.3469

>  <SCORE.INTER.VDW>
-18.0358

>  <SCORE.INTER.norm>
-0.748024

>  <SCORE.INTRA>
-0.598427

>  <SCORE.INTRA.DIHEDRAL>
-0.162943

>  <SCORE.INTRA.DIHEDRAL.0>
3.67053

>  <SCORE.INTRA.POLAR>
0

>  <SCORE.INTRA.POLAR.0>
0

>  <SCORE.INTRA.REPUL>
0

>  <SCORE.INTRA.REPUL.0>
0

>  <SCORE.INTRA.SOLV>
-1.5512

>  <SCORE.INTRA.SOLV.lig_0>
-32.0553

>  <SCORE.INTRA.VDW>
0.258642

>  <SCORE.INTRA.VDW.0>
-0.571921

>  <SCORE.INTRA.norm>
-0.0598427

>  <SCORE.RESTR>
0

>  <SCORE.RESTR.CAVITY>
0

>  <SCORE.RESTR.norm>
0

>  <SCORE.SYSTEM>
0

>  <SCORE.SYSTEM.CONST>
0

>  <SCORE.SYSTEM.DIHEDRAL>
0

>  <SCORE.SYSTEM.SOLV>
0

>  <SCORE.SYSTEM.norm>
0

>  <SCORE.heavy>
10

>  <SCORE.norm>
-0.807867

>  <RMSD>
5.525

$$$$
ligand
 OpenBabel11021811473D
libRbt.so/2013.1/901 2013/11/27
 10  9  0  0  0  0  0  0  0  0999 V2000
   27.0529   15.6812   20.5744 N   0  0  0  0  0  0  0  0  0  0  0  0
   28.1391   15.7338   19.5502 C   0  0  2  0  0  0  0  0  0  0  0  0
   28.0362   14.5783   18.5636 C   0  0  0  0  0  0  0  0  0  0  0  0
   29.0290   14.1264   18.0034 O   0  0  0  0  0  0  0  0  0  0  0  0
   29.5176   15.7636   20.2151 C   0  0  0  0  0  0  0  0  0  0  0  0
   29.7932   17.0386   20.9935 C   0  0  0  0  0  0  0  0  0  0  0  0
   31.2037   17.0523   21.5695 C   0  0  0  0  0  0  0  0  0  0  0  0
   31.4643   18.3468   22.3221 C   0  0  0  0  0  0  0  0  0  0  0  0
   32.8624   18.4260   22.8767 N   0  0  0  0  0  0  0  0  0  0  0  0
   26.9715   14.0320   18.3087 O   0  0  0  0  0  0  0  0  0  0  0  0
  2  1  1  1  0  0  0
  2  3  1  0  0  0  0
  2  5  1  0  0  0  0
  3  4  1  0  0  0  0
  3 10  1  0  0  0  0
  5  6  1  0  0  0  0
  6  7  1  0  0  0  0
  7  8  1  0  0  0  0
  8  9  1  0  0  0  0
M  END
>  <CHROM.1>
-151.44429668,-67.02083227,-176.81407819,178.99244697,-178.29428194,29.39614161
16.04563854,20.26754201,2.25398684,-0.09168059,-2.26567422

>  <Name>
ligand

>  <RI>
0

>  <Rbt.Current_Directory>
/home/itssahil/PROJECTS/Mol_Feturizer/New_Systems/rnas/3DIZ

>  <Rbt.Executable>
rbdock ($Id: //depot/dev/client3/rdock/2013.1/src/exe/rbdock.cxx#4 $)

>  <Rbt.Library>
libRbt.so (2013.1, Build901 2013/11/27)

>  <Rbt.Parameter_File>
/export/apps/rDock/src/rDock_2013.1_src/data/scripts/dock_solv.prm

>  <Rbt.Receptor>
prm/pocket_docking_6.prm

>  <SCORE>
-7.15082

>  <SCORE.INTER>
-6.03827

>  <SCORE.INTER.CONST>
1

>  <SCORE.INTER.POLAR>
0

>  <SCORE.INTER.ROT>
5

>  <SCORE.INTER.SOLV>
16.1086

>  <SCORE.INTER.VDW>
-16.3284

>  <SCORE.INTER.norm>
-0.603827

>  <SCORE.INTRA>
-1.11255

>  <SCORE.INTRA.DIHEDRAL>
-1.84192

>  <SCORE.INTRA.DIHEDRAL.0>
3.67053

>  <SCORE.INTRA.POLAR>
0

>  <SCORE.INTRA.POLAR.0>
0

>  <SCORE.INTRA.REPUL>
0

>  <SCORE.INTRA.REPUL.0>
0

>  <SCORE.INTRA.SOLV>
-0.917421

>  <SCORE.INTRA.SOLV.lig_0>
-32.0553

>  <SCORE.INTRA.VDW>
0.267121

>  <SCORE.INTRA.VDW.0>
-0.571921

>  <SCORE.INTRA.norm>
-0.111255

>  <SCORE.RESTR>
0

>  <SCORE.RESTR.CAVITY>
0

>  <SCORE.RESTR.norm>
0

>  <SCORE.SYSTEM>
0

>  <SCORE.SYSTEM.CONST>
0

>  <SCORE.SYSTEM.DIHEDRAL>
0

>  <SCORE.SYSTEM.SOLV>
0

>  <SCORE.SYSTEM.norm>
0

>  <SCORE.heavy>
10

>  <SCORE.norm>
-0.715082

>  <RMSD>
5.528

$$$$
ligand
 OpenBabel11021811473D
libRbt.so/2013.1/901 2013/11/27
 10  9  0  0  0  0  0  0  0  0999 V2000
   25.7733   14.9454   20.6524 N   0  0  0  0  0  0  0  0  0  0  0  0
   26.9912   15.6418   20.1396 C   0  0  2  0  0  0  0  0  0  0  0  0
   27.4403   15.0732   18.8001 C   0  0  0  0  0  0  0  0  0  0  0  0
   28.0919   15.7446   18.0075 O   0  0  0  0  0  0  0  0  0  0  0  0
   28.1263   15.5862   21.1651 C   0  0  0  0  0  0  0  0  0  0  0  0
   29.3534   16.3861   20.7626 C   0  0  0  0  0  0  0  0  0  0  0  0
   30.4565   16.2888   21.8091 C   0  0  0  0  0  0  0  0  0  0  0  0
   31.6886   17.0596   21.3643 C   0  0  0  0  0  0  0  0  0  0  0  0
   32.7890   17.0412   22.3927 N   0  0  0  0  0  0  0  0  0  0  0  0
   27.1997   13.9205   18.4680 O   0  0  0  0  0  0  0  0  0  0  0  0
  2  1  1  1  0  0  0
  2  3  1  0  0  0  0
  2  5  1  0  0  0  0
  3  4  1  0  0  0  0
  3 10  1  0  0  0  0
  5  6  1  0  0  0  0
  6  7  1  0  0  0  0
  7  8  1  0  0  0  0
  8  9  1  0  0  0  0
M  END
>  <CHROM.1>
154.88469658,-174.63024213,-179.51619993,178.19041842,177.62642011,28.79101035
15.75332796,20.32036088,2.60638307,-0.30090608,-1.74441886

>  <Name>
ligand

>  <RI>
0

>  <Rbt.Current_Directory>
/home/itssahil/PROJECTS/Mol_Feturizer/New_Systems/rnas/3DIZ

>  <Rbt.Executable>
rbdock ($Id: //depot/dev/client3/rdock/2013.1/src/exe/rbdock.cxx#4 $)

>  <Rbt.Library>
libRbt.so (2013.1, Build901 2013/11/27)

>  <Rbt.Parameter_File>
/export/apps/rDock/src/rDock_2013.1_src/data/scripts/dock_solv.prm

>  <Rbt.Receptor>
prm/pocket_docking_8.prm

>  <SCORE>
-8.74414

>  <SCORE.INTER>
-6.68036

>  <SCORE.INTER.CONST>
1

>  <SCORE.INTER.POLAR>
0

>  <SCORE.INTER.ROT>
5

>  <SCORE.INTER.SOLV>
19.4958

>  <SCORE.INTER.VDW>
-17.8855

>  <SCORE.INTER.norm>
-0.668036

>  <SCORE.INTRA>
-2.06378

>  <SCORE.INTRA.DIHEDRAL>
-2.09204

>  <SCORE.INTRA.DIHEDRAL.0>
3.67053

>  <SCORE.INTRA.POLAR>
0

>  <SCORE.INTRA.POLAR.0>
0

>  <SCORE.INTRA.REPUL>
0

>  <SCORE.INTRA.REPUL.0>
0

>  <SCORE.INTRA.SOLV>
-1.71626

>  <SCORE.INTRA.SOLV.lig_0>
-32.0553

>  <SCORE.INTRA.VDW>
-0.15963

>  <SCORE.INTRA.VDW.0>
-0.571921

>  <SCORE.INTRA.norm>
-0.206378

>  <SCORE.RESTR>
0

>  <SCORE.RESTR.CAVITY>
0

>  <SCORE.RESTR.norm>
0

>  <SCORE.SYSTEM>
0

>  <SCORE.SYSTEM.CONST>
0

>  <SCORE.SYSTEM.DIHEDRAL>
0

>  <SCORE.SYSTEM.SOLV>
0

>  <SCORE.SYSTEM.norm>
0

>  <SCORE.heavy>
10

>  <SCORE.norm>
-0.874414

>  <RMSD>
5.532

$$$$
ligand
 OpenBabel11021811473D
libRbt.so/2013.1/901 2013/11/27
 10  9  0  0  0  0  0  0  0  0999 V2000
   28.7605   15.1843   19.1831 N   0  0  0  0  0  0  0  0  0  0  0  0
   28.4516   15.2530   20.6430 C   0  0  2  0  0  0  0  0  0  0  0  0
   26.9507   15.2350   20.9003 C   0  0  0  0  0  0  0  0  0  0  0  0
   26.1461   15.4566   20.0020 O   0  0  0  0  0  0  0  0  0  0  0  0
   29.1010   16.4827   21.2827 C   0  0  0  0  0  0  0  0  0  0  0  0
   30.6192   16.4335   21.2987 C   0  0  0  0  0  0  0  0  0  0  0  0
   31.2154   17.6713   21.9574 C   0  0  0  0  0  0  0  0  0  0  0  0
   32.7295   17.5629   22.0336 C   0  0  0  0  0  0  0  0  0  0  0  0
   33.3593   18.7186   22.7660 N   0  0  0  0  0  0  0  0  0  0  0  0
   26.4811   14.9713   21.9989 O   0  0  0  0  0  0  0  0  0  0  0  0
  2  1  1  6  0  0  0
  2  3  1  0  0  0  0
  2  5  1  0  0  0  0
  3  4  1  0  0  0  0
  3 10  1  0  0  0  0
  5  6  1  0  0  0  0
  6  7  1  0  0  0  0
  7  8  1  0  0  0  0
  8  9  1  0  0  0  0
M  END
>  <CHROM.1>
-15.75621950,-66.43265150,-179.41187154,176.74054426,-175.89375254,29.33655023
16.28908880,21.20925223,-2.75584721,0.34888431,1.22580744

>  <Name>
ligand

>  <RI>
0

>  <Rbt.Current_Directory>
/home/itssahil/PROJECTS/Mol_Feturizer/New_Systems/rnas/3DIZ

>  <Rbt.Executable>
rbdock ($Id: //depot/dev/client3/rdock/2013.1/src/exe/rbdock.cxx#4 $)

>  <Rbt.Library>
libRbt.so (2013.1, Build901 2013/11/27)

>  <Rbt.Parameter_File>
/export/apps/rDock/src/rDock_2013.1_src/data/scripts/dock_solv.prm

>  <Rbt.Receptor>
prm/blind_docking_60.prm

>  <SCORE>
-9.58332

>  <SCORE.INTER>
-7.99406

>  <SCORE.INTER.CONST>
1

>  <SCORE.INTER.POLAR>
0

>  <SCORE.INTER.ROT>
5

>  <SCORE.INTER.SOLV>
12.9619

>  <SCORE.INTER.VDW>
-16.5833

>  <SCORE.INTER.norm>
-0.799406

>  <SCORE.INTRA>
-1.58926

>  <SCORE.INTRA.DIHEDRAL>
-1.83438

>  <SCORE.INTRA.DIHEDRAL.0>
3.67053

>  <SCORE.INTRA.POLAR>
0

>  <SCORE.INTRA.POLAR.0>
0

>  <SCORE.INTRA.REPUL>
0

>  <SCORE.INTRA.REPUL.0>
0

>  <SCORE.INTRA.SOLV>
-0.887629

>  <SCORE.INTRA.SOLV.lig_0>
-32.0553

>  <SCORE.INTRA.VDW>
-0.228259

>  <SCORE.INTRA.VDW.0>
-0.571921

>  <SCORE.INTRA.norm>
-0.158926

>  <SCORE.RESTR>
0

>  <SCORE.RESTR.CAVITY>
0

>  <SCORE.RESTR.norm>
0

>  <SCORE.SYSTEM>
0

>  <SCORE.SYSTEM.CONST>
0

>  <SCORE.SYSTEM.DIHEDRAL>
0

>  <SCORE.SYSTEM.SOLV>
0

>  <SCORE.SYSTEM.norm>
0

>  <SCORE.heavy>
10

>  <SCORE.norm>
-0.958332

>  <RMSD>
5.535

$$$$
ligand
 OpenBabel11021811473D
libRbt.so/2013.1/901 2013/11/27
 10  9  0  0  0  0  0  0  0  0999 V2000
   28.7129   15.1454   19.0644 N   0  0  0  0  0  0  0  0  0  0  0  0
   28.3764   15.1771   20.5194 C   0  0  2  0  0  0  0  0  0  0  0  0
   26.8706   15.1746   20.7471 C   0  0  0  0  0  0  0  0  0  0  0  0
   26.3871   14.8226   21.8176 O   0  0  0  0  0  0  0  0  0  0  0  0
   29.0311   16.3779   21.2069 C   0  0  0  0  0  0  0  0  0  0  0  0
   30.5493   16.3566   21.1590 C   0  0  0  0  0  0  0  0  0  0  0  0
   31.1518   17.5518   21.8871 C   0  0  0  0  0  0  0  0  0  0  0  0
   32.6701   17.4847   21.8650 C   0  0  0  0  0  0  0  0  0  0  0  0
   33.3137   18.6316   22.5993 N   0  0  0  0  0  0  0  0  0  0  0  0
   26.0815   15.5488   19.8902 O   0  0  0  0  0  0  0  0  0  0  0  0
  2  1  1  6  0  0  0
  2  3  1  0  0  0  0
  2  5  1  0  0  0  0
  3  4  1  0  0  0  0
  3 10  1  0  0  0  0
  5  6  1  0  0  0  0
  6  7  1  0  0  0  0
  7  8  1  0  0  0  0
  8  9  1  0  0  0  0
M  END
>  <CHROM.1>
159.07021350,-62.09790167,-178.50794463,178.14310302,-178.76799019,29.26945864
16.22033579,21.07813134,-2.76746699,0.34693327,1.24104454

>  <Name>
ligand

>  <RI>
0

>  <Rbt.Current_Directory>
/home/itssahil/PROJECTS/Mol_Feturizer/New_Systems/rnas/3DIZ

>  <Rbt.Executable>
rbdock ($Id: //depot/dev/client3/rdock/2013.1/src/exe/rbdock.cxx#4 $)

>  <Rbt.Library>
libRbt.so (2013.1, Build901 2013/11/27)

>  <Rbt.Parameter_File>
/export/apps/rDock/src/rDock_2013.1_src/data/scripts/dock_solv.prm

>  <Rbt.Receptor>
prm/pocket_docking_6.prm

>  <SCORE>
-9.65137

>  <SCORE.INTER>
-7.91525

>  <SCORE.INTER.CONST>
1

>  <SCORE.INTER.POLAR>
0

>  <SCORE.INTER.ROT>
5

>  <SCORE.INTER.SOLV>
13.1292

>  <SCORE.INTER.VDW>
-16.5866

>  <SCORE.INTER.norm>
-0.791525

>  <SCORE.INTRA>
-1.73612

>  <SCORE.INTRA.DIHEDRAL>
-2.17356

>  <SCORE.INTRA.DIHEDRAL.0>
3.67053

>  <SCORE.INTRA.POLAR>
0

>  <SCORE.INTRA.POLAR.0>
0

>  <SCORE.INTRA.REPUL>
0

>  <SCORE.INTRA.REPUL.0>
0

>  <SCORE.INTRA.SOLV>
-0.849312

>  <SCORE.INTRA.SOLV.lig_0>
-32.0553

>  <SCORE.INTRA.VDW>
-0.224688

>  <SCORE.INTRA.VDW.0>
-0.571921

>  <SCORE.INTRA.norm>
-0.173612

>  <SCORE.RESTR>
0

>  <SCORE.RESTR.CAVITY>
0

>  <SCORE.RESTR.norm>
0

>  <SCORE.SYSTEM>
0

>  <SCORE.SYSTEM.CONST>
0

>  <SCORE.SYSTEM.DIHEDRAL>
0

>  <SCORE.SYSTEM.SOLV>
0

>  <SCORE.SYSTEM.norm>
0

>  <SCORE.heavy>
10

>  <SCORE.norm>
-0.965137

>  <RMSD>
5.536

$$$$
ligand
 OpenBabel11021811473D
libRbt.so/2013.1/901 2013/11/27
 10  9  0  0  0  0  0  0  0  0999 V2000
   25.7939   14.9288   20.6442 N   0  0  0  0  0  0  0  0  0  0  0  0
   27.0199   15.5975   20.1138 C   0  0  2  0  0  0  0  0  0  0  0  0
   27.4672   14.9835   18.7939 C   0  0  0  0  0  0  0  0  0  0  0  0
   27.1626   13.8359   18.4875 O   0  0  0  0  0  0  0  0  0  0  0  0
   28.1515   15.5630   21.1440 C   0  0  0  0  0  0  0  0  0  0  0  0
   29.3705   16.3747   20.7403 C   0  0  0  0  0  0  0  0  0  0  0  0
   30.4835   16.2708   21.7756 C   0  0  0  0  0  0  0  0  0  0  0  0
   31.7006   17.0692   21.3380 C   0  0  0  0  0  0  0  0  0  0  0  0
   32.8108   17.0420   22.3556 N   0  0  0  0  0  0  0  0  0  0  0  0
   28.1204   15.6113   17.9715 O   0  0  0  0  0  0  0  0  0  0  0  0
  2  1  1  1  0  0  0
  2  3  1  0  0  0  0
  2  5  1  0  0  0  0
  3  4  1  0  0  0  0
  3 10  1  0  0  0  0
  5  6  1  0  0  0  0
  6  7  1  0  0  0  0
  7  8  1  0  0  0  0
  8  9  1  0  0  0  0
M  END
>  <CHROM.1>
-23.82956174,-172.79367912,-178.12409978,178.94226669,177.74740189,28.80724767
15.71108446,20.30082105,2.60092924,-0.29939988,-1.77252510

>  <Name>
ligand

>  <RI>
0

>  <Rbt.Current_Directory>
/home/itssahil/PROJECTS/Mol_Feturizer/New_Systems/rnas/3DIZ

>  <Rbt.Executable>
rbdock ($Id: //depot/dev/client3/rdock/2013.1/src/exe/rbdock.cxx#4 $)

>  <Rbt.Library>
libRbt.so (2013.1, Build901 2013/11/27)

>  <Rbt.Parameter_File>
/export/apps/rDock/src/rDock_2013.1_src/data/scripts/dock_solv.prm

>  <Rbt.Receptor>
prm/pocket_docking_7.prm

>  <SCORE>
-8.74628

>  <SCORE.INTER>
-6.75374

>  <SCORE.INTER.CONST>
1

>  <SCORE.INTER.POLAR>
0

>  <SCORE.INTER.ROT>
5

>  <SCORE.INTER.SOLV>
19.4032

>  <SCORE.INTER.VDW>
-17.9036

>  <SCORE.INTER.norm>
-0.675374

>  <SCORE.INTRA>
-1.99254

>  <SCORE.INTRA.DIHEDRAL>
-1.88355

>  <SCORE.INTRA.DIHEDRAL.0>
3.67053

>  <SCORE.INTRA.POLAR>
0

>  <SCORE.INTRA.POLAR.0>
0

>  <SCORE.INTRA.REPUL>
0

>  <SCORE.INTRA.REPUL.0>
0

>  <SCORE.INTRA.SOLV>
-1.70093

>  <SCORE.INTRA.SOLV.lig_0>
-32.0553

>  <SCORE.INTRA.VDW>
-0.200301

>  <SCORE.INTRA.VDW.0>
-0.571921

>  <SCORE.INTRA.norm>
-0.199254

>  <SCORE.RESTR>
0

>  <SCORE.RESTR.CAVITY>
0

>  <SCORE.RESTR.norm>
0

>  <SCORE.SYSTEM>
0

>  <SCORE.SYSTEM.CONST>
0

>  <SCORE.SYSTEM.DIHEDRAL>
0

>  <SCORE.SYSTEM.SOLV>
0

>  <SCORE.SYSTEM.norm>
0

>  <SCORE.heavy>
10

>  <SCORE.norm>
-0.874628

>  <RMSD>
5.541

$$$$
ligand
 OpenBabel11021811473D
libRbt.so/2013.1/901 2013/11/27
 10  9  0  0  0  0  0  0  0  0999 V2000
   28.9169   14.7949   19.3073 N   0  0  0  0  0  0  0  0  0  0  0  0
   28.4095   15.1081   20.6770 C   0  0  2  0  0  0  0  0  0  0  0  0
   26.8901   15.2081   20.7030 C   0  0  0  0  0  0  0  0  0  0  0  0
   26.2353   14.7430   21.6296 O   0  0  0  0  0  0  0  0  0  0  0  0
   29.0508   16.3880   21.2190 C   0  0  0  0  0  0  0  0  0  0  0  0
   30.5616   16.3050   21.3535 C   0  0  0  0  0  0  0  0  0  0  0  0
   31.1447   17.5822   21.9453 C   0  0  0  0  0  0  0  0  0  0  0  0
   32.6556   17.4750   22.0714 C   0  0  0  0  0  0  0  0  0  0  0  0
   33.2682   18.6679   22.7573 N   0  0  0  0  0  0  0  0  0  0  0  0
   26.2595   15.7784   19.8232 O   0  0  0  0  0  0  0  0  0  0  0  0
  2  1  1  6  0  0  0
  2  3  1  0  0  0  0
  2  5  1  0  0  0  0
  3  4  1  0  0  0  0
  3 10  1  0  0  0  0
  5  6  1  0  0  0  0
  6  7  1  0  0  0  0
  7  8  1  0  0  0  0
  8  9  1  0  0  0  0
M  END
>  <CHROM.1>
139.42773532,-61.18670228,-177.84477382,179.93982013,-175.23341394,29.29390646
16.20059372,21.14663734,-2.67460972,0.24601708,1.01648041

>  <Name>
ligand

>  <RI>
0

>  <Rbt.Current_Directory>
/home/itssahil/PROJECTS/Mol_Feturizer/New_Systems/rnas/3DIZ

>  <Rbt.Executable>
rbdock ($Id: //depot/dev/client3/rdock/2013.1/src/exe/rbdock.cxx#4 $)

>  <Rbt.Library>
libRbt.so (2013.1, Build901 2013/11/27)

>  <Rbt.Parameter_File>
/export/apps/rDock/src/rDock_2013.1_src/data/scripts/dock_solv.prm

>  <Rbt.Receptor>
prm/pocket_docking_4.prm

>  <SCORE>
-9.83093

>  <SCORE.INTER>
-8.07387

>  <SCORE.INTER.CONST>
1

>  <SCORE.INTER.POLAR>
0

>  <SCORE.INTER.ROT>
5

>  <SCORE.INTER.SOLV>
13.7935

>  <SCORE.INTER.VDW>
-16.9137

>  <SCORE.INTER.norm>
-0.807387

>  <SCORE.INTRA>
-1.75706

>  <SCORE.INTRA.DIHEDRAL>
-2.10467

>  <SCORE.INTRA.DIHEDRAL.0>
3.67053

>  <SCORE.INTRA.POLAR>
0

>  <SCORE.INTRA.POLAR.0>
0

>  <SCORE.INTRA.REPUL>
0

>  <SCORE.INTRA.REPUL.0>
0

>  <SCORE.INTRA.SOLV>
-0.849052

>  <SCORE.INTRA.SOLV.lig_0>
-32.0553

>  <SCORE.INTRA.VDW>
-0.280202

>  <SCORE.INTRA.VDW.0>
-0.571921

>  <SCORE.INTRA.norm>
-0.175706

>  <SCORE.RESTR>
0

>  <SCORE.RESTR.CAVITY>
0

>  <SCORE.RESTR.norm>
0

>  <SCORE.SYSTEM>
0

>  <SCORE.SYSTEM.CONST>
0

>  <SCORE.SYSTEM.DIHEDRAL>
0

>  <SCORE.SYSTEM.SOLV>
0

>  <SCORE.SYSTEM.norm>
0

>  <SCORE.heavy>
10

>  <SCORE.norm>
-0.983093

>  <RMSD>
5.542

$$$$
ligand
 OpenBabel11021811473D
libRbt.so/2013.1/901 2013/11/27
 10  9  0  0  0  0  0  0  0  0999 V2000
   28.8466   14.9280   19.2070 N   0  0  0  0  0  0  0  0  0  0  0  0
   28.3878   15.1094   20.6170 C   0  0  2  0  0  0  0  0  0  0  0  0
   26.8693   15.1823   20.7077 C   0  0  0  0  0  0  0  0  0  0  0  0
   26.2013   15.7087   19.8245 O   0  0  0  0  0  0  0  0  0  0  0  0
   29.0330   16.3458   21.2480 C   0  0  0  0  0  0  0  0  0  0  0  0
   30.5479   16.2700   21.3301 C   0  0  0  0  0  0  0  0  0  0  0  0
   31.1389   17.5134   21.9830 C   0  0  0  0  0  0  0  0  0  0  0  0
   32.6551   17.4233   22.0360 C   0  0  0  0  0  0  0  0  0  0  0  0
   33.2819   18.5850   22.7616 N   0  0  0  0  0  0  0  0  0  0  0  0
   26.2485   14.6966   21.6436 O   0  0  0  0  0  0  0  0  0  0  0  0
  2  1  1  6  0  0  0
  2  3  1  0  0  0  0
  2  5  1  0  0  0  0
  3  4  1  0  0  0  0
  3 10  1  0  0  0  0
  5  6  1  0  0  0  0
  6  7  1  0  0  0  0
  7  8  1  0  0  0  0
  8  9  1  0  0  0  0
M  END
>  <CHROM.1>
-34.72642301,-61.69847295,-179.16892715,-179.20046692,-175.90699490,29.27566001
16.17068106,21.13448420,-2.70749109,0.28962947,1.13051862

>  <Name>
ligand

>  <RI>
0

>  <Rbt.Current_Directory>
/home/itssahil/PROJECTS/Mol_Feturizer/New_Systems/rnas/3DIZ

>  <Rbt.Executable>
rbdock ($Id: //depot/dev/client3/rdock/2013.1/src/exe/rbdock.cxx#4 $)

>  <Rbt.Library>
libRbt.so (2013.1, Build901 2013/11/27)

>  <Rbt.Parameter_File>
/export/apps/rDock/src/rDock_2013.1_src/data/scripts/dock_solv.prm

>  <Rbt.Receptor>
prm/pocket_docking_4.prm

>  <SCORE>
-9.7061

>  <SCORE.INTER>
-8.00301

>  <SCORE.INTER.CONST>
1

>  <SCORE.INTER.POLAR>
0

>  <SCORE.INTER.ROT>
5

>  <SCORE.INTER.SOLV>
13.4654

>  <SCORE.INTER.VDW>
-16.7571

>  <SCORE.INTER.norm>
-0.800301

>  <SCORE.INTRA>
-1.70309

>  <SCORE.INTRA.DIHEDRAL>
-2.02614

>  <SCORE.INTRA.DIHEDRAL.0>
3.67053

>  <SCORE.INTRA.POLAR>
0

>  <SCORE.INTRA.POLAR.0>
0

>  <SCORE.INTRA.REPUL>
0

>  <SCORE.INTRA.REPUL.0>
0

>  <SCORE.INTRA.SOLV>
-0.832563

>  <SCORE.INTRA.SOLV.lig_0>
-32.0553

>  <SCORE.INTRA.VDW>
-0.273733

>  <SCORE.INTRA.VDW.0>
-0.571921

>  <SCORE.INTRA.norm>
-0.170309

>  <SCORE.RESTR>
0

>  <SCORE.RESTR.CAVITY>
0

>  <SCORE.RESTR.norm>
0

>  <SCORE.SYSTEM>
0

>  <SCORE.SYSTEM.CONST>
0

>  <SCORE.SYSTEM.DIHEDRAL>
0

>  <SCORE.SYSTEM.SOLV>
0

>  <SCORE.SYSTEM.norm>
0

>  <SCORE.heavy>
10

>  <SCORE.norm>
-0.97061

>  <RMSD>
5.546

$$$$
ligand
 OpenBabel11021811473D
libRbt.so/2013.1/901 2013/11/27
 10  9  0  0  0  0  0  0  0  0999 V2000
   28.9545   14.7539   19.4280 N   0  0  0  0  0  0  0  0  0  0  0  0
   28.4129   15.1235   20.7702 C   0  0  2  0  0  0  0  0  0  0  0  0
   26.8956   15.2522   20.7468 C   0  0  0  0  0  0  0  0  0  0  0  0
   26.3214   15.8782   19.8625 O   0  0  0  0  0  0  0  0  0  0  0  0
   29.0626   16.4092   21.2877 C   0  0  0  0  0  0  0  0  0  0  0  0
   30.5731   16.3197   21.4215 C   0  0  0  0  0  0  0  0  0  0  0  0
   31.1680   17.6150   21.9598 C   0  0  0  0  0  0  0  0  0  0  0  0
   32.6761   17.4941   22.1050 C   0  0  0  0  0  0  0  0  0  0  0  0
   33.2958   18.6998   22.7615 N   0  0  0  0  0  0  0  0  0  0  0  0
   26.1833   14.7167   21.5851 O   0  0  0  0  0  0  0  0  0  0  0  0
  2  1  1  6  0  0  0
  2  3  1  0  0  0  0
  2  5  1  0  0  0  0
  3  4  1  0  0  0  0
  3 10  1  0  0  0  0
  5  6  1  0  0  0  0
  6  7  1  0  0  0  0
  7  8  1  0  0  0  0
  8  9  1  0  0  0  0
M  END
>  <CHROM.1>
-46.75321671,-59.03032805,-179.10822144,179.12736933,-174.31334928,29.30893321
16.22190706,21.18911036,-2.66049857,0.20819806,0.93495157

>  <Name>
ligand

>  <RI>
0

>  <Rbt.Current_Directory>
/home/itssahil/PROJECTS/Mol_Feturizer/New_Systems/rnas/3DIZ

>  <Rbt.Executable>
rbdock ($Id: //depot/dev/client3/rdock/2013.1/src/exe/rbdock.cxx#4 $)

>  <Rbt.Library>
libRbt.so (2013.1, Build901 2013/11/27)

>  <Rbt.Parameter_File>
/export/apps/rDock/src/rDock_2013.1_src/data/scripts/dock_solv.prm

>  <Rbt.Receptor>
prm/pocket_docking_4.prm

>  <SCORE>
-9.73916

>  <SCORE.INTER>
-8.08373

>  <SCORE.INTER.CONST>
1

>  <SCORE.INTER.POLAR>
0

>  <SCORE.INTER.ROT>
5

>  <SCORE.INTER.SOLV>
13.8861

>  <SCORE.INTER.VDW>
-16.9512

>  <SCORE.INTER.norm>
-0.808373

>  <SCORE.INTRA>
-1.65543

>  <SCORE.INTRA.DIHEDRAL>
-2.0035

>  <SCORE.INTRA.DIHEDRAL.0>
3.67053

>  <SCORE.INTRA.POLAR>
0

>  <SCORE.INTRA.POLAR.0>
0

>  <SCORE.INTRA.REPUL>
0

>  <SCORE.INTRA.REPUL.0>
0

>  <SCORE.INTRA.SOLV>
-0.802851

>  <SCORE.INTRA.SOLV.lig_0>
-32.0553

>  <SCORE.INTRA.VDW>
-0.252254

>  <SCORE.INTRA.VDW.0>
-0.571921

>  <SCORE.INTRA.norm>
-0.165543

>  <SCORE.RESTR>
0

>  <SCORE.RESTR.CAVITY>
0

>  <SCORE.RESTR.norm>
0

>  <SCORE.SYSTEM>
0

>  <SCORE.SYSTEM.CONST>
0

>  <SCORE.SYSTEM.DIHEDRAL>
0

>  <SCORE.SYSTEM.SOLV>
0

>  <SCORE.SYSTEM.norm>
0

>  <SCORE.heavy>
10

>  <SCORE.norm>
-0.973916

>  <RMSD>
5.548

$$$$
ligand
 OpenBabel11021811473D
libRbt.so/2013.1/901 2013/11/27
 10  9  0  0  0  0  0  0  0  0999 V2000
   28.8797   14.7413   19.2387 N   0  0  0  0  0  0  0  0  0  0  0  0
   28.3752   14.9548   20.6285 C   0  0  2  0  0  0  0  0  0  0  0  0
   26.8558   15.0503   20.6651 C   0  0  0  0  0  0  0  0  0  0  0  0
   26.2241   15.5419   19.7362 O   0  0  0  0  0  0  0  0  0  0  0  0
   29.0161   16.1935   21.2593 C   0  0  0  0  0  0  0  0  0  0  0  0
   30.5272   16.1029   21.3853 C   0  0  0  0  0  0  0  0  0  0  0  0
   31.1189   17.3723   21.9853 C   0  0  0  0  0  0  0  0  0  0  0  0
   32.6319   17.2657   22.0831 C   0  0  0  0  0  0  0  0  0  0  0  0
   33.2559   18.4546   22.7658 N   0  0  0  0  0  0  0  0  0  0  0  0
   26.1982   14.6177   21.6018 O   0  0  0  0  0  0  0  0  0  0  0  0
  2  1  1  6  0  0  0
  2  3  1  0  0  0  0
  2  5  1  0  0  0  0
  3  4  1  0  0  0  0
  3 10  1  0  0  0  0
  5  6  1  0  0  0  0
  6  7  1  0  0  0  0
  7  8  1  0  0  0  0
  8  9  1  0  0  0  0
M  END
>  <CHROM.1>
-33.02635535,-61.24342017,178.55778309,-179.20124736,-175.68655083,29.26290815
16.02444836,21.13224404,-2.68972838,0.26946391,1.09804041

>  <Name>
ligand

>  <RI>
0

>  <Rbt.Current_Directory>
/home/itssahil/PROJECTS/Mol_Feturizer/New_Systems/rnas/3DIZ

>  <Rbt.Executable>
rbdock ($Id: //depot/dev/client3/rdock/2013.1/src/exe/rbdock.cxx#4 $)

>  <Rbt.Library>
libRbt.so (2013.1, Build901 2013/11/27)

>  <Rbt.Parameter_File>
/export/apps/rDock/src/rDock_2013.1_src/data/scripts/dock_solv.prm

>  <Rbt.Receptor>
prm/pocket_docking_6.prm

>  <SCORE>
-9.73809

>  <SCORE.INTER>
-8.05599

>  <SCORE.INTER.CONST>
1

>  <SCORE.INTER.POLAR>
0

>  <SCORE.INTER.ROT>
5

>  <SCORE.INTER.SOLV>
13.8918

>  <SCORE.INTER.VDW>
-16.9346

>  <SCORE.INTER.norm>
-0.805599

>  <SCORE.INTRA>
-1.68211

>  <SCORE.INTRA.DIHEDRAL>
-2.01814

>  <SCORE.INTRA.DIHEDRAL.0>
3.67053

>  <SCORE.INTRA.POLAR>
0

>  <SCORE.INTRA.POLAR.0>
0

>  <SCORE.INTRA.REPUL>
0

>  <SCORE.INTRA.REPUL.0>
0

>  <SCORE.INTRA.SOLV>
-0.814741

>  <SCORE.INTRA.SOLV.lig_0>
-32.0553

>  <SCORE.INTRA.VDW>
-0.265665

>  <SCORE.INTRA.VDW.0>
-0.571921

>  <SCORE.INTRA.norm>
-0.168211

>  <SCORE.RESTR>
0

>  <SCORE.RESTR.CAVITY>
0

>  <SCORE.RESTR.norm>
0

>  <SCORE.SYSTEM>
0

>  <SCORE.SYSTEM.CONST>
0

>  <SCORE.SYSTEM.DIHEDRAL>
0

>  <SCORE.SYSTEM.SOLV>
0

>  <SCORE.SYSTEM.norm>
0

>  <SCORE.heavy>
10

>  <SCORE.norm>
-0.973809

>  <RMSD>
5.548

$$$$
ligand
 OpenBabel11021811473D
libRbt.so/2013.1/901 2013/11/27
 10  9  0  0  0  0  0  0  0  0999 V2000
   28.8288   14.8601   19.2686 N   0  0  0  0  0  0  0  0  0  0  0  0
   28.3608   15.1189   20.6633 C   0  0  2  0  0  0  0  0  0  0  0  0
   26.8430   15.2203   20.7360 C   0  0  0  0  0  0  0  0  0  0  0  0
   26.1956   15.7599   19.8453 O   0  0  0  0  0  0  0  0  0  0  0  0
   29.0206   16.3748   21.2381 C   0  0  0  0  0  0  0  0  0  0  0  0
   30.5322   16.2742   21.3507 C   0  0  0  0  0  0  0  0  0  0  0  0
   31.1393   17.5468   21.9280 C   0  0  0  0  0  0  0  0  0  0  0  0
   32.6519   17.4278   22.0176 C   0  0  0  0  0  0  0  0  0  0  0  0
   33.2956   18.6430   22.6322 N   0  0  0  0  0  0  0  0  0  0  0  0
   26.2020   14.7457   21.6638 O   0  0  0  0  0  0  0  0  0  0  0  0
  2  1  1  6  0  0  0
  2  3  1  0  0  0  0
  2  5  1  0  0  0  0
  3  4  1  0  0  0  0
  3 10  1  0  0  0  0
  5  6  1  0  0  0  0
  6  7  1  0  0  0  0
  7  8  1  0  0  0  0
  8  9  1  0  0  0  0
M  END
>  <CHROM.1>
-37.64635746,-62.25336986,-179.95808376,-179.42295832,-177.81393529,29.26154326
16.19223339,21.13285480,-2.70605678,0.26942528,1.06953030

>  <Name>
ligand

>  <RI>
0

>  <Rbt.Current_Directory>
/home/itssahil/PROJECTS/Mol_Feturizer/New_Systems/rnas/3DIZ

>  <Rbt.Executable>
rbdock ($Id: //depot/dev/client3/rdock/2013.1/src/exe/rbdock.cxx#4 $)

>  <Rbt.Library>
libRbt.so (2013.1, Build901 2013/11/27)

>  <Rbt.Parameter_File>
/export/apps/rDock/src/rDock_2013.1_src/data/scripts/dock_solv.prm

>  <Rbt.Receptor>
prm/pocket_docking_6.prm

>  <SCORE>
-9.83416

>  <SCORE.INTER>
-8.09593

>  <SCORE.INTER.CONST>
1

>  <SCORE.INTER.POLAR>
0

>  <SCORE.INTER.ROT>
5

>  <SCORE.INTER.SOLV>
13.474

>  <SCORE.INTER.VDW>
-16.8219

>  <SCORE.INTER.norm>
-0.809593

>  <SCORE.INTRA>
-1.73823

>  <SCORE.INTRA.DIHEDRAL>
-2.06921

>  <SCORE.INTRA.DIHEDRAL.0>
3.67053

>  <SCORE.INTRA.POLAR>
0

>  <SCORE.INTRA.POLAR.0>
0

>  <SCORE.INTRA.REPUL>
0

>  <SCORE.INTRA.REPUL.0>
0

>  <SCORE.INTRA.SOLV>
-0.837769

>  <SCORE.INTRA.SOLV.lig_0>
-32.0553

>  <SCORE.INTRA.VDW>
-0.284736

>  <SCORE.INTRA.VDW.0>
-0.571921

>  <SCORE.INTRA.norm>
-0.173823

>  <SCORE.RESTR>
0

>  <SCORE.RESTR.CAVITY>
0

>  <SCORE.RESTR.norm>
0

>  <SCORE.SYSTEM>
0

>  <SCORE.SYSTEM.CONST>
0

>  <SCORE.SYSTEM.DIHEDRAL>
0

>  <SCORE.SYSTEM.SOLV>
0

>  <SCORE.SYSTEM.norm>
0

>  <SCORE.heavy>
10

>  <SCORE.norm>
-0.983416

>  <RMSD>
5.549

$$$$
ligand
 OpenBabel11021811473D
libRbt.so/2013.1/901 2013/11/27
 10  9  0  0  0  0  0  0  0  0999 V2000
   28.8532   14.7917   19.3158 N   0  0  0  0  0  0  0  0  0  0  0  0
   28.3713   15.0957   20.6967 C   0  0  2  0  0  0  0  0  0  0  0  0
   26.8532   15.2022   20.7504 C   0  0  0  0  0  0  0  0  0  0  0  0
   26.2187   15.7437   19.8515 O   0  0  0  0  0  0  0  0  0  0  0  0
   29.0280   16.3681   21.2380 C   0  0  0  0  0  0  0  0  0  0  0  0
   30.5347   16.2583   21.3969 C   0  0  0  0  0  0  0  0  0  0  0  0
   31.1374   17.5444   21.9485 C   0  0  0  0  0  0  0  0  0  0  0  0
   32.6476   17.4217   22.0683 C   0  0  0  0  0  0  0  0  0  0  0  0
   33.2862   18.6518   22.6581 N   0  0  0  0  0  0  0  0  0  0  0  0
   26.1990   14.7300   21.6702 O   0  0  0  0  0  0  0  0  0  0  0  0
  2  1  1  6  0  0  0
  2  3  1  0  0  0  0
  2  5  1  0  0  0  0
  3  4  1  0  0  0  0
  3 10  1  0  0  0  0
  5  6  1  0  0  0  0
  6  7  1  0  0  0  0
  7  8  1  0  0  0  0
  8  9  1  0  0  0  0
M  END
>  <CHROM.1>
-39.46111720,-63.46501188,-179.52660159,-178.69745265,-177.87740379,29.26750740
16.17594116,21.15749796,-2.69206387,0.25643512,1.03494285

>  <Name>
ligand

>  <RI>
0

>  <Rbt.Current_Directory>
/home/itssahil/PROJECTS/Mol_Feturizer/New_Systems/rnas/3DIZ

>  <Rbt.Executable>
rbdock ($Id: //depot/dev/client3/rdock/2013.1/src/exe/rbdock.cxx#4 $)

>  <Rbt.Library>
libRbt.so (2013.1, Build901 2013/11/27)

>  <Rbt.Parameter_File>
/export/apps/rDock/src/rDock_2013.1_src/data/scripts/dock_solv.prm

>  <Rbt.Receptor>
prm/pocket_docking_7.prm

>  <SCORE>
-9.73049

>  <SCORE.INTER>
-7.98614

>  <SCORE.INTER.CONST>
1

>  <SCORE.INTER.POLAR>
0

>  <SCORE.INTER.ROT>
5

>  <SCORE.INTER.SOLV>
13.6401

>  <SCORE.INTER.VDW>
-16.8041

>  <SCORE.INTER.norm>
-0.798614

>  <SCORE.INTRA>
-1.74435

>  <SCORE.INTRA.DIHEDRAL>
-2.03659

>  <SCORE.INTRA.DIHEDRAL.0>
3.67053

>  <SCORE.INTRA.POLAR>
0

>  <SCORE.INTRA.POLAR.0>
0

>  <SCORE.INTRA.REPUL>
0

>  <SCORE.INTRA.REPUL.0>
0

>  <SCORE.INTRA.SOLV>
-0.856259

>  <SCORE.INTRA.SOLV.lig_0>
-32.0553

>  <SCORE.INTRA.VDW>
-0.297928

>  <SCORE.INTRA.VDW.0>
-0.571921

>  <SCORE.INTRA.norm>
-0.174435

>  <SCORE.RESTR>
0

>  <SCORE.RESTR.CAVITY>
0

>  <SCORE.RESTR.norm>
0

>  <SCORE.SYSTEM>
0

>  <SCORE.SYSTEM.CONST>
0

>  <SCORE.SYSTEM.DIHEDRAL>
0

>  <SCORE.SYSTEM.SOLV>
0

>  <SCORE.SYSTEM.norm>
0

>  <SCORE.heavy>
10

>  <SCORE.norm>
-0.973049

>  <RMSD>
5.549

$$$$
ligand
 OpenBabel11021811473D
libRbt.so/2013.1/901 2013/11/27
 10  9  0  0  0  0  0  0  0  0999 V2000
   28.6226   14.9346   19.0029 N   0  0  0  0  0  0  0  0  0  0  0  0
   28.2295   15.0109   20.4421 C   0  0  2  0  0  0  0  0  0  0  0  0
   26.7183   15.1032   20.6066 C   0  0  0  0  0  0  0  0  0  0  0  0
   26.1555   14.6557   21.5998 O   0  0  0  0  0  0  0  0  0  0  0  0
   28.9277   16.1812   21.1391 C   0  0  0  0  0  0  0  0  0  0  0  0
   30.4437   16.0871   21.1209 C   0  0  0  0  0  0  0  0  0  0  0  0
   31.0907   17.3023   21.7738 C   0  0  0  0  0  0  0  0  0  0  0  0
   32.6057   17.2141   21.6903 C   0  0  0  0  0  0  0  0  0  0  0  0
   33.2922   18.4124   22.2917 N   0  0  0  0  0  0  0  0  0  0  0  0
   26.0048   15.6501   19.7767 O   0  0  0  0  0  0  0  0  0  0  0  0
  2  1  1  6  0  0  0
  2  3  1  0  0  0  0
  2  5  1  0  0  0  0
  3  4  1  0  0  0  0
  3 10  1  0  0  0  0
  5  6  1  0  0  0  0
  6  7  1  0  0  0  0
  7  8  1  0  0  0  0
  8  9  1  0  0  0  0
M  END
>  <CHROM.1>
150.49079829,-60.47267049,177.58854224,-177.56385714,178.50234878,29.16367157
16.05080807,20.94572076,-2.77964572,0.30754591,1.20106779

>  <Name>
ligand

>  <RI>
0

>  <Rbt.Current_Directory>
/home/itssahil/PROJECTS/Mol_Feturizer/New_Systems/rnas/3DIZ

>  <Rbt.Executable>
rbdock ($Id: //depot/dev/client3/rdock/2013.1/src/exe/rbdock.cxx#4 $)

>  <Rbt.Library>
libRbt.so (2013.1, Build901 2013/11/27)

>  <Rbt.Parameter_File>
/export/apps/rDock/src/rDock_2013.1_src/data/scripts/dock_solv.prm

>  <Rbt.Receptor>
prm/pocket_docking_2.prm

>  <SCORE>
-9.73018

>  <SCORE.INTER>
-7.98731

>  <SCORE.INTER.CONST>
1

>  <SCORE.INTER.POLAR>
0

>  <SCORE.INTER.ROT>
5

>  <SCORE.INTER.SOLV>
13.2773

>  <SCORE.INTER.VDW>
-16.684

>  <SCORE.INTER.norm>
-0.798731

>  <SCORE.INTRA>
-1.74288

>  <SCORE.INTRA.DIHEDRAL>
-2.17015

>  <SCORE.INTRA.DIHEDRAL.0>
3.67053

>  <SCORE.INTRA.POLAR>
0

>  <SCORE.INTRA.POLAR.0>
0

>  <SCORE.INTRA.REPUL>
0

>  <SCORE.INTRA.REPUL.0>
0

>  <SCORE.INTRA.SOLV>
-0.813141

>  <SCORE.INTRA.SOLV.lig_0>
-32.0553

>  <SCORE.INTRA.VDW>
-0.251232

>  <SCORE.INTRA.VDW.0>
-0.571921

>  <SCORE.INTRA.norm>
-0.174288

>  <SCORE.RESTR>
0

>  <SCORE.RESTR.CAVITY>
0

>  <SCORE.RESTR.norm>
0

>  <SCORE.SYSTEM>
0

>  <SCORE.SYSTEM.CONST>
0

>  <SCORE.SYSTEM.DIHEDRAL>
0

>  <SCORE.SYSTEM.SOLV>
0

>  <SCORE.SYSTEM.norm>
0

>  <SCORE.heavy>
10

>  <SCORE.norm>
-0.973018

>  <RMSD>
5.550

$$$$
ligand
 OpenBabel11021811473D
libRbt.so/2013.1/901 2013/11/27
 10  9  0  0  0  0  0  0  0  0999 V2000
   28.5988   14.8017   19.1120 N   0  0  0  0  0  0  0  0  0  0  0  0
   28.1991   14.9911   20.5389 C   0  0  2  0  0  0  0  0  0  0  0  0
   26.6898   15.1316   20.6847 C   0  0  0  0  0  0  0  0  0  0  0  0
   26.0099   15.6577   19.8104 O   0  0  0  0  0  0  0  0  0  0  0  0
   28.9219   16.1914   21.1552 C   0  0  0  0  0  0  0  0  0  0  0  0
   30.4353   16.0601   21.1542 C   0  0  0  0  0  0  0  0  0  0  0  0
   31.1078   17.2973   21.7361 C   0  0  0  0  0  0  0  0  0  0  0  0
   32.6207   17.1680   21.6694 C   0  0  0  0  0  0  0  0  0  0  0  0
   33.3324   18.3826   22.2052 N   0  0  0  0  0  0  0  0  0  0  0  0
   26.0867   14.7030   21.6592 O   0  0  0  0  0  0  0  0  0  0  0  0
  2  1  1  6  0  0  0
  2  3  1  0  0  0  0
  2  5  1  0  0  0  0
  3  4  1  0  0  0  0
  3 10  1  0  0  0  0
  5  6  1  0  0  0  0
  6  7  1  0  0  0  0
  7  8  1  0  0  0  0
  8  9  1  0  0  0  0
M  END
>  <CHROM.1>
-32.37827515,-60.41671936,178.16757216,-177.55592332,178.68746444,29.15463140
16.03472680,20.97318175,-2.78103603,0.28378343,1.13503800

>  <Name>
ligand

>  <RI>
0

>  <Rbt.Current_Directory>
/home/itssahil/PROJECTS/Mol_Feturizer/New_Systems/rnas/3DIZ

>  <Rbt.Executable>
rbdock ($Id: //depot/dev/client3/rdock/2013.1/src/exe/rbdock.cxx#4 $)

>  <Rbt.Library>
libRbt.so (2013.1, Build901 2013/11/27)

>  <Rbt.Parameter_File>
/export/apps/rDock/src/rDock_2013.1_src/data/scripts/dock_solv.prm

>  <Rbt.Receptor>
prm/pocket_docking_3.prm

>  <SCORE>
-9.80828

>  <SCORE.INTER>
-8.12081

>  <SCORE.INTER.CONST>
1

>  <SCORE.INTER.POLAR>
0

>  <SCORE.INTER.ROT>
5

>  <SCORE.INTER.SOLV>
13.1936

>  <SCORE.INTER.VDW>
-16.7451

>  <SCORE.INTER.norm>
-0.812081

>  <SCORE.INTRA>
-1.68747

>  <SCORE.INTRA.DIHEDRAL>
-2.06085

>  <SCORE.INTRA.DIHEDRAL.0>
3.67053

>  <SCORE.INTRA.POLAR>
0

>  <SCORE.INTRA.POLAR.0>
0

>  <SCORE.INTRA.REPUL>
0

>  <SCORE.INTRA.REPUL.0>
0

>  <SCORE.INTRA.SOLV>
-0.803162

>  <SCORE.INTRA.SOLV.lig_0>
-32.0553

>  <SCORE.INTRA.VDW>
-0.255465

>  <SCORE.INTRA.VDW.0>
-0.571921

>  <SCORE.INTRA.norm>
-0.168747

>  <SCORE.RESTR>
0

>  <SCORE.RESTR.CAVITY>
0

>  <SCORE.RESTR.norm>
0

>  <SCORE.SYSTEM>
0

>  <SCORE.SYSTEM.CONST>
0

>  <SCORE.SYSTEM.DIHEDRAL>
0

>  <SCORE.SYSTEM.SOLV>
0

>  <SCORE.SYSTEM.norm>
0

>  <SCORE.heavy>
10

>  <SCORE.norm>
-0.980828

>  <RMSD>
5.555

$$$$
ligand
 OpenBabel11021811473D
libRbt.so/2013.1/901 2013/11/27
 10  9  0  0  0  0  0  0  0  0999 V2000
   28.7574   14.7757   19.2054 N   0  0  0  0  0  0  0  0  0  0  0  0
   28.2735   14.9998   20.6008 C   0  0  2  0  0  0  0  0  0  0  0  0
   26.7559   15.1128   20.6568 C   0  0  0  0  0  0  0  0  0  0  0  0
   26.1182   14.6822   21.6115 O   0  0  0  0  0  0  0  0  0  0  0  0
   28.9367   16.2333   21.2187 C   0  0  0  0  0  0  0  0  0  0  0  0
   30.4524   16.1490   21.2745 C   0  0  0  0  0  0  0  0  0  0  0  0
   31.0638   17.4059   21.8811 C   0  0  0  0  0  0  0  0  0  0  0  0
   32.5804   17.3092   21.9023 C   0  0  0  0  0  0  0  0  0  0  0  0
   33.2320   18.5205   22.5162 N   0  0  0  0  0  0  0  0  0  0  0  0
   26.1103   15.6606   19.7736 O   0  0  0  0  0  0  0  0  0  0  0  0
  2  1  1  6  0  0  0
  2  3  1  0  0  0  0
  2  5  1  0  0  0  0
  3  4  1  0  0  0  0
  3 10  1  0  0  0  0
  5  6  1  0  0  0  0
  6  7  1  0  0  0  0
  7  8  1  0  0  0  0
  8  9  1  0  0  0  0
M  END
>  <CHROM.1>
145.13761570,-58.93472111,179.30018167,-178.93325725,-179.00318203,29.18262088
16.08083873,21.06288198,-2.71567617,0.26907347,1.07612702

>  <Name>
ligand

>  <RI>
0

>  <Rbt.Current_Directory>
/home/itssahil/PROJECTS/Mol_Feturizer/New_Systems/rnas/3DIZ

>  <Rbt.Executable>
rbdock ($Id: //depot/dev/client3/rdock/2013.1/src/exe/rbdock.cxx#4 $)

>  <Rbt.Library>
libRbt.so (2013.1, Build901 2013/11/27)

>  <Rbt.Parameter_File>
/export/apps/rDock/src/rDock_2013.1_src/data/scripts/dock_solv.prm

>  <Rbt.Receptor>
prm/pocket_docking_8.prm

>  <SCORE>
-9.83982

>  <SCORE.INTER>
-8.08053

>  <SCORE.INTER.CONST>
1

>  <SCORE.INTER.POLAR>
0

>  <SCORE.INTER.ROT>
5

>  <SCORE.INTER.SOLV>
13.5209

>  <SCORE.INTER.VDW>
-16.8273

>  <SCORE.INTER.norm>
-0.808053

>  <SCORE.INTRA>
-1.7593

>  <SCORE.INTRA.DIHEDRAL>
-2.21383

>  <SCORE.INTRA.DIHEDRAL.0>
3.67053

>  <SCORE.INTRA.POLAR>
0

>  <SCORE.INTRA.POLAR.0>
0

>  <SCORE.INTRA.REPUL>
0

>  <SCORE.INTRA.REPUL.0>
0

>  <SCORE.INTRA.SOLV>
-0.805384

>  <SCORE.INTRA.SOLV.lig_0>
-32.0553

>  <SCORE.INTRA.VDW>
-0.24969

>  <SCORE.INTRA.VDW.0>
-0.571921

>  <SCORE.INTRA.norm>
-0.17593

>  <SCORE.RESTR>
0

>  <SCORE.RESTR.CAVITY>
0

>  <SCORE.RESTR.norm>
0

>  <SCORE.SYSTEM>
0

>  <SCORE.SYSTEM.CONST>
0

>  <SCORE.SYSTEM.DIHEDRAL>
0

>  <SCORE.SYSTEM.SOLV>
0

>  <SCORE.SYSTEM.norm>
0

>  <SCORE.heavy>
10

>  <SCORE.norm>
-0.983982

>  <RMSD>
5.555

$$$$
ligand
 OpenBabel11021811473D
libRbt.so/2013.1/901 2013/11/27
 10  9  0  0  0  0  0  0  0  0999 V2000
   28.6733   14.6446   19.2563 N   0  0  0  0  0  0  0  0  0  0  0  0
   28.2161   14.9552   20.6441 C   0  0  2  0  0  0  0  0  0  0  0  0
   26.7033   15.1150   20.7137 C   0  0  0  0  0  0  0  0  0  0  0  0
   26.0795   15.6833   19.8241 O   0  0  0  0  0  0  0  0  0  0  0  0
   28.9228   16.1994   21.1878 C   0  0  0  0  0  0  0  0  0  0  0  0
   30.4333   16.0587   21.2674 C   0  0  0  0  0  0  0  0  0  0  0  0
   31.0949   17.3501   21.7321 C   0  0  0  0  0  0  0  0  0  0  0  0
   32.6083   17.2107   21.7266 C   0  0  0  0  0  0  0  0  0  0  0  0
   33.3109   18.4793   22.1336 N   0  0  0  0  0  0  0  0  0  0  0  0
   26.0421   14.6616   21.6379 O   0  0  0  0  0  0  0  0  0  0  0  0
  2  1  1  6  0  0  0
  2  3  1  0  0  0  0
  2  5  1  0  0  0  0
  3  4  1  0  0  0  0
  3 10  1  0  0  0  0
  5  6  1  0  0  0  0
  6  7  1  0  0  0  0
  7  8  1  0  0  0  0
  8  9  1  0  0  0  0
M  END
>  <CHROM.1>
-39.32945605,-60.66666449,176.48919645,-176.71721662,178.01214632,29.16280749
16.03237044,21.01147052,-2.74770606,0.25659358,1.01349968

>  <Name>
ligand

>  <RI>
0

>  <Rbt.Current_Directory>
/home/itssahil/PROJECTS/Mol_Feturizer/New_Systems/rnas/3DIZ

>  <Rbt.Executable>
rbdock ($Id: //depot/dev/client3/rdock/2013.1/src/exe/rbdock.cxx#4 $)

>  <Rbt.Library>
libRbt.so (2013.1, Build901 2013/11/27)

>  <Rbt.Parameter_File>
/export/apps/rDock/src/rDock_2013.1_src/data/scripts/dock_solv.prm

>  <Rbt.Receptor>
prm/pocket_docking_8.prm

>  <SCORE>
-9.81001

>  <SCORE.INTER>
-8.13667

>  <SCORE.INTER.CONST>
1

>  <SCORE.INTER.POLAR>
0

>  <SCORE.INTER.ROT>
5

>  <SCORE.INTER.SOLV>
13.5368

>  <SCORE.INTER.VDW>
-16.87

>  <SCORE.INTER.norm>
-0.813667

>  <SCORE.INTRA>
-1.67334

>  <SCORE.INTRA.DIHEDRAL>
-2.00167

>  <SCORE.INTRA.DIHEDRAL.0>
3.67053

>  <SCORE.INTRA.POLAR>
0

>  <SCORE.INTRA.POLAR.0>
0

>  <SCORE.INTRA.REPUL>
0

>  <SCORE.INTRA.REPUL.0>
0

>  <SCORE.INTRA.SOLV>
-0.799919

>  <SCORE.INTRA.SOLV.lig_0>
-32.0553

>  <SCORE.INTRA.VDW>
-0.272544

>  <SCORE.INTRA.VDW.0>
-0.571921

>  <SCORE.INTRA.norm>
-0.167334

>  <SCORE.RESTR>
0

>  <SCORE.RESTR.CAVITY>
0

>  <SCORE.RESTR.norm>
0

>  <SCORE.SYSTEM>
0

>  <SCORE.SYSTEM.CONST>
0

>  <SCORE.SYSTEM.DIHEDRAL>
0

>  <SCORE.SYSTEM.SOLV>
0

>  <SCORE.SYSTEM.norm>
0

>  <SCORE.heavy>
10

>  <SCORE.norm>
-0.981001

>  <RMSD>
5.555

$$$$
ligand
 OpenBabel11021811473D
libRbt.so/2013.1/901 2013/11/27
 10  9  0  0  0  0  0  0  0  0999 V2000
   28.6458   15.2096   18.9474 N   0  0  0  0  0  0  0  0  0  0  0  0
   28.2794   15.1084   20.3920 C   0  0  2  0  0  0  0  0  0  0  0  0
   26.7693   15.1095   20.5891 C   0  0  0  0  0  0  0  0  0  0  0  0
   26.0154   15.5812   19.7448 O   0  0  0  0  0  0  0  0  0  0  0  0
   28.9373   16.2274   21.2033 C   0  0  0  0  0  0  0  0  0  0  0  0
   30.4553   16.2114   21.1476 C   0  0  0  0  0  0  0  0  0  0  0  0
   31.0597   17.3578   21.9487 C   0  0  0  0  0  0  0  0  0  0  0  0
   32.5765   17.3382   21.8543 C   0  0  0  0  0  0  0  0  0  0  0  0
   33.2254   18.4093   22.6912 N   0  0  0  0  0  0  0  0  0  0  0  0
   26.2408   14.6172   21.5766 O   0  0  0  0  0  0  0  0  0  0  0  0
  2  1  1  6  0  0  0
  2  3  1  0  0  0  0
  2  5  1  0  0  0  0
  3  4  1  0  0  0  0
  3 10  1  0  0  0  0
  5  6  1  0  0  0  0
  6  7  1  0  0  0  0
  7  8  1  0  0  0  0
  8  9  1  0  0  0  0
M  END
>  <CHROM.1>
-22.55926414,-60.27934535,178.95584363,-178.81953759,-176.90489044,29.17527552
16.10994011,21.01022504,-2.77068203,0.34920546,1.32425746

>  <Name>
ligand

>  <RI>
0

>  <Rbt.Current_Directory>
/home/itssahil/PROJECTS/Mol_Feturizer/New_Systems/rnas/3DIZ

>  <Rbt.Executable>
rbdock ($Id: //depot/dev/client3/rdock/2013.1/src/exe/rbdock.cxx#4 $)

>  <Rbt.Library>
libRbt.so (2013.1, Build901 2013/11/27)

>  <Rbt.Parameter_File>
/export/apps/rDock/src/rDock_2013.1_src/data/scripts/dock_solv.prm

>  <Rbt.Receptor>
prm/pocket_docking_3.prm

>  <SCORE>
-9.70982

>  <SCORE.INTER>
-8.06463

>  <SCORE.INTER.CONST>
1

>  <SCORE.INTER.POLAR>
0

>  <SCORE.INTER.ROT>
5

>  <SCORE.INTER.SOLV>
13.3052

>  <SCORE.INTER.VDW>
-16.7448

>  <SCORE.INTER.norm>
-0.806463

>  <SCORE.INTRA>
-1.64519

>  <SCORE.INTRA.DIHEDRAL>
-2.06218

>  <SCORE.INTRA.DIHEDRAL.0>
3.67053

>  <SCORE.INTRA.POLAR>
0

>  <SCORE.INTRA.POLAR.0>
0

>  <SCORE.INTRA.REPUL>
0

>  <SCORE.INTRA.REPUL.0>
0

>  <SCORE.INTRA.SOLV>
-0.801929

>  <SCORE.INTRA.SOLV.lig_0>
-32.0553

>  <SCORE.INTRA.VDW>
-0.213135

>  <SCORE.INTRA.VDW.0>
-0.571921

>  <SCORE.INTRA.norm>
-0.164519

>  <SCORE.RESTR>
0

>  <SCORE.RESTR.CAVITY>
0

>  <SCORE.RESTR.norm>
0

>  <SCORE.SYSTEM>
0

>  <SCORE.SYSTEM.CONST>
0

>  <SCORE.SYSTEM.DIHEDRAL>
0

>  <SCORE.SYSTEM.SOLV>
0

>  <SCORE.SYSTEM.norm>
0

>  <SCORE.heavy>
10

>  <SCORE.norm>
-0.970982

>  <RMSD>
5.558

$$$$
ligand
 OpenBabel11021811473D
libRbt.so/2013.1/901 2013/11/27
 10  9  0  0  0  0  0  0  0  0999 V2000
   28.7380   14.8349   19.2202 N   0  0  0  0  0  0  0  0  0  0  0  0
   28.2629   14.9926   20.6276 C   0  0  2  0  0  0  0  0  0  0  0  0
   26.7447   15.0859   20.7000 C   0  0  0  0  0  0  0  0  0  0  0  0
   26.1258   14.6805   21.6778 O   0  0  0  0  0  0  0  0  0  0  0  0
   28.9175   16.2055   21.2937 C   0  0  0  0  0  0  0  0  0  0  0  0
   30.4354   16.1491   21.3096 C   0  0  0  0  0  0  0  0  0  0  0  0
   31.0383   17.3985   21.9396 C   0  0  0  0  0  0  0  0  0  0  0  0
   32.5565   17.3324   21.9171 C   0  0  0  0  0  0  0  0  0  0  0  0
   33.2009   18.5508   22.5247 N   0  0  0  0  0  0  0  0  0  0  0  0
   26.0797   15.5927   19.8067 O   0  0  0  0  0  0  0  0  0  0  0  0
  2  1  1  6  0  0  0
  2  3  1  0  0  0  0
  2  5  1  0  0  0  0
  3  4  1  0  0  0  0
  3 10  1  0  0  0  0
  5  6  1  0  0  0  0
  6  7  1  0  0  0  0
  7  8  1  0  0  0  0
  8  9  1  0  0  0  0
M  END
>  <CHROM.1>
149.68169179,-57.78180177,178.07219408,-178.78108699,179.73622980,29.16457951
16.07769099,21.10083669,-2.72693796,0.29369473,1.11732624

>  <Name>
ligand

>  <RI>
0

>  <Rbt.Current_Directory>
/home/itssahil/PROJECTS/Mol_Feturizer/New_Systems/rnas/3DIZ

>  <Rbt.Executable>
rbdock ($Id: //depot/dev/client3/rdock/2013.1/src/exe/rbdock.cxx#4 $)

>  <Rbt.Library>
libRbt.so (2013.1, Build901 2013/11/27)

>  <Rbt.Parameter_File>
/export/apps/rDock/src/rDock_2013.1_src/data/scripts/dock_solv.prm

>  <Rbt.Receptor>
prm/pocket_docking_6.prm

>  <SCORE>
-9.78178

>  <SCORE.INTER>
-8.06982

>  <SCORE.INTER.CONST>
1

>  <SCORE.INTER.POLAR>
0

>  <SCORE.INTER.ROT>
5

>  <SCORE.INTER.SOLV>
13.44

>  <SCORE.INTER.VDW>
-16.7932

>  <SCORE.INTER.norm>
-0.806982

>  <SCORE.INTRA>
-1.71197

>  <SCORE.INTRA.DIHEDRAL>
-2.19319

>  <SCORE.INTRA.DIHEDRAL.0>
3.67053

>  <SCORE.INTRA.POLAR>
0

>  <SCORE.INTRA.POLAR.0>
0

>  <SCORE.INTRA.REPUL>
0

>  <SCORE.INTRA.REPUL.0>
0

>  <SCORE.INTRA.SOLV>
-0.782651

>  <SCORE.INTRA.SOLV.lig_0>
-32.0553

>  <SCORE.INTRA.VDW>
-0.224046

>  <SCORE.INTRA.VDW.0>
-0.571921

>  <SCORE.INTRA.norm>
-0.171197

>  <SCORE.RESTR>
0

>  <SCORE.RESTR.CAVITY>
0

>  <SCORE.RESTR.norm>
0

>  <SCORE.SYSTEM>
0

>  <SCORE.SYSTEM.CONST>
0

>  <SCORE.SYSTEM.DIHEDRAL>
0

>  <SCORE.SYSTEM.SOLV>
0

>  <SCORE.SYSTEM.norm>
0

>  <SCORE.heavy>
10

>  <SCORE.norm>
-0.978178

>  <RMSD>
5.559

$$$$
ligand
 OpenBabel11021811473D
libRbt.so/2013.1/901 2013/11/27
 10  9  0  0  0  0  0  0  0  0999 V2000
   28.6643   15.0233   19.0578 N   0  0  0  0  0  0  0  0  0  0  0  0
   28.2550   15.0633   20.4939 C   0  0  2  0  0  0  0  0  0  0  0  0
   26.7405   15.1167   20.6442 C   0  0  0  0  0  0  0  0  0  0  0  0
   26.1835   14.6952   21.6519 O   0  0  0  0  0  0  0  0  0  0  0  0
   28.9180   16.2367   21.2197 C   0  0  0  0  0  0  0  0  0  0  0  0
   30.4360   16.1793   21.2149 C   0  0  0  0  0  0  0  0  0  0  0  0
   31.0461   17.3667   21.9492 C   0  0  0  0  0  0  0  0  0  0  0  0
   32.5640   17.3104   21.8940 C   0  0  0  0  0  0  0  0  0  0  0  0
   33.2156   18.4518   22.6298 N   0  0  0  0  0  0  0  0  0  0  0  0
   26.0175   15.6058   19.7868 O   0  0  0  0  0  0  0  0  0  0  0  0
  2  1  1  6  0  0  0
  2  3  1  0  0  0  0
  2  5  1  0  0  0  0
  3  4  1  0  0  0  0
  3 10  1  0  0  0  0
  5  6  1  0  0  0  0
  6  7  1  0  0  0  0
  7  8  1  0  0  0  0
  8  9  1  0  0  0  0
M  END
>  <CHROM.1>
154.03242163,-60.43814643,-179.96603474,-178.23975174,-178.92186650,29.15875958
16.09960921,21.05478217,-2.74927165,0.31480769,1.22350883

>  <Name>
ligand

>  <RI>
0

>  <Rbt.Current_Directory>
/home/itssahil/PROJECTS/Mol_Feturizer/New_Systems/rnas/3DIZ

>  <Rbt.Executable>
rbdock ($Id: //depot/dev/client3/rdock/2013.1/src/exe/rbdock.cxx#4 $)

>  <Rbt.Library>
libRbt.so (2013.1, Build901 2013/11/27)

>  <Rbt.Parameter_File>
/export/apps/rDock/src/rDock_2013.1_src/data/scripts/dock_solv.prm

>  <Rbt.Receptor>
prm/blind_docking_60.prm

>  <SCORE>
-9.83904

>  <SCORE.INTER>
-8.08703

>  <SCORE.INTER.CONST>
1

>  <SCORE.INTER.POLAR>
0

>  <SCORE.INTER.ROT>
5

>  <SCORE.INTER.SOLV>
13.2904

>  <SCORE.INTER.VDW>
-16.7548

>  <SCORE.INTER.norm>
-0.808703

>  <SCORE.INTRA>
-1.75201

>  <SCORE.INTRA.DIHEDRAL>
-2.21024

>  <SCORE.INTRA.DIHEDRAL.0>
3.67053

>  <SCORE.INTRA.POLAR>
0

>  <SCORE.INTRA.POLAR.0>
0

>  <SCORE.INTRA.REPUL>
0

>  <SCORE.INTRA.REPUL.0>
0

>  <SCORE.INTRA.SOLV>
-0.823432

>  <SCORE.INTRA.SOLV.lig_0>
-32.0553

>  <SCORE.INTRA.VDW>
-0.235169

>  <SCORE.INTRA.VDW.0>
-0.571921

>  <SCORE.INTRA.norm>
-0.175201

>  <SCORE.RESTR>
0

>  <SCORE.RESTR.CAVITY>
0

>  <SCORE.RESTR.norm>
0

>  <SCORE.SYSTEM>
0

>  <SCORE.SYSTEM.CONST>
0

>  <SCORE.SYSTEM.DIHEDRAL>
0

>  <SCORE.SYSTEM.SOLV>
0

>  <SCORE.SYSTEM.norm>
0

>  <SCORE.heavy>
10

>  <SCORE.norm>
-0.983904

>  <RMSD>
5.560

$$$$
ligand
 OpenBabel11021811473D
libRbt.so/2013.1/901 2013/11/27
 10  9  0  0  0  0  0  0  0  0999 V2000
   28.8678   14.1127   19.8800 N   0  0  0  0  0  0  0  0  0  0  0  0
   28.2515   14.8833   21.0015 C   0  0  2  0  0  0  0  0  0  0  0  0
   26.7676   15.1299   20.7638 C   0  0  0  0  0  0  0  0  0  0  0  0
   26.3756   15.8009   19.8153 O   0  0  0  0  0  0  0  0  0  0  0  0
   28.9943   16.2016   21.2332 C   0  0  0  0  0  0  0  0  0  0  0  0
   30.4582   16.0225   21.5971 C   0  0  0  0  0  0  0  0  0  0  0  0
   31.1582   17.3621   21.7888 C   0  0  0  0  0  0  0  0  0  0  0  0
   32.6470   17.1621   22.0205 C   0  0  0  0  0  0  0  0  0  0  0  0
   33.3936   18.4626   22.1617 N   0  0  0  0  0  0  0  0  0  0  0  0
   25.9036   14.6492   21.4845 O   0  0  0  0  0  0  0  0  0  0  0  0
  2  1  1  6  0  0  0
  2  3  1  0  0  0  0
  2  5  1  0  0  0  0
  3  4  1  0  0  0  0
  3 10  1  0  0  0  0
  5  6  1  0  0  0  0
  6  7  1  0  0  0  0
  7  8  1  0  0  0  0
  8  9  1  0  0  0  0
M  END
>  <CHROM.1>
-63.15949141,-60.37668656,178.82647468,-174.59537679,177.72984931,29.23664955
15.97747529,21.16711156,-2.66777888,-0.02754146,0.41878931

>  <Name>
ligand

>  <RI>
0

>  <Rbt.Current_Directory>
/home/itssahil/PROJECTS/Mol_Feturizer/New_Systems/rnas/3DIZ

>  <Rbt.Executable>
rbdock ($Id: //depot/dev/client3/rdock/2013.1/src/exe/rbdock.cxx#4 $)

>  <Rbt.Library>
libRbt.so (2013.1, Build901 2013/11/27)

>  <Rbt.Parameter_File>
/export/apps/rDock/src/rDock_2013.1_src/data/scripts/dock_solv.prm

>  <Rbt.Receptor>
prm/pocket_docking_2.prm

>  <SCORE>
-9.53361

>  <SCORE.INTER>
-7.92551

>  <SCORE.INTER.CONST>
1

>  <SCORE.INTER.POLAR>
0

>  <SCORE.INTER.ROT>
5

>  <SCORE.INTER.SOLV>
15.3321

>  <SCORE.INTER.VDW>
-17.3277

>  <SCORE.INTER.norm>
-0.792551

>  <SCORE.INTRA>
-1.6209

>  <SCORE.INTRA.DIHEDRAL>
-2.03501

>  <SCORE.INTRA.DIHEDRAL.0>
3.67053

>  <SCORE.INTRA.POLAR>
0

>  <SCORE.INTRA.POLAR.0>
0

>  <SCORE.INTRA.REPUL>
0

>  <SCORE.INTRA.REPUL.0>
0

>  <SCORE.INTRA.SOLV>
-0.818338

>  <SCORE.INTRA.SOLV.lig_0>
-32.0553

>  <SCORE.INTRA.VDW>
-0.194227

>  <SCORE.INTRA.VDW.0>
-0.571921

>  <SCORE.INTRA.norm>
-0.16209

>  <SCORE.RESTR>
0.0128044

>  <SCORE.RESTR.CAVITY>
0.0128044

>  <SCORE.RESTR.norm>
0.00128044

>  <SCORE.SYSTEM>
0

>  <SCORE.SYSTEM.CONST>
0

>  <SCORE.SYSTEM.DIHEDRAL>
0

>  <SCORE.SYSTEM.SOLV>
0

>  <SCORE.SYSTEM.norm>
0

>  <SCORE.heavy>
10

>  <SCORE.norm>
-0.953361

>  <RMSD>
5.561

$$$$
ligand
 OpenBabel11021811473D
libRbt.so/2013.1/901 2013/11/27
 10  9  0  0  0  0  0  0  0  0999 V2000
   28.5840   14.8172   19.1196 N   0  0  0  0  0  0  0  0  0  0  0  0
   28.1873   14.9749   20.5511 C   0  0  2  0  0  0  0  0  0  0  0  0
   26.6779   15.1083   20.7034 C   0  0  0  0  0  0  0  0  0  0  0  0
   25.9862   15.5895   19.8126 O   0  0  0  0  0  0  0  0  0  0  0  0
   28.9085   16.1635   21.1914 C   0  0  0  0  0  0  0  0  0  0  0  0
   30.4225   16.0409   21.1750 C   0  0  0  0  0  0  0  0  0  0  0  0
   31.0919   17.2517   21.8132 C   0  0  0  0  0  0  0  0  0  0  0  0
   32.6051   17.1325   21.7349 C   0  0  0  0  0  0  0  0  0  0  0  0
   33.3141   18.3080   22.3548 N   0  0  0  0  0  0  0  0  0  0  0  0
   26.0866   14.7175   21.7007 O   0  0  0  0  0  0  0  0  0  0  0  0
  2  1  1  6  0  0  0
  2  3  1  0  0  0  0
  2  5  1  0  0  0  0
  3  4  1  0  0  0  0
  3 10  1  0  0  0  0
  5  6  1  0  0  0  0
  6  7  1  0  0  0  0
  7  8  1  0  0  0  0
  8  9  1  0  0  0  0
M  END
>  <CHROM.1>
-28.60362597,-59.99586640,179.56350448,-177.71991826,-179.96461984,29.14081742
16.00657099,21.01628683,-2.77790791,0.28352810,1.16360836

>  <Name>
ligand

>  <RI>
0

>  <Rbt.Current_Directory>
/home/itssahil/PROJECTS/Mol_Feturizer/New_Systems/rnas/3DIZ

>  <Rbt.Executable>
rbdock ($Id: //depot/dev/client3/rdock/2013.1/src/exe/rbdock.cxx#4 $)

>  <Rbt.Library>
libRbt.so (2013.1, Build901 2013/11/27)

>  <Rbt.Parameter_File>
/export/apps/rDock/src/rDock_2013.1_src/data/scripts/dock_solv.prm

>  <Rbt.Receptor>
prm/pocket_docking_7.prm

>  <SCORE>
-9.70845

>  <SCORE.INTER>
-8.02686

>  <SCORE.INTER.CONST>
1

>  <SCORE.INTER.POLAR>
0

>  <SCORE.INTER.ROT>
5

>  <SCORE.INTER.SOLV>
13.2122

>  <SCORE.INTER.VDW>
-16.6886

>  <SCORE.INTER.norm>
-0.802686

>  <SCORE.INTRA>
-1.68159

>  <SCORE.INTRA.DIHEDRAL>
-2.08422

>  <SCORE.INTRA.DIHEDRAL.0>
3.67053

>  <SCORE.INTRA.POLAR>
0

>  <SCORE.INTRA.POLAR.0>
0

>  <SCORE.INTRA.REPUL>
0

>  <SCORE.INTRA.REPUL.0>
0

>  <SCORE.INTRA.SOLV>
-0.803726

>  <SCORE.INTRA.SOLV.lig_0>
-32.0553

>  <SCORE.INTRA.VDW>
-0.237612

>  <SCORE.INTRA.VDW.0>
-0.571921

>  <SCORE.INTRA.norm>
-0.168159

>  <SCORE.RESTR>
0

>  <SCORE.RESTR.CAVITY>
0

>  <SCORE.RESTR.norm>
0

>  <SCORE.SYSTEM>
0

>  <SCORE.SYSTEM.CONST>
0

>  <SCORE.SYSTEM.DIHEDRAL>
0

>  <SCORE.SYSTEM.SOLV>
0

>  <SCORE.SYSTEM.norm>
0

>  <SCORE.heavy>
10

>  <SCORE.norm>
-0.970845

>  <RMSD>
5.562

$$$$
ligand
 OpenBabel11021811473D
libRbt.so/2013.1/901 2013/11/27
 10  9  0  0  0  0  0  0  0  0999 V2000
   28.6599   15.0881   19.0553 N   0  0  0  0  0  0  0  0  0  0  0  0
   28.2577   15.0759   20.4939 C   0  0  2  0  0  0  0  0  0  0  0  0
   26.7438   15.1167   20.6534 C   0  0  0  0  0  0  0  0  0  0  0  0
   26.0229   15.5974   19.7857 O   0  0  0  0  0  0  0  0  0  0  0  0
   28.9189   16.2262   21.2571 C   0  0  0  0  0  0  0  0  0  0  0  0
   30.4371   16.1942   21.2160 C   0  0  0  0  0  0  0  0  0  0  0  0
   31.0452   17.3756   21.9616 C   0  0  0  0  0  0  0  0  0  0  0  0
   32.5624   17.3388   21.8805 C   0  0  0  0  0  0  0  0  0  0  0  0
   33.2127   18.4717   22.6305 N   0  0  0  0  0  0  0  0  0  0  0  0
   26.1789   14.6488   21.6327 O   0  0  0  0  0  0  0  0  0  0  0  0
  2  1  1  6  0  0  0
  2  3  1  0  0  0  0
  2  5  1  0  0  0  0
  3  4  1  0  0  0  0
  3 10  1  0  0  0  0
  5  6  1  0  0  0  0
  6  7  1  0  0  0  0
  7  8  1  0  0  0  0
  8  9  1  0  0  0  0
M  END
>  <CHROM.1>
-25.18222736,-59.11027786,178.68494861,-178.74322516,-178.70425906,29.15861370
16.10711087,21.05677809,-2.75976110,0.33234015,1.25754011

>  <Name>
ligand

>  <RI>
0

>  <Rbt.Current_Directory>
/home/itssahil/PROJECTS/Mol_Feturizer/New_Systems/rnas/3DIZ

>  <Rbt.Executable>
rbdock ($Id: //depot/dev/client3/rdock/2013.1/src/exe/rbdock.cxx#4 $)

>  <Rbt.Library>
libRbt.so (2013.1, Build901 2013/11/27)

>  <Rbt.Parameter_File>
/export/apps/rDock/src/rDock_2013.1_src/data/scripts/dock_solv.prm

>  <Rbt.Receptor>
prm/blind_docking_60.prm

>  <SCORE>
-9.72692

>  <SCORE.INTER>
-8.07659

>  <SCORE.INTER.CONST>
1

>  <SCORE.INTER.POLAR>
0

>  <SCORE.INTER.ROT>
5

>  <SCORE.INTER.SOLV>
13.2505

>  <SCORE.INTER.VDW>
-16.7346

>  <SCORE.INTER.norm>
-0.807659

>  <SCORE.INTRA>
-1.65033

>  <SCORE.INTRA.DIHEDRAL>
-2.08637

>  <SCORE.INTRA.DIHEDRAL.0>
3.67053

>  <SCORE.INTRA.POLAR>
0

>  <SCORE.INTRA.POLAR.0>
0

>  <SCORE.INTRA.REPUL>
0

>  <SCORE.INTRA.REPUL.0>
0

>  <SCORE.INTRA.SOLV>
-0.787108

>  <SCORE.INTRA.SOLV.lig_0>
-32.0553

>  <SCORE.INTRA.VDW>
-0.213587

>  <SCORE.INTRA.VDW.0>
-0.571921

>  <SCORE.INTRA.norm>
-0.165033

>  <SCORE.RESTR>
0

>  <SCORE.RESTR.CAVITY>
0

>  <SCORE.RESTR.norm>
0

>  <SCORE.SYSTEM>
0

>  <SCORE.SYSTEM.CONST>
0

>  <SCORE.SYSTEM.DIHEDRAL>
0

>  <SCORE.SYSTEM.SOLV>
0

>  <SCORE.SYSTEM.norm>
0

>  <SCORE.heavy>
10

>  <SCORE.norm>
-0.972692

>  <RMSD>
5.563

$$$$
ligand
 OpenBabel11021811473D
libRbt.so/2013.1/901 2013/11/27
 10  9  0  0  0  0  0  0  0  0999 V2000
   28.7188   14.4141   19.4295 N   0  0  0  0  0  0  0  0  0  0  0  0
   28.1817   14.8617   20.7496 C   0  0  2  0  0  0  0  0  0  0  0  0
   26.6753   15.0790   20.6978 C   0  0  0  0  0  0  0  0  0  0  0  0
   25.9323   14.6081   21.5520 O   0  0  0  0  0  0  0  0  0  0  0  0
   28.8997   16.1241   21.2333 C   0  0  0  0  0  0  0  0  0  0  0  0
   30.4028   15.9561   21.3749 C   0  0  0  0  0  0  0  0  0  0  0  0
   31.0760   17.2540   21.8035 C   0  0  0  0  0  0  0  0  0  0  0  0
   32.5861   17.0873   21.8462 C   0  0  0  0  0  0  0  0  0  0  0  0
   33.3020   18.3617   22.2097 N   0  0  0  0  0  0  0  0  0  0  0  0
   26.1438   15.7528   19.8257 O   0  0  0  0  0  0  0  0  0  0  0  0
  2  1  1  6  0  0  0
  2  3  1  0  0  0  0
  2  5  1  0  0  0  0
  3  4  1  0  0  0  0
  3 10  1  0  0  0  0
  5  6  1  0  0  0  0
  6  7  1  0  0  0  0
  7  8  1  0  0  0  0
  8  9  1  0  0  0  0
M  END
>  <CHROM.1>
131.57176675,-58.20152203,177.68256829,-176.12840089,177.60486946,29.14630561
15.94845799,21.06922519,-2.70535708,0.15932997,0.82666393

>  <Name>
ligand

>  <RI>
0

>  <Rbt.Current_Directory>
/home/itssahil/PROJECTS/Mol_Feturizer/New_Systems/rnas/3DIZ

>  <Rbt.Executable>
rbdock ($Id: //depot/dev/client3/rdock/2013.1/src/exe/rbdock.cxx#4 $)

>  <Rbt.Library>
libRbt.so (2013.1, Build901 2013/11/27)

>  <Rbt.Parameter_File>
/export/apps/rDock/src/rDock_2013.1_src/data/scripts/dock_solv.prm

>  <Rbt.Receptor>
prm/blind_docking_60.prm

>  <SCORE>
-9.7305

>  <SCORE.INTER>
-8.04876

>  <SCORE.INTER.CONST>
1

>  <SCORE.INTER.POLAR>
0

>  <SCORE.INTER.ROT>
5

>  <SCORE.INTER.SOLV>
14.3097

>  <SCORE.INTER.VDW>
-17.0691

>  <SCORE.INTER.norm>
-0.804876

>  <SCORE.INTRA>
-1.68174

>  <SCORE.INTRA.DIHEDRAL>
-2.08369

>  <SCORE.INTRA.DIHEDRAL.0>
3.67053

>  <SCORE.INTRA.POLAR>
0

>  <SCORE.INTRA.POLAR.0>
0

>  <SCORE.INTRA.REPUL>
0

>  <SCORE.INTRA.REPUL.0>
0

>  <SCORE.INTRA.SOLV>
-0.794951

>  <SCORE.INTRA.SOLV.lig_0>
-32.0553

>  <SCORE.INTRA.VDW>
-0.242426

>  <SCORE.INTRA.VDW.0>
-0.571921

>  <SCORE.INTRA.norm>
-0.168174

>  <SCORE.RESTR>
0

>  <SCORE.RESTR.CAVITY>
0

>  <SCORE.RESTR.norm>
0

>  <SCORE.SYSTEM>
0

>  <SCORE.SYSTEM.CONST>
0

>  <SCORE.SYSTEM.DIHEDRAL>
0

>  <SCORE.SYSTEM.SOLV>
0

>  <SCORE.SYSTEM.norm>
0

>  <SCORE.heavy>
10

>  <SCORE.norm>
-0.97305

>  <RMSD>
5.564

$$$$
ligand
 OpenBabel11021811473D
libRbt.so/2013.1/901 2013/11/27
 10  9  0  0  0  0  0  0  0  0999 V2000
   28.7201   14.9189   19.1067 N   0  0  0  0  0  0  0  0  0  0  0  0
   28.2783   15.0228   20.5299 C   0  0  2  0  0  0  0  0  0  0  0  0
   26.7610   15.0860   20.6431 C   0  0  0  0  0  0  0  0  0  0  0  0
   26.0735   15.5691   19.7501 O   0  0  0  0  0  0  0  0  0  0  0  0
   28.9284   16.2255   21.2185 C   0  0  0  0  0  0  0  0  0  0  0  0
   30.4453   16.1585   21.2621 C   0  0  0  0  0  0  0  0  0  0  0  0
   31.0426   17.3780   21.9532 C   0  0  0  0  0  0  0  0  0  0  0  0
   32.5579   17.2753   22.0095 C   0  0  0  0  0  0  0  0  0  0  0  0
   33.1935   18.4370   22.7272 N   0  0  0  0  0  0  0  0  0  0  0  0
   26.1603   14.6344   21.6086 O   0  0  0  0  0  0  0  0  0  0  0  0
  2  1  1  6  0  0  0
  2  3  1  0  0  0  0
  2  5  1  0  0  0  0
  3  4  1  0  0  0  0
  3 10  1  0  0  0  0
  5  6  1  0  0  0  0
  6  7  1  0  0  0  0
  7  8  1  0  0  0  0
  8  9  1  0  0  0  0
M  END
>  <CHROM.1>
-29.23796569,-60.96553764,179.85986318,178.86177076,-178.01527814,29.17072346
16.06482914,21.07989027,-2.72204986,0.30196095,1.18692913

>  <Name>
ligand

>  <RI>
0

>  <Rbt.Current_Directory>
/home/itssahil/PROJECTS/Mol_Feturizer/New_Systems/rnas/3DIZ

>  <Rbt.Executable>
rbdock ($Id: //depot/dev/client3/rdock/2013.1/src/exe/rbdock.cxx#4 $)

>  <Rbt.Library>
libRbt.so (2013.1, Build901 2013/11/27)

>  <Rbt.Parameter_File>
/export/apps/rDock/src/rDock_2013.1_src/data/scripts/dock_solv.prm

>  <Rbt.Receptor>
prm/pocket_docking_4.prm

>  <SCORE>
-9.70822

>  <SCORE.INTER>
-8.00921

>  <SCORE.INTER.CONST>
1

>  <SCORE.INTER.POLAR>
0

>  <SCORE.INTER.ROT>
5

>  <SCORE.INTER.SOLV>
13.4776

>  <SCORE.INTER.VDW>
-16.7653

>  <SCORE.INTER.norm>
-0.800921

>  <SCORE.INTRA>
-1.69901

>  <SCORE.INTRA.DIHEDRAL>
-2.08057

>  <SCORE.INTRA.DIHEDRAL.0>
3.67053

>  <SCORE.INTRA.POLAR>
0

>  <SCORE.INTRA.POLAR.0>
0

>  <SCORE.INTRA.REPUL>
0

>  <SCORE.INTRA.REPUL.0>
0

>  <SCORE.INTRA.SOLV>
-0.817408

>  <SCORE.INTRA.SOLV.lig_0>
-32.0553

>  <SCORE.INTRA.VDW>
-0.250016

>  <SCORE.INTRA.VDW.0>
-0.571921

>  <SCORE.INTRA.norm>
-0.169901

>  <SCORE.RESTR>
0

>  <SCORE.RESTR.CAVITY>
0

>  <SCORE.RESTR.norm>
0

>  <SCORE.SYSTEM>
0

>  <SCORE.SYSTEM.CONST>
0

>  <SCORE.SYSTEM.DIHEDRAL>
0

>  <SCORE.SYSTEM.SOLV>
0

>  <SCORE.SYSTEM.norm>
0

>  <SCORE.heavy>
10

>  <SCORE.norm>
-0.970822

>  <RMSD>
5.564

$$$$
ligand
 OpenBabel11021811473D
libRbt.so/2013.1/901 2013/11/27
 10  9  0  0  0  0  0  0  0  0999 V2000
   28.6795   15.0023   19.0718 N   0  0  0  0  0  0  0  0  0  0  0  0
   28.2353   15.0212   20.4980 C   0  0  2  0  0  0  0  0  0  0  0  0
   26.7181   15.0851   20.6121 C   0  0  0  0  0  0  0  0  0  0  0  0
   26.1309   14.6254   21.5855 O   0  0  0  0  0  0  0  0  0  0  0  0
   28.8899   16.1761   21.2601 C   0  0  0  0  0  0  0  0  0  0  0  0
   30.4081   16.1575   21.2119 C   0  0  0  0  0  0  0  0  0  0  0  0
   31.0091   17.3462   21.9516 C   0  0  0  0  0  0  0  0  0  0  0  0
   32.5271   17.3082   21.8861 C   0  0  0  0  0  0  0  0  0  0  0  0
   33.1708   18.4316   22.6557 N   0  0  0  0  0  0  0  0  0  0  0  0
   26.0225   15.6202   19.7595 O   0  0  0  0  0  0  0  0  0  0  0  0
  2  1  1  6  0  0  0
  2  3  1  0  0  0  0
  2  5  1  0  0  0  0
  3  4  1  0  0  0  0
  3 10  1  0  0  0  0
  5  6  1  0  0  0  0
  6  7  1  0  0  0  0
  7  8  1  0  0  0  0
  8  9  1  0  0  0  0
M  END
>  <CHROM.1>
152.45161918,-56.52511823,178.44108398,-179.82862827,-177.47229715,29.13378200
16.07222008,21.04892402,-2.74230032,0.31472969,1.21834465

>  <Name>
ligand

>  <RI>
0

>  <Rbt.Current_Directory>
/home/itssahil/PROJECTS/Mol_Feturizer/New_Systems/rnas/3DIZ

>  <Rbt.Executable>
rbdock ($Id: //depot/dev/client3/rdock/2013.1/src/exe/rbdock.cxx#4 $)

>  <Rbt.Library>
libRbt.so (2013.1, Build901 2013/11/27)

>  <Rbt.Parameter_File>
/export/apps/rDock/src/rDock_2013.1_src/data/scripts/dock_solv.prm

>  <Rbt.Receptor>
prm/pocket_docking_7.prm

>  <SCORE>
-9.79837

>  <SCORE.INTER>
-8.1389

>  <SCORE.INTER.CONST>
1

>  <SCORE.INTER.POLAR>
0

>  <SCORE.INTER.ROT>
5

>  <SCORE.INTER.SOLV>
13.3241

>  <SCORE.INTER.VDW>
-16.8006

>  <SCORE.INTER.norm>
-0.81389

>  <SCORE.INTRA>
-1.65947

>  <SCORE.INTRA.DIHEDRAL>
-2.15575

>  <SCORE.INTRA.DIHEDRAL.0>
3.67053

>  <SCORE.INTRA.POLAR>
0

>  <SCORE.INTRA.POLAR.0>
0

>  <SCORE.INTRA.REPUL>
0

>  <SCORE.INTRA.REPUL.0>
0

>  <SCORE.INTRA.SOLV>
-0.767283

>  <SCORE.INTRA.SOLV.lig_0>
-32.0553

>  <SCORE.INTRA.VDW>
-0.197957

>  <SCORE.INTRA.VDW.0>
-0.571921

>  <SCORE.INTRA.norm>
-0.165947

>  <SCORE.RESTR>
0

>  <SCORE.RESTR.CAVITY>
0

>  <SCORE.RESTR.norm>
0

>  <SCORE.SYSTEM>
0

>  <SCORE.SYSTEM.CONST>
0

>  <SCORE.SYSTEM.DIHEDRAL>
0

>  <SCORE.SYSTEM.SOLV>
0

>  <SCORE.SYSTEM.norm>
0

>  <SCORE.heavy>
10

>  <SCORE.norm>
-0.979837

>  <RMSD>
5.565

$$$$
ligand
 OpenBabel11021811473D
libRbt.so/2013.1/901 2013/11/27
 10  9  0  0  0  0  0  0  0  0999 V2000
   25.7463   14.8910   20.7779 N   0  0  0  0  0  0  0  0  0  0  0  0
   26.9578   15.5563   20.2114 C   0  0  2  0  0  0  0  0  0  0  0  0
   27.3788   14.9249   18.8911 C   0  0  0  0  0  0  0  0  0  0  0  0
   27.0020   13.8028   18.5709 O   0  0  0  0  0  0  0  0  0  0  0  0
   28.1117   15.5409   21.2171 C   0  0  0  0  0  0  0  0  0  0  0  0
   29.3239   16.3392   20.7689 C   0  0  0  0  0  0  0  0  0  0  0  0
   30.4462   16.2832   21.7979 C   0  0  0  0  0  0  0  0  0  0  0  0
   31.6397   17.1033   21.3363 C   0  0  0  0  0  0  0  0  0  0  0  0
   32.7695   17.0979   22.3325 N   0  0  0  0  0  0  0  0  0  0  0  0
   28.0821   15.5145   18.0819 O   0  0  0  0  0  0  0  0  0  0  0  0
  2  1  1  1  0  0  0
  2  3  1  0  0  0  0
  2  5  1  0  0  0  0
  3  4  1  0  0  0  0
  3 10  1  0  0  0  0
  5  6  1  0  0  0  0
  6  7  1  0  0  0  0
  7  8  1  0  0  0  0
  8  9  1  0  0  0  0
M  END
>  <CHROM.1>
-19.16461041,-173.39942746,-179.55403570,-179.24281313,179.05237048,28.74430543
15.68827524,20.36319444,2.61666961,-0.31126266,-1.78609006

>  <Name>
ligand

>  <RI>
0

>  <Rbt.Current_Directory>
/home/itssahil/PROJECTS/Mol_Feturizer/New_Systems/rnas/3DIZ

>  <Rbt.Executable>
rbdock ($Id: //depot/dev/client3/rdock/2013.1/src/exe/rbdock.cxx#4 $)

>  <Rbt.Library>
libRbt.so (2013.1, Build901 2013/11/27)

>  <Rbt.Parameter_File>
/export/apps/rDock/src/rDock_2013.1_src/data/scripts/dock_solv.prm

>  <Rbt.Receptor>
prm/pocket_docking_3.prm

>  <SCORE>
-8.73547

>  <SCORE.INTER>
-6.78245

>  <SCORE.INTER.CONST>
1

>  <SCORE.INTER.POLAR>
0

>  <SCORE.INTER.ROT>
5

>  <SCORE.INTER.SOLV>
19.5181

>  <SCORE.INTER.VDW>
-17.961

>  <SCORE.INTER.norm>
-0.678245

>  <SCORE.INTRA>
-1.95301

>  <SCORE.INTRA.DIHEDRAL>
-1.95186

>  <SCORE.INTRA.DIHEDRAL.0>
3.67053

>  <SCORE.INTRA.POLAR>
0

>  <SCORE.INTRA.POLAR.0>
0

>  <SCORE.INTRA.REPUL>
0

>  <SCORE.INTRA.REPUL.0>
0

>  <SCORE.INTRA.SOLV>
-1.70066

>  <SCORE.INTRA.SOLV.lig_0>
-32.0553

>  <SCORE.INTRA.VDW>
-0.126757

>  <SCORE.INTRA.VDW.0>
-0.571921

>  <SCORE.INTRA.norm>
-0.195301

>  <SCORE.RESTR>
0

>  <SCORE.RESTR.CAVITY>
0

>  <SCORE.RESTR.norm>
0

>  <SCORE.SYSTEM>
0

>  <SCORE.SYSTEM.CONST>
0

>  <SCORE.SYSTEM.DIHEDRAL>
0

>  <SCORE.SYSTEM.SOLV>
0

>  <SCORE.SYSTEM.norm>
0

>  <SCORE.heavy>
10

>  <SCORE.norm>
-0.873547

>  <RMSD>
5.566

$$$$
ligand
 OpenBabel11021811473D
libRbt.so/2013.1/901 2013/11/27
 10  9  0  0  0  0  0  0  0  0999 V2000
   28.6976   15.1027   19.0828 N   0  0  0  0  0  0  0  0  0  0  0  0
   28.2543   15.0805   20.5091 C   0  0  2  0  0  0  0  0  0  0  0  0
   26.7369   15.1366   20.6258 C   0  0  0  0  0  0  0  0  0  0  0  0
   26.0436   15.5951   19.7244 O   0  0  0  0  0  0  0  0  0  0  0  0
   28.9059   16.2157   21.3028 C   0  0  0  0  0  0  0  0  0  0  0  0
   30.4237   16.1573   21.3191 C   0  0  0  0  0  0  0  0  0  0  0  0
   31.0257   17.3658   22.0252 C   0  0  0  0  0  0  0  0  0  0  0  0
   32.5434   17.2844   22.0300 C   0  0  0  0  0  0  0  0  0  0  0  0
   33.1850   18.4300   22.7680 N   0  0  0  0  0  0  0  0  0  0  0  0
   26.1422   14.7031   21.6033 O   0  0  0  0  0  0  0  0  0  0  0  0
  2  1  1  6  0  0  0
  2  3  1  0  0  0  0
  2  5  1  0  0  0  0
  3  4  1  0  0  0  0
  3 10  1  0  0  0  0
  5  6  1  0  0  0  0
  6  7  1  0  0  0  0
  7  8  1  0  0  0  0
  8  9  1  0  0  0  0
M  END
>  <CHROM.1>
-22.81646754,-59.83050277,175.46325658,179.94991604,-177.62492098,29.15043175
16.10133413,21.09789728,-2.73724317,0.31508130,1.25422694

>  <Name>
ligand

>  <RI>
0

>  <Rbt.Current_Directory>
/home/itssahil/PROJECTS/Mol_Feturizer/New_Systems/rnas/3DIZ

>  <Rbt.Executable>
rbdock ($Id: //depot/dev/client3/rdock/2013.1/src/exe/rbdock.cxx#4 $)

>  <Rbt.Library>
libRbt.so (2013.1, Build901 2013/11/27)

>  <Rbt.Parameter_File>
/export/apps/rDock/src/rDock_2013.1_src/data/scripts/dock_solv.prm

>  <Rbt.Receptor>
prm/pocket_docking_3.prm

>  <SCORE>
-9.64221

>  <SCORE.INTER>
-8.04085

>  <SCORE.INTER.CONST>
1

>  <SCORE.INTER.POLAR>
0

>  <SCORE.INTER.ROT>
5

>  <SCORE.INTER.SOLV>
13.2496

>  <SCORE.INTER.VDW>
-16.7104

>  <SCORE.INTER.norm>
-0.804085

>  <SCORE.INTRA>
-1.60136

>  <SCORE.INTRA.DIHEDRAL>
-2.00247

>  <SCORE.INTRA.DIHEDRAL.0>
3.67053

>  <SCORE.INTRA.POLAR>
0

>  <SCORE.INTRA.POLAR.0>
0

>  <SCORE.INTRA.REPUL>
0

>  <SCORE.INTRA.REPUL.0>
0

>  <SCORE.INTRA.SOLV>
-0.778118

>  <SCORE.INTRA.SOLV.lig_0>
-32.0553

>  <SCORE.INTRA.VDW>
-0.21106

>  <SCORE.INTRA.VDW.0>
-0.571921

>  <SCORE.INTRA.norm>
-0.160136

>  <SCORE.RESTR>
0

>  <SCORE.RESTR.CAVITY>
0

>  <SCORE.RESTR.norm>
0

>  <SCORE.SYSTEM>
0

>  <SCORE.SYSTEM.CONST>
0

>  <SCORE.SYSTEM.DIHEDRAL>
0

>  <SCORE.SYSTEM.SOLV>
0

>  <SCORE.SYSTEM.norm>
0

>  <SCORE.heavy>
10

>  <SCORE.norm>
-0.964221

>  <RMSD>
5.567

$$$$
ligand
 OpenBabel11021811473D
libRbt.so/2013.1/901 2013/11/27
 10  9  0  0  0  0  0  0  0  0999 V2000
   28.6596   14.9983   19.0561 N   0  0  0  0  0  0  0  0  0  0  0  0
   28.2345   15.0603   20.4868 C   0  0  2  0  0  0  0  0  0  0  0  0
   26.7183   15.1100   20.6199 C   0  0  0  0  0  0  0  0  0  0  0  0
   26.1490   14.6632   21.6097 O   0  0  0  0  0  0  0  0  0  0  0  0
   28.8850   16.2480   21.2003 C   0  0  0  0  0  0  0  0  0  0  0  0
   30.4031   16.1941   21.2174 C   0  0  0  0  0  0  0  0  0  0  0  0
   31.0004   17.3910   21.9468 C   0  0  0  0  0  0  0  0  0  0  0  0
   32.5189   17.3438   21.9030 C   0  0  0  0  0  0  0  0  0  0  0  0
   33.1578   18.5075   22.6146 N   0  0  0  0  0  0  0  0  0  0  0  0
   26.0057   15.6207   19.7663 O   0  0  0  0  0  0  0  0  0  0  0  0
  2  1  1  6  0  0  0
  2  3  1  0  0  0  0
  2  5  1  0  0  0  0
  3  4  1  0  0  0  0
  3 10  1  0  0  0  0
  5  6  1  0  0  0  0
  6  7  1  0  0  0  0
  7  8  1  0  0  0  0
  8  9  1  0  0  0  0
M  END
>  <CHROM.1>
151.62723932,-60.65272945,-179.57398068,-177.75164819,-179.89078090,29.12794558
16.10821439,21.04225899,-2.73764972,0.31525049,1.20411393

>  <Name>
ligand

>  <RI>
0

>  <Rbt.Current_Directory>
/home/itssahil/PROJECTS/Mol_Feturizer/New_Systems/rnas/3DIZ

>  <Rbt.Executable>
rbdock ($Id: //depot/dev/client3/rdock/2013.1/src/exe/rbdock.cxx#4 $)

>  <Rbt.Library>
libRbt.so (2013.1, Build901 2013/11/27)

>  <Rbt.Parameter_File>
/export/apps/rDock/src/rDock_2013.1_src/data/scripts/dock_solv.prm

>  <Rbt.Receptor>
prm/pocket_docking_7.prm

>  <SCORE>
-9.82487

>  <SCORE.INTER>
-8.06015

>  <SCORE.INTER.CONST>
1

>  <SCORE.INTER.POLAR>
0

>  <SCORE.INTER.ROT>
5

>  <SCORE.INTER.SOLV>
13.3748

>  <SCORE.INTER.VDW>
-16.765

>  <SCORE.INTER.norm>
-0.806015

>  <SCORE.INTRA>
-1.76472

>  <SCORE.INTRA.DIHEDRAL>
-2.20475

>  <SCORE.INTRA.DIHEDRAL.0>
3.67053

>  <SCORE.INTRA.POLAR>
0

>  <SCORE.INTRA.POLAR.0>
0

>  <SCORE.INTRA.REPUL>
0

>  <SCORE.INTRA.REPUL.0>
0

>  <SCORE.INTRA.SOLV>
-0.82929

>  <SCORE.INTRA.SOLV.lig_0>
-32.0553

>  <SCORE.INTRA.VDW>
-0.247703

>  <SCORE.INTRA.VDW.0>
-0.571921

>  <SCORE.INTRA.norm>
-0.176472

>  <SCORE.RESTR>
0

>  <SCORE.RESTR.CAVITY>
0

>  <SCORE.RESTR.norm>
0

>  <SCORE.SYSTEM>
0

>  <SCORE.SYSTEM.CONST>
0

>  <SCORE.SYSTEM.DIHEDRAL>
0

>  <SCORE.SYSTEM.SOLV>
0

>  <SCORE.SYSTEM.norm>
0

>  <SCORE.heavy>
10

>  <SCORE.norm>
-0.982487

>  <RMSD>
5.567

$$$$
ligand
 OpenBabel11021811473D
libRbt.so/2013.1/901 2013/11/27
 10  9  0  0  0  0  0  0  0  0999 V2000
   25.7268   14.9417   20.7023 N   0  0  0  0  0  0  0  0  0  0  0  0
   26.9564   15.5783   20.1417 C   0  0  2  0  0  0  0  0  0  0  0  0
   27.3880   14.9152   18.8405 C   0  0  0  0  0  0  0  0  0  0  0  0
   27.0078   13.7885   18.5411 O   0  0  0  0  0  0  0  0  0  0  0  0
   28.0946   15.5660   21.1652 C   0  0  0  0  0  0  0  0  0  0  0  0
   29.3244   16.3393   20.7211 C   0  0  0  0  0  0  0  0  0  0  0  0
   30.4200   16.3099   21.7795 C   0  0  0  0  0  0  0  0  0  0  0  0
   31.6530   17.0563   21.2973 C   0  0  0  0  0  0  0  0  0  0  0  0
   32.7502   17.0946   22.3286 N   0  0  0  0  0  0  0  0  0  0  0  0
   28.1038   15.4824   18.0263 O   0  0  0  0  0  0  0  0  0  0  0  0
  2  1  1  1  0  0  0
  2  3  1  0  0  0  0
  2  5  1  0  0  0  0
  3  4  1  0  0  0  0
  3 10  1  0  0  0  0
  5  6  1  0  0  0  0
  6  7  1  0  0  0  0
  7  8  1  0  0  0  0
  8  9  1  0  0  0  0
M  END
>  <CHROM.1>
-19.72675004,-173.32546051,179.34227987,178.42327570,178.10277630,28.74129601
15.68939802,20.31928290,2.60345612,-0.29427409,-1.80985103

>  <Name>
ligand

>  <RI>
0

>  <Rbt.Current_Directory>
/home/itssahil/PROJECTS/Mol_Feturizer/New_Systems/rnas/3DIZ

>  <Rbt.Executable>
rbdock ($Id: //depot/dev/client3/rdock/2013.1/src/exe/rbdock.cxx#4 $)

>  <Rbt.Library>
libRbt.so (2013.1, Build901 2013/11/27)

>  <Rbt.Parameter_File>
/export/apps/rDock/src/rDock_2013.1_src/data/scripts/dock_solv.prm

>  <Rbt.Receptor>
prm/pocket_docking_8.prm

>  <SCORE>
-8.79461

>  <SCORE.INTER>
-6.84439

>  <SCORE.INTER.CONST>
1

>  <SCORE.INTER.POLAR>
0

>  <SCORE.INTER.ROT>
5

>  <SCORE.INTER.SOLV>
19.3415

>  <SCORE.INTER.VDW>
-17.9434

>  <SCORE.INTER.norm>
-0.684439

>  <SCORE.INTRA>
-1.95022

>  <SCORE.INTRA.DIHEDRAL>
-1.92819

>  <SCORE.INTRA.DIHEDRAL.0>
3.67053

>  <SCORE.INTRA.POLAR>
0

>  <SCORE.INTRA.POLAR.0>
0

>  <SCORE.INTRA.REPUL>
0

>  <SCORE.INTRA.REPUL.0>
0

>  <SCORE.INTRA.SOLV>
-1.70053

>  <SCORE.INTRA.SOLV.lig_0>
-32.0553

>  <SCORE.INTRA.VDW>
-0.135864

>  <SCORE.INTRA.VDW.0>
-0.571921

>  <SCORE.INTRA.norm>
-0.195022

>  <SCORE.RESTR>
0

>  <SCORE.RESTR.CAVITY>
0

>  <SCORE.RESTR.norm>
0

>  <SCORE.SYSTEM>
0

>  <SCORE.SYSTEM.CONST>
0

>  <SCORE.SYSTEM.DIHEDRAL>
0

>  <SCORE.SYSTEM.SOLV>
0

>  <SCORE.SYSTEM.norm>
0

>  <SCORE.heavy>
10

>  <SCORE.norm>
-0.879461

>  <RMSD>
5.568

$$$$
ligand
 OpenBabel11021811473D
libRbt.so/2013.1/901 2013/11/27
 10  9  0  0  0  0  0  0  0  0999 V2000
   26.1857   15.1794   20.5645 N   0  0  0  0  0  0  0  0  0  0  0  0
   27.5139   15.0619   19.8911 C   0  0  2  0  0  0  0  0  0  0  0  0
   27.3772   14.5343   18.4691 C   0  0  0  0  0  0  0  0  0  0  0  0
   27.7895   15.1744   17.5080 O   0  0  0  0  0  0  0  0  0  0  0  0
   28.4671   14.1873   20.7093 C   0  0  0  0  0  0  0  0  0  0  0  0
   29.2079   14.9438   21.7985 C   0  0  0  0  0  0  0  0  0  0  0  0
   30.2150   15.9272   21.2152 C   0  0  0  0  0  0  0  0  0  0  0  0
   31.0065   16.6053   22.3214 C   0  0  0  0  0  0  0  0  0  0  0  0
   32.0260   17.5804   21.7935 N   0  0  0  0  0  0  0  0  0  0  0  0
   26.8809   13.4432   18.2239 O   0  0  0  0  0  0  0  0  0  0  0  0
  2  1  1  1  0  0  0
  2  3  1  0  0  0  0
  2  5  1  0  0  0  0
  3  4  1  0  0  0  0
  3 10  1  0  0  0  0
  5  6  1  0  0  0  0
  6  7  1  0  0  0  0
  7  8  1  0  0  0  0
  8  9  1  0  0  0  0
M  END
>  <CHROM.1>
121.90482393,-85.12010826,-68.60272839,-176.30454004,179.50295758,28.65626810
15.24856821,20.21053546,2.53937240,-0.54226647,-1.53402649

>  <Name>
ligand

>  <RI>
0

>  <Rbt.Current_Directory>
/home/itssahil/PROJECTS/Mol_Feturizer/New_Systems/rnas/3DIZ

>  <Rbt.Executable>
rbdock ($Id: //depot/dev/client3/rdock/2013.1/src/exe/rbdock.cxx#4 $)

>  <Rbt.Library>
libRbt.so (2013.1, Build901 2013/11/27)

>  <Rbt.Parameter_File>
/export/apps/rDock/src/rDock_2013.1_src/data/scripts/dock_solv.prm

>  <Rbt.Receptor>
prm/pocket_docking_3.prm

>  <SCORE>
-7.87362

>  <SCORE.INTER>
-7.45721

>  <SCORE.INTER.CONST>
1

>  <SCORE.INTER.POLAR>
0

>  <SCORE.INTER.ROT>
5

>  <SCORE.INTER.SOLV>
16.5871

>  <SCORE.INTER.VDW>
-17.4338

>  <SCORE.INTER.norm>
-0.745721

>  <SCORE.INTRA>
-0.416402

>  <SCORE.INTRA.DIHEDRAL>
0.386315

>  <SCORE.INTRA.DIHEDRAL.0>
3.67053

>  <SCORE.INTRA.POLAR>
0

>  <SCORE.INTRA.POLAR.0>
0

>  <SCORE.INTRA.REPUL>
0

>  <SCORE.INTRA.REPUL.0>
0

>  <SCORE.INTRA.SOLV>
-0.816323

>  <SCORE.INTRA.SOLV.lig_0>
-32.0553

>  <SCORE.INTRA.VDW>
-0.201398

>  <SCORE.INTRA.VDW.0>
-0.571921

>  <SCORE.INTRA.norm>
-0.0416402

>  <SCORE.RESTR>
0

>  <SCORE.RESTR.CAVITY>
0

>  <SCORE.RESTR.norm>
0

>  <SCORE.SYSTEM>
0

>  <SCORE.SYSTEM.CONST>
0

>  <SCORE.SYSTEM.DIHEDRAL>
0

>  <SCORE.SYSTEM.SOLV>
0

>  <SCORE.SYSTEM.norm>
0

>  <SCORE.heavy>
10

>  <SCORE.norm>
-0.787362

>  <RMSD>
5.570

$$$$
ligand
 OpenBabel11021811473D
libRbt.so/2013.1/901 2013/11/27
 10  9  0  0  0  0  0  0  0  0999 V2000
   28.7200   14.8056   19.2260 N   0  0  0  0  0  0  0  0  0  0  0  0
   28.2386   14.9801   20.6293 C   0  0  2  0  0  0  0  0  0  0  0  0
   26.7213   15.0936   20.6918 C   0  0  0  0  0  0  0  0  0  0  0  0
   26.0813   15.6080   19.7811 O   0  0  0  0  0  0  0  0  0  0  0  0
   28.9049   16.1893   21.2904 C   0  0  0  0  0  0  0  0  0  0  0  0
   30.4207   16.1016   21.3383 C   0  0  0  0  0  0  0  0  0  0  0  0
   31.0371   17.3495   21.9583 C   0  0  0  0  0  0  0  0  0  0  0  0
   32.5522   17.2367   21.9994 C   0  0  0  0  0  0  0  0  0  0  0  0
   33.2055   18.4175   22.6683 N   0  0  0  0  0  0  0  0  0  0  0  0
   26.0732   14.6538   21.6318 O   0  0  0  0  0  0  0  0  0  0  0  0
  2  1  1  6  0  0  0
  2  3  1  0  0  0  0
  2  5  1  0  0  0  0
  3  4  1  0  0  0  0
  3 10  1  0  0  0  0
  5  6  1  0  0  0  0
  6  7  1  0  0  0  0
  7  8  1  0  0  0  0
  8  9  1  0  0  0  0
M  END
>  <CHROM.1>
-32.08929245,-58.82355957,177.91871144,179.81945594,-177.08951569,29.14998817
16.03905411,21.11957019,-2.71907437,0.27425913,1.12406642

>  <Name>
ligand

>  <RI>
0

>  <Rbt.Current_Directory>
/home/itssahil/PROJECTS/Mol_Feturizer/New_Systems/rnas/3DIZ

>  <Rbt.Executable>
rbdock ($Id: //depot/dev/client3/rdock/2013.1/src/exe/rbdock.cxx#4 $)

>  <Rbt.Library>
libRbt.so (2013.1, Build901 2013/11/27)

>  <Rbt.Parameter_File>
/export/apps/rDock/src/rDock_2013.1_src/data/scripts/dock_solv.prm

>  <Rbt.Receptor>
prm/pocket_docking_6.prm

>  <SCORE>
-9.79974

>  <SCORE.INTER>
-8.14415

>  <SCORE.INTER.CONST>
1

>  <SCORE.INTER.POLAR>
0

>  <SCORE.INTER.ROT>
5

>  <SCORE.INTER.SOLV>
13.4646

>  <SCORE.INTER.VDW>
-16.851

>  <SCORE.INTER.norm>
-0.814415

>  <SCORE.INTRA>
-1.6556

>  <SCORE.INTRA.DIHEDRAL>
-2.05486

>  <SCORE.INTRA.DIHEDRAL.0>
3.67053

>  <SCORE.INTRA.POLAR>
0

>  <SCORE.INTRA.POLAR.0>
0

>  <SCORE.INTRA.REPUL>
0

>  <SCORE.INTRA.REPUL.0>
0

>  <SCORE.INTRA.SOLV>
-0.781401

>  <SCORE.INTRA.SOLV.lig_0>
-32.0553

>  <SCORE.INTRA.VDW>
-0.237467

>  <SCORE.INTRA.VDW.0>
-0.571921

>  <SCORE.INTRA.norm>
-0.16556

>  <SCORE.RESTR>
0

>  <SCORE.RESTR.CAVITY>
0

>  <SCORE.RESTR.norm>
0

>  <SCORE.SYSTEM>
0

>  <SCORE.SYSTEM.CONST>
0

>  <SCORE.SYSTEM.DIHEDRAL>
0

>  <SCORE.SYSTEM.SOLV>
0

>  <SCORE.SYSTEM.norm>
0

>  <SCORE.heavy>
10

>  <SCORE.norm>
-0.979974

>  <RMSD>
5.570

$$$$
ligand
 OpenBabel11021811473D
libRbt.so/2013.1/901 2013/11/27
 10  9  0  0  0  0  0  0  0  0999 V2000
   25.7373   14.8900   20.7210 N   0  0  0  0  0  0  0  0  0  0  0  0
   26.9538   15.5466   20.1548 C   0  0  2  0  0  0  0  0  0  0  0  0
   27.3707   14.9119   18.8347 C   0  0  0  0  0  0  0  0  0  0  0  0
   28.1067   15.4982   18.0486 O   0  0  0  0  0  0  0  0  0  0  0  0
   28.1071   15.5232   21.1609 C   0  0  0  0  0  0  0  0  0  0  0  0
   29.3206   16.3227   20.7184 C   0  0  0  0  0  0  0  0  0  0  0  0
   30.4192   16.3084   21.7740 C   0  0  0  0  0  0  0  0  0  0  0  0
   31.6408   17.0713   21.2885 C   0  0  0  0  0  0  0  0  0  0  0  0
   32.7325   17.1411   22.3239 N   0  0  0  0  0  0  0  0  0  0  0  0
   27.0182   13.7852   18.5134 O   0  0  0  0  0  0  0  0  0  0  0  0
  2  1  1  1  0  0  0
  2  3  1  0  0  0  0
  2  5  1  0  0  0  0
  3  4  1  0  0  0  0
  3 10  1  0  0  0  0
  5  6  1  0  0  0  0
  6  7  1  0  0  0  0
  7  8  1  0  0  0  0
  8  9  1  0  0  0  0
M  END
>  <CHROM.1>
160.94506083,-172.89646896,177.97489310,177.93576614,177.30686074,28.73994632
15.68254231,20.31866818,2.60741450,-0.31068986,-1.79632080

>  <Name>
ligand

>  <RI>
0

>  <Rbt.Current_Directory>
/home/itssahil/PROJECTS/Mol_Feturizer/New_Systems/rnas/3DIZ

>  <Rbt.Executable>
rbdock ($Id: //depot/dev/client3/rdock/2013.1/src/exe/rbdock.cxx#4 $)

>  <Rbt.Library>
libRbt.so (2013.1, Build901 2013/11/27)

>  <Rbt.Parameter_File>
/export/apps/rDock/src/rDock_2013.1_src/data/scripts/dock_solv.prm

>  <Rbt.Receptor>
prm/pocket_docking_7.prm

>  <SCORE>
-8.77277

>  <SCORE.INTER>
-6.81115

>  <SCORE.INTER.CONST>
1

>  <SCORE.INTER.POLAR>
0

>  <SCORE.INTER.ROT>
5

>  <SCORE.INTER.SOLV>
19.2839

>  <SCORE.INTER.VDW>
-17.9021

>  <SCORE.INTER.norm>
-0.681115

>  <SCORE.INTRA>
-1.96162

>  <SCORE.INTRA.DIHEDRAL>
-1.9792

>  <SCORE.INTRA.DIHEDRAL.0>
3.67053

>  <SCORE.INTRA.POLAR>
0

>  <SCORE.INTRA.POLAR.0>
0

>  <SCORE.INTRA.REPUL>
0

>  <SCORE.INTRA.REPUL.0>
0

>  <SCORE.INTRA.SOLV>
-1.71186

>  <SCORE.INTRA.SOLV.lig_0>
-32.0553

>  <SCORE.INTRA.VDW>
-0.116092

>  <SCORE.INTRA.VDW.0>
-0.571921

>  <SCORE.INTRA.norm>
-0.196162

>  <SCORE.RESTR>
0

>  <SCORE.RESTR.CAVITY>
0

>  <SCORE.RESTR.norm>
0

>  <SCORE.SYSTEM>
0

>  <SCORE.SYSTEM.CONST>
0

>  <SCORE.SYSTEM.DIHEDRAL>
0

>  <SCORE.SYSTEM.SOLV>
0

>  <SCORE.SYSTEM.norm>
0

>  <SCORE.heavy>
10

>  <SCORE.norm>
-0.877277

>  <RMSD>
5.570

$$$$
ligand
 OpenBabel11021811473D
libRbt.so/2013.1/901 2013/11/27
 10  9  0  0  0  0  0  0  0  0999 V2000
   28.7425   14.8058   19.2355 N   0  0  0  0  0  0  0  0  0  0  0  0
   28.2501   14.9805   20.6349 C   0  0  2  0  0  0  0  0  0  0  0  0
   26.7316   15.0830   20.6865 C   0  0  0  0  0  0  0  0  0  0  0  0
   26.0911   15.5535   19.7527 O   0  0  0  0  0  0  0  0  0  0  0  0
   28.9028   16.1964   21.2972 C   0  0  0  0  0  0  0  0  0  0  0  0
   30.4182   16.1151   21.3657 C   0  0  0  0  0  0  0  0  0  0  0  0
   31.0198   17.3586   22.0086 C   0  0  0  0  0  0  0  0  0  0  0  0
   32.5345   17.2507   22.0731 C   0  0  0  0  0  0  0  0  0  0  0  0
   33.1726   18.4280   22.7627 N   0  0  0  0  0  0  0  0  0  0  0  0
   26.0832   14.6768   21.6413 O   0  0  0  0  0  0  0  0  0  0  0  0
  2  1  1  6  0  0  0
  2  3  1  0  0  0  0
  2  5  1  0  0  0  0
  3  4  1  0  0  0  0
  3 10  1  0  0  0  0
  5  6  1  0  0  0  0
  6  7  1  0  0  0  0
  7  8  1  0  0  0  0
  8  9  1  0  0  0  0
M  END
>  <CHROM.1>
-29.86401967,-59.27334607,178.93171742,179.67329578,-177.19487315,29.14918496
16.04002633,21.14353286,-2.70491116,0.27405021,1.12651251

>  <Name>
ligand

>  <RI>
0

>  <Rbt.Current_Directory>
/home/itssahil/PROJECTS/Mol_Feturizer/New_Systems/rnas/3DIZ

>  <Rbt.Executable>
rbdock ($Id: //depot/dev/client3/rdock/2013.1/src/exe/rbdock.cxx#4 $)

>  <Rbt.Library>
libRbt.so (2013.1, Build901 2013/11/27)

>  <Rbt.Parameter_File>
/export/apps/rDock/src/rDock_2013.1_src/data/scripts/dock_solv.prm

>  <Rbt.Receptor>
prm/blind_docking_60.prm

>  <SCORE>
-9.77663

>  <SCORE.INTER>
-8.11038

>  <SCORE.INTER.CONST>
1

>  <SCORE.INTER.POLAR>
0

>  <SCORE.INTER.ROT>
5

>  <SCORE.INTER.SOLV>
13.5018

>  <SCORE.INTER.VDW>
-16.8409

>  <SCORE.INTER.norm>
-0.811038

>  <SCORE.INTRA>
-1.66625

>  <SCORE.INTRA.DIHEDRAL>
-2.07159

>  <SCORE.INTRA.DIHEDRAL.0>
3.67053

>  <SCORE.INTRA.POLAR>
0

>  <SCORE.INTRA.POLAR.0>
0

>  <SCORE.INTRA.REPUL>
0

>  <SCORE.INTRA.REPUL.0>
0

>  <SCORE.INTRA.SOLV>
-0.791413

>  <SCORE.INTRA.SOLV.lig_0>
-32.0553

>  <SCORE.INTRA.VDW>
-0.234745

>  <SCORE.INTRA.VDW.0>
-0.571921

>  <SCORE.INTRA.norm>
-0.166625

>  <SCORE.RESTR>
0

>  <SCORE.RESTR.CAVITY>
0

>  <SCORE.RESTR.norm>
0

>  <SCORE.SYSTEM>
0

>  <SCORE.SYSTEM.CONST>
0

>  <SCORE.SYSTEM.DIHEDRAL>
0

>  <SCORE.SYSTEM.SOLV>
0

>  <SCORE.SYSTEM.norm>
0

>  <SCORE.heavy>
10

>  <SCORE.norm>
-0.977663

>  <RMSD>
5.573

$$$$
ligand
 OpenBabel11021811473D
libRbt.so/2013.1/901 2013/11/27
 10  9  0  0  0  0  0  0  0  0999 V2000
   28.6377   14.9352   19.0530 N   0  0  0  0  0  0  0  0  0  0  0  0
   28.2124   15.0371   20.4813 C   0  0  2  0  0  0  0  0  0  0  0  0
   26.6967   15.1047   20.6118 C   0  0  0  0  0  0  0  0  0  0  0  0
   26.0049   15.6403   19.7527 O   0  0  0  0  0  0  0  0  0  0  0  0
   28.8739   16.2361   21.1654 C   0  0  0  0  0  0  0  0  0  0  0  0
   30.3909   16.1624   21.1952 C   0  0  0  0  0  0  0  0  0  0  0  0
   30.9978   17.3548   21.9242 C   0  0  0  0  0  0  0  0  0  0  0  0
   32.5155   17.2735   21.9168 C   0  0  0  0  0  0  0  0  0  0  0  0
   33.1626   18.4089   22.6657 N   0  0  0  0  0  0  0  0  0  0  0  0
   26.1012   14.6057   21.5570 O   0  0  0  0  0  0  0  0  0  0  0  0
  2  1  1  6  0  0  0
  2  3  1  0  0  0  0
  2  5  1  0  0  0  0
  3  4  1  0  0  0  0
  3 10  1  0  0  0  0
  5  6  1  0  0  0  0
  6  7  1  0  0  0  0
  7  8  1  0  0  0  0
  8  9  1  0  0  0  0
M  END
>  <CHROM.1>
-32.22134635,-61.13438111,-178.18531807,-178.85687689,-178.12870949,29.11396187
16.07035516,21.03175259,-2.73249922,0.30106703,1.19479675

>  <Name>
ligand

>  <RI>
0

>  <Rbt.Current_Directory>
/home/itssahil/PROJECTS/Mol_Feturizer/New_Systems/rnas/3DIZ

>  <Rbt.Executable>
rbdock ($Id: //depot/dev/client3/rdock/2013.1/src/exe/rbdock.cxx#4 $)

>  <Rbt.Library>
libRbt.so (2013.1, Build901 2013/11/27)

>  <Rbt.Parameter_File>
/export/apps/rDock/src/rDock_2013.1_src/data/scripts/dock_solv.prm

>  <Rbt.Receptor>
prm/pocket_docking_2.prm

>  <SCORE>
-9.76233

>  <SCORE.INTER>
-8.05239

>  <SCORE.INTER.CONST>
1

>  <SCORE.INTER.POLAR>
0

>  <SCORE.INTER.ROT>
5

>  <SCORE.INTER.SOLV>
13.4191

>  <SCORE.INTER.VDW>
-16.7746

>  <SCORE.INTER.norm>
-0.805239

>  <SCORE.INTRA>
-1.71003

>  <SCORE.INTRA.DIHEDRAL>
-2.06782

>  <SCORE.INTRA.DIHEDRAL.0>
3.67053

>  <SCORE.INTRA.POLAR>
0

>  <SCORE.INTRA.POLAR.0>
0

>  <SCORE.INTRA.REPUL>
0

>  <SCORE.INTRA.REPUL.0>
0

>  <SCORE.INTRA.SOLV>
-0.8299

>  <SCORE.INTRA.SOLV.lig_0>
-32.0553

>  <SCORE.INTRA.VDW>
-0.261169

>  <SCORE.INTRA.VDW.0>
-0.571921

>  <SCORE.INTRA.norm>
-0.171003

>  <SCORE.RESTR>
8.55185e-05

>  <SCORE.RESTR.CAVITY>
8.55185e-05

>  <SCORE.RESTR.norm>
8.55185e-06

>  <SCORE.SYSTEM>
0

>  <SCORE.SYSTEM.CONST>
0

>  <SCORE.SYSTEM.DIHEDRAL>
0

>  <SCORE.SYSTEM.SOLV>
0

>  <SCORE.SYSTEM.norm>
0

>  <SCORE.heavy>
10

>  <SCORE.norm>
-0.976233

>  <RMSD>
5.575

$$$$
ligand
 OpenBabel11021811473D
libRbt.so/2013.1/901 2013/11/27
 10  9  0  0  0  0  0  0  0  0999 V2000
   28.7741   14.1959   19.8207 N   0  0  0  0  0  0  0  0  0  0  0  0
   28.1503   14.8812   20.9924 C   0  0  2  0  0  0  0  0  0  0  0  0
   26.6664   15.1386   20.7670 C   0  0  0  0  0  0  0  0  0  0  0  0
   26.2705   15.8000   19.8133 O   0  0  0  0  0  0  0  0  0  0  0  0
   28.8868   16.1821   21.3217 C   0  0  0  0  0  0  0  0  0  0  0  0
   30.3699   15.9935   21.5907 C   0  0  0  0  0  0  0  0  0  0  0  0
   31.0741   17.3253   21.8186 C   0  0  0  0  0  0  0  0  0  0  0  0
   32.5755   17.1247   21.9438 C   0  0  0  0  0  0  0  0  0  0  0  0
   33.3224   18.4202   22.1246 N   0  0  0  0  0  0  0  0  0  0  0  0
   25.8057   14.6764   21.5036 O   0  0  0  0  0  0  0  0  0  0  0  0
  2  1  1  6  0  0  0
  2  3  1  0  0  0  0
  2  5  1  0  0  0  0
  3  4  1  0  0  0  0
  3 10  1  0  0  0  0
  5  6  1  0  0  0  0
  6  7  1  0  0  0  0
  7  8  1  0  0  0  0
  8  9  1  0  0  0  0
M  END
>  <CHROM.1>
-58.08256018,-56.67585911,176.09428473,-174.20570897,178.08013602,29.14440766
15.97286925,21.16241746,-2.67955024,0.01613335,0.50412270

>  <Name>
ligand

>  <RI>
0

>  <Rbt.Current_Directory>
/home/itssahil/PROJECTS/Mol_Feturizer/New_Systems/rnas/3DIZ

>  <Rbt.Executable>
rbdock ($Id: //depot/dev/client3/rdock/2013.1/src/exe/rbdock.cxx#4 $)

>  <Rbt.Library>
libRbt.so (2013.1, Build901 2013/11/27)

>  <Rbt.Parameter_File>
/export/apps/rDock/src/rDock_2013.1_src/data/scripts/dock_solv.prm

>  <Rbt.Receptor>
prm/pocket_docking_6.prm

>  <SCORE>
-9.61903

>  <SCORE.INTER>
-8.09662

>  <SCORE.INTER.CONST>
1

>  <SCORE.INTER.POLAR>
0

>  <SCORE.INTER.ROT>
5

>  <SCORE.INTER.SOLV>
14.9961

>  <SCORE.INTER.VDW>
-17.3298

>  <SCORE.INTER.norm>
-0.809662

>  <SCORE.INTRA>
-1.52241

>  <SCORE.INTRA.DIHEDRAL>
-1.91377

>  <SCORE.INTRA.DIHEDRAL.0>
3.67053

>  <SCORE.INTRA.POLAR>
0

>  <SCORE.INTRA.POLAR.0>
0

>  <SCORE.INTRA.REPUL>
0

>  <SCORE.INTRA.REPUL.0>
0

>  <SCORE.INTRA.SOLV>
-0.756425

>  <SCORE.INTRA.SOLV.lig_0>
-32.0553

>  <SCORE.INTRA.VDW>
-0.187309

>  <SCORE.INTRA.VDW.0>
-0.571921

>  <SCORE.INTRA.norm>
-0.152241

>  <SCORE.RESTR>
0

>  <SCORE.RESTR.CAVITY>
0

>  <SCORE.RESTR.norm>
0

>  <SCORE.SYSTEM>
0

>  <SCORE.SYSTEM.CONST>
0

>  <SCORE.SYSTEM.DIHEDRAL>
0

>  <SCORE.SYSTEM.SOLV>
0

>  <SCORE.SYSTEM.norm>
0

>  <SCORE.heavy>
10

>  <SCORE.norm>
-0.961903

>  <RMSD>
5.575

$$$$
ligand
 OpenBabel11021811473D
libRbt.so/2013.1/901 2013/11/27
 10  9  0  0  0  0  0  0  0  0999 V2000
   28.6719   14.4002   19.4684 N   0  0  0  0  0  0  0  0  0  0  0  0
   28.1231   14.8331   20.7886 C   0  0  2  0  0  0  0  0  0  0  0  0
   26.6221   15.0802   20.7183 C   0  0  0  0  0  0  0  0  0  0  0  0
   26.1226   15.7210   19.7999 O   0  0  0  0  0  0  0  0  0  0  0  0
   28.8574   16.0721   21.3071 C   0  0  0  0  0  0  0  0  0  0  0  0
   30.3545   15.8724   21.4687 C   0  0  0  0  0  0  0  0  0  0  0  0
   31.0540   17.1642   21.8732 C   0  0  0  0  0  0  0  0  0  0  0  0
   32.5626   16.9798   21.8773 C   0  0  0  0  0  0  0  0  0  0  0  0
   33.3021   18.2424   22.2346 N   0  0  0  0  0  0  0  0  0  0  0  0
   25.8478   14.6294   21.5516 O   0  0  0  0  0  0  0  0  0  0  0  0
  2  1  1  6  0  0  0
  2  3  1  0  0  0  0
  2  5  1  0  0  0  0
  3  4  1  0  0  0  0
  3 10  1  0  0  0  0
  5  6  1  0  0  0  0
  6  7  1  0  0  0  0
  7  8  1  0  0  0  0
  8  9  1  0  0  0  0
M  END
>  <CHROM.1>
-45.85743489,-58.23580865,175.20017584,-173.65965886,178.41136620,29.10623314
15.89843167,21.10460627,-2.71876131,0.15782734,0.86309379

>  <Name>
ligand

>  <RI>
0

>  <Rbt.Current_Directory>
/home/itssahil/PROJECTS/Mol_Feturizer/New_Systems/rnas/3DIZ

>  <Rbt.Executable>
rbdock ($Id: //depot/dev/client3/rdock/2013.1/src/exe/rbdock.cxx#4 $)

>  <Rbt.Library>
libRbt.so (2013.1, Build901 2013/11/27)

>  <Rbt.Parameter_File>
/export/apps/rDock/src/rDock_2013.1_src/data/scripts/dock_solv.prm

>  <Rbt.Receptor>
prm/pocket_docking_3.prm

>  <SCORE>
-9.73934

>  <SCORE.INTER>
-8.1851

>  <SCORE.INTER.CONST>
1

>  <SCORE.INTER.POLAR>
0

>  <SCORE.INTER.ROT>
5

>  <SCORE.INTER.SOLV>
14.2773

>  <SCORE.INTER.VDW>
-17.1492

>  <SCORE.INTER.norm>
-0.81851

>  <SCORE.INTRA>
-1.55425

>  <SCORE.INTRA.DIHEDRAL>
-1.84964

>  <SCORE.INTRA.DIHEDRAL.0>
3.67053

>  <SCORE.INTRA.POLAR>
0

>  <SCORE.INTRA.POLAR.0>
0

>  <SCORE.INTRA.REPUL>
0

>  <SCORE.INTRA.REPUL.0>
0

>  <SCORE.INTRA.SOLV>
-0.765487

>  <SCORE.INTRA.SOLV.lig_0>
-32.0553

>  <SCORE.INTRA.VDW>
-0.246683

>  <SCORE.INTRA.VDW.0>
-0.571921

>  <SCORE.INTRA.norm>
-0.155425

>  <SCORE.RESTR>
0

>  <SCORE.RESTR.CAVITY>
0

>  <SCORE.RESTR.norm>
0

>  <SCORE.SYSTEM>
0

>  <SCORE.SYSTEM.CONST>
0

>  <SCORE.SYSTEM.DIHEDRAL>
0

>  <SCORE.SYSTEM.SOLV>
0

>  <SCORE.SYSTEM.norm>
0

>  <SCORE.heavy>
10

>  <SCORE.norm>
-0.973934

>  <RMSD>
5.576

$$$$
ligand
 OpenBabel11021811473D
libRbt.so/2013.1/901 2013/11/27
 10  9  0  0  0  0  0  0  0  0999 V2000
   28.7282   14.8480   19.2794 N   0  0  0  0  0  0  0  0  0  0  0  0
   28.2144   15.0254   20.6707 C   0  0  2  0  0  0  0  0  0  0  0  0
   26.6964   15.1436   20.6973 C   0  0  0  0  0  0  0  0  0  0  0  0
   26.0363   14.6866   21.6242 O   0  0  0  0  0  0  0  0  0  0  0  0
   28.8686   16.2334   21.3461 C   0  0  0  0  0  0  0  0  0  0  0  0
   30.3829   16.1435   21.4253 C   0  0  0  0  0  0  0  0  0  0  0  0
   30.9874   17.3863   22.0667 C   0  0  0  0  0  0  0  0  0  0  0  0
   32.5057   17.3263   22.0285 C   0  0  0  0  0  0  0  0  0  0  0  0
   33.1517   18.5077   22.7035 N   0  0  0  0  0  0  0  0  0  0  0  0
   26.0723   15.7213   19.8176 O   0  0  0  0  0  0  0  0  0  0  0  0
  2  1  1  6  0  0  0
  2  3  1  0  0  0  0
  2  5  1  0  0  0  0
  3  4  1  0  0  0  0
  3 10  1  0  0  0  0
  5  6  1  0  0  0  0
  6  7  1  0  0  0  0
  7  8  1  0  0  0  0
  8  9  1  0  0  0  0
M  END
>  <CHROM.1>
145.37916252,-58.61384611,178.28522271,-175.20725139,-177.59642501,29.11899312
16.09831430,21.16379252,-2.70627590,0.26447845,1.09813778

>  <Name>
ligand

>  <RI>
0

>  <Rbt.Current_Directory>
/home/itssahil/PROJECTS/Mol_Feturizer/New_Systems/rnas/3DIZ

>  <Rbt.Executable>
rbdock ($Id: //depot/dev/client3/rdock/2013.1/src/exe/rbdock.cxx#4 $)

>  <Rbt.Library>
libRbt.so (2013.1, Build901 2013/11/27)

>  <Rbt.Parameter_File>
/export/apps/rDock/src/rDock_2013.1_src/data/scripts/dock_solv.prm

>  <Rbt.Receptor>
prm/pocket_docking_6.prm

>  <SCORE>
-9.65608

>  <SCORE.INTER>
-7.96594

>  <SCORE.INTER.CONST>
1

>  <SCORE.INTER.POLAR>
0

>  <SCORE.INTER.ROT>
5

>  <SCORE.INTER.SOLV>
13.4315

>  <SCORE.INTER.VDW>
-16.7211

>  <SCORE.INTER.norm>
-0.796594

>  <SCORE.INTRA>
-1.69014

>  <SCORE.INTRA.DIHEDRAL>
-2.09229

>  <SCORE.INTRA.DIHEDRAL.0>
3.67053

>  <SCORE.INTRA.POLAR>
0

>  <SCORE.INTRA.POLAR.0>
0

>  <SCORE.INTRA.REPUL>
0

>  <SCORE.INTRA.REPUL.0>
0

>  <SCORE.INTRA.SOLV>
-0.795862

>  <SCORE.INTRA.SOLV.lig_0>
-32.0553

>  <SCORE.INTRA.VDW>
-0.246063

>  <SCORE.INTRA.VDW.0>
-0.571921

>  <SCORE.INTRA.norm>
-0.169014

>  <SCORE.RESTR>
0

>  <SCORE.RESTR.CAVITY>
0

>  <SCORE.RESTR.norm>
0

>  <SCORE.SYSTEM>
0

>  <SCORE.SYSTEM.CONST>
0

>  <SCORE.SYSTEM.DIHEDRAL>
0

>  <SCORE.SYSTEM.SOLV>
0

>  <SCORE.SYSTEM.norm>
0

>  <SCORE.heavy>
10

>  <SCORE.norm>
-0.965608

>  <RMSD>
5.576

$$$$
ligand
 OpenBabel11021811473D
libRbt.so/2013.1/901 2013/11/27
 10  9  0  0  0  0  0  0  0  0999 V2000
   26.1066   15.2169   20.5026 N   0  0  0  0  0  0  0  0  0  0  0  0
   27.4561   15.1005   19.8726 C   0  0  2  0  0  0  0  0  0  0  0  0
   27.3684   14.5448   18.4575 C   0  0  0  0  0  0  0  0  0  0  0  0
   27.8647   15.1386   17.5063 O   0  0  0  0  0  0  0  0  0  0  0  0
   28.3921   14.2513   20.7362 C   0  0  0  0  0  0  0  0  0  0  0  0
   29.1086   15.0401   21.8188 C   0  0  0  0  0  0  0  0  0  0  0  0
   30.1571   15.9768   21.2316 C   0  0  0  0  0  0  0  0  0  0  0  0
   31.0013   16.5964   22.3333 C   0  0  0  0  0  0  0  0  0  0  0  0
   32.0619   17.5242   21.8013 N   0  0  0  0  0  0  0  0  0  0  0  0
   26.8294   13.4747   18.2099 O   0  0  0  0  0  0  0  0  0  0  0  0
  2  1  1  1  0  0  0
  2  3  1  0  0  0  0
  2  5  1  0  0  0  0
  3  4  1  0  0  0  0
  3 10  1  0  0  0  0
  5  6  1  0  0  0  0
  6  7  1  0  0  0  0
  7  8  1  0  0  0  0
  8  9  1  0  0  0  0
M  END
>  <CHROM.1>
125.71218235,-86.05207190,-70.34254504,-171.44544582,179.55058637,28.62500695
15.27065253,20.20820444,2.50771497,-0.49730770,-1.59663637

>  <Name>
ligand

>  <RI>
0

>  <Rbt.Current_Directory>
/home/itssahil/PROJECTS/Mol_Feturizer/New_Systems/rnas/3DIZ

>  <Rbt.Executable>
rbdock ($Id: //depot/dev/client3/rdock/2013.1/src/exe/rbdock.cxx#4 $)

>  <Rbt.Library>
libRbt.so (2013.1, Build901 2013/11/27)

>  <Rbt.Parameter_File>
/export/apps/rDock/src/rDock_2013.1_src/data/scripts/dock_solv.prm

>  <Rbt.Receptor>
prm/pocket_docking_7.prm

>  <SCORE>
-7.79045

>  <SCORE.INTER>
-7.57414

>  <SCORE.INTER.CONST>
1

>  <SCORE.INTER.POLAR>
0

>  <SCORE.INTER.ROT>
5

>  <SCORE.INTER.SOLV>
16.5886

>  <SCORE.INTER.VDW>
-17.5123

>  <SCORE.INTER.norm>
-0.757414

>  <SCORE.INTRA>
-0.216319

>  <SCORE.INTRA.DIHEDRAL>
0.888521

>  <SCORE.INTRA.DIHEDRAL.0>
3.67053

>  <SCORE.INTRA.POLAR>
0

>  <SCORE.INTRA.POLAR.0>
0

>  <SCORE.INTRA.REPUL>
0

>  <SCORE.INTRA.REPUL.0>
0

>  <SCORE.INTRA.SOLV>
-0.850487

>  <SCORE.INTRA.SOLV.lig_0>
-32.0553

>  <SCORE.INTRA.VDW>
-0.235336

>  <SCORE.INTRA.VDW.0>
-0.571921

>  <SCORE.INTRA.norm>
-0.0216319

>  <SCORE.RESTR>
0

>  <SCORE.RESTR.CAVITY>
0

>  <SCORE.RESTR.norm>
0

>  <SCORE.SYSTEM>
0

>  <SCORE.SYSTEM.CONST>
0

>  <SCORE.SYSTEM.DIHEDRAL>
0

>  <SCORE.SYSTEM.SOLV>
0

>  <SCORE.SYSTEM.norm>
0

>  <SCORE.heavy>
10

>  <SCORE.norm>
-0.779045

>  <RMSD>
5.577

$$$$
ligand
 OpenBabel11021811473D
libRbt.so/2013.1/901 2013/11/27
 10  9  0  0  0  0  0  0  0  0999 V2000
   28.6034   14.9968   19.1022 N   0  0  0  0  0  0  0  0  0  0  0  0
   28.1686   15.0373   20.5308 C   0  0  2  0  0  0  0  0  0  0  0  0
   26.6530   15.1209   20.6536 C   0  0  0  0  0  0  0  0  0  0  0  0
   26.0664   14.6782   21.6352 O   0  0  0  0  0  0  0  0  0  0  0  0
   28.8419   16.1928   21.2755 C   0  0  0  0  0  0  0  0  0  0  0  0
   30.3596   16.1404   21.2410 C   0  0  0  0  0  0  0  0  0  0  0  0
   30.9802   17.3330   21.9580 C   0  0  0  0  0  0  0  0  0  0  0  0
   32.4975   17.2568   21.9133 C   0  0  0  0  0  0  0  0  0  0  0  0
   33.1589   18.3993   22.6386 N   0  0  0  0  0  0  0  0  0  0  0  0
   25.9586   15.6558   19.7999 O   0  0  0  0  0  0  0  0  0  0  0  0
  2  1  1  6  0  0  0
  2  3  1  0  0  0  0
  2  5  1  0  0  0  0
  3  4  1  0  0  0  0
  3 10  1  0  0  0  0
  5  6  1  0  0  0  0
  6  7  1  0  0  0  0
  7  8  1  0  0  0  0
  8  9  1  0  0  0  0
M  END
>  <CHROM.1>
152.37248181,-57.65389594,178.23822553,179.85800713,-178.63919503,29.08340520
16.07657694,21.07477561,-2.75008309,0.30209708,1.21281531

>  <Name>
ligand

>  <RI>
0

>  <Rbt.Current_Directory>
/home/itssahil/PROJECTS/Mol_Feturizer/New_Systems/rnas/3DIZ

>  <Rbt.Executable>
rbdock ($Id: //depot/dev/client3/rdock/2013.1/src/exe/rbdock.cxx#4 $)

>  <Rbt.Library>
libRbt.so (2013.1, Build901 2013/11/27)

>  <Rbt.Parameter_File>
/export/apps/rDock/src/rDock_2013.1_src/data/scripts/dock_solv.prm

>  <Rbt.Receptor>
prm/pocket_docking_3.prm

>  <SCORE>
-9.89999

>  <SCORE.INTER>
-8.20096

>  <SCORE.INTER.CONST>
1

>  <SCORE.INTER.POLAR>
0

>  <SCORE.INTER.ROT>
5

>  <SCORE.INTER.SOLV>
13.2145

>  <SCORE.INTER.VDW>
-16.8055

>  <SCORE.INTER.norm>
-0.820096

>  <SCORE.INTRA>
-1.69903

>  <SCORE.INTRA.DIHEDRAL>
-2.19339

>  <SCORE.INTRA.DIHEDRAL.0>
3.67053

>  <SCORE.INTRA.POLAR>
0

>  <SCORE.INTRA.POLAR.0>
0

>  <SCORE.INTRA.REPUL>
0

>  <SCORE.INTRA.REPUL.0>
0

>  <SCORE.INTRA.SOLV>
-0.780465

>  <SCORE.INTRA.SOLV.lig_0>
-32.0553

>  <SCORE.INTRA.VDW>
-0.212099

>  <SCORE.INTRA.VDW.0>
-0.571921

>  <SCORE.INTRA.norm>
-0.169903

>  <SCORE.RESTR>
0

>  <SCORE.RESTR.CAVITY>
0

>  <SCORE.RESTR.norm>
0

>  <SCORE.SYSTEM>
0

>  <SCORE.SYSTEM.CONST>
0

>  <SCORE.SYSTEM.DIHEDRAL>
0

>  <SCORE.SYSTEM.SOLV>
0

>  <SCORE.SYSTEM.norm>
0

>  <SCORE.heavy>
10

>  <SCORE.norm>
-0.989999

>  <RMSD>
5.578

$$$$
ligand
 OpenBabel11021811473D
libRbt.so/2013.1/901 2013/11/27
 10  9  0  0  0  0  0  0  0  0999 V2000
   28.6575   14.7299   19.2220 N   0  0  0  0  0  0  0  0  0  0  0  0
   28.1874   15.0050   20.6129 C   0  0  2  0  0  0  0  0  0  0  0  0
   26.6702   15.1182   20.6801 C   0  0  0  0  0  0  0  0  0  0  0  0
   26.0265   15.6245   19.7675 O   0  0  0  0  0  0  0  0  0  0  0  0
   28.8548   16.2613   21.1780 C   0  0  0  0  0  0  0  0  0  0  0  0
   30.3665   16.1556   21.2834 C   0  0  0  0  0  0  0  0  0  0  0  0
   30.9802   17.4245   21.8621 C   0  0  0  0  0  0  0  0  0  0  0  0
   32.4970   17.3292   21.8771 C   0  0  0  0  0  0  0  0  0  0  0  0
   33.1512   18.5551   22.4583 N   0  0  0  0  0  0  0  0  0  0  0  0
   26.0259   14.6859   21.6262 O   0  0  0  0  0  0  0  0  0  0  0  0
  2  1  1  6  0  0  0
  2  3  1  0  0  0  0
  2  5  1  0  0  0  0
  3  4  1  0  0  0  0
  3 10  1  0  0  0  0
  5  6  1  0  0  0  0
  6  7  1  0  0  0  0
  7  8  1  0  0  0  0
  8  9  1  0  0  0  0
M  END
>  <CHROM.1>
-35.81090398,-61.69558710,-179.48501379,-176.46202311,-179.24974256,29.09621310
16.08426891,21.05530611,-2.71466656,0.26993631,1.05815949

>  <Name>
ligand

>  <RI>
0

>  <Rbt.Current_Directory>
/home/itssahil/PROJECTS/Mol_Feturizer/New_Systems/rnas/3DIZ

>  <Rbt.Executable>
rbdock ($Id: //depot/dev/client3/rdock/2013.1/src/exe/rbdock.cxx#4 $)

>  <Rbt.Library>
libRbt.so (2013.1, Build901 2013/11/27)

>  <Rbt.Parameter_File>
/export/apps/rDock/src/rDock_2013.1_src/data/scripts/dock_solv.prm

>  <Rbt.Receptor>
prm/pocket_docking_6.prm

>  <SCORE>
-9.80023

>  <SCORE.INTER>
-8.08765

>  <SCORE.INTER.CONST>
1

>  <SCORE.INTER.POLAR>
0

>  <SCORE.INTER.ROT>
5

>  <SCORE.INTER.SOLV>
13.6129

>  <SCORE.INTER.VDW>
-16.8627

>  <SCORE.INTER.norm>
-0.808765

>  <SCORE.INTRA>
-1.71258

>  <SCORE.INTRA.DIHEDRAL>
-2.04053

>  <SCORE.INTRA.DIHEDRAL.0>
3.67053

>  <SCORE.INTRA.POLAR>
0

>  <SCORE.INTRA.POLAR.0>
0

>  <SCORE.INTRA.REPUL>
0

>  <SCORE.INTRA.REPUL.0>
0

>  <SCORE.INTRA.SOLV>
-0.832484

>  <SCORE.INTRA.SOLV.lig_0>
-32.0553

>  <SCORE.INTRA.VDW>
-0.27607

>  <SCORE.INTRA.VDW.0>
-0.571921

>  <SCORE.INTRA.norm>
-0.171258

>  <SCORE.RESTR>
0

>  <SCORE.RESTR.CAVITY>
0

>  <SCORE.RESTR.norm>
0

>  <SCORE.SYSTEM>
0

>  <SCORE.SYSTEM.CONST>
0

>  <SCORE.SYSTEM.DIHEDRAL>
0

>  <SCORE.SYSTEM.SOLV>
0

>  <SCORE.SYSTEM.norm>
0

>  <SCORE.heavy>
10

>  <SCORE.norm>
-0.980023

>  <RMSD>
5.579

$$$$
ligand
 OpenBabel11021811473D
libRbt.so/2013.1/901 2013/11/27
 10  9  0  0  0  0  0  0  0  0999 V2000
   28.8052   14.1253   19.9430 N   0  0  0  0  0  0  0  0  0  0  0  0
   28.1689   14.8957   21.0534 C   0  0  2  0  0  0  0  0  0  0  0  0
   26.6916   15.1503   20.7849 C   0  0  0  0  0  0  0  0  0  0  0  0
   26.3255   15.8853   19.8742 O   0  0  0  0  0  0  0  0  0  0  0  0
   28.9131   16.2095   21.3050 C   0  0  0  0  0  0  0  0  0  0  0  0
   30.3789   16.0238   21.6578 C   0  0  0  0  0  0  0  0  0  0  0  0
   31.0955   17.3602   21.8058 C   0  0  0  0  0  0  0  0  0  0  0  0
   32.5799   17.1491   22.0552 C   0  0  0  0  0  0  0  0  0  0  0  0
   33.3407   18.4442   22.1680 N   0  0  0  0  0  0  0  0  0  0  0  0
   25.8084   14.6145   21.4405 O   0  0  0  0  0  0  0  0  0  0  0  0
  2  1  1  6  0  0  0
  2  3  1  0  0  0  0
  2  5  1  0  0  0  0
  3  4  1  0  0  0  0
  3 10  1  0  0  0  0
  5  6  1  0  0  0  0
  6  7  1  0  0  0  0
  7  8  1  0  0  0  0
  8  9  1  0  0  0  0
M  END
>  <CHROM.1>
-67.19437093,-58.60483994,176.15784151,-175.75021660,178.29385966,29.16577119
15.98485846,21.20058048,-2.67668936,-0.06896748,0.33811439

>  <Name>
ligand

>  <RI>
0

>  <Rbt.Current_Directory>
/home/itssahil/PROJECTS/Mol_Feturizer/New_Systems/rnas/3DIZ

>  <Rbt.Executable>
rbdock ($Id: //depot/dev/client3/rdock/2013.1/src/exe/rbdock.cxx#4 $)

>  <Rbt.Library>
libRbt.so (2013.1, Build901 2013/11/27)

>  <Rbt.Parameter_File>
/export/apps/rDock/src/rDock_2013.1_src/data/scripts/dock_solv.prm

>  <Rbt.Receptor>
prm/pocket_docking_7.prm

>  <SCORE>
-9.55251

>  <SCORE.INTER>
-7.99733

>  <SCORE.INTER.CONST>
1

>  <SCORE.INTER.POLAR>
0

>  <SCORE.INTER.ROT>
5

>  <SCORE.INTER.SOLV>
15.2806

>  <SCORE.INTER.VDW>
-17.3584

>  <SCORE.INTER.norm>
-0.799733

>  <SCORE.INTRA>
-1.55518

>  <SCORE.INTRA.DIHEDRAL>
-2.0429

>  <SCORE.INTRA.DIHEDRAL.0>
3.67053

>  <SCORE.INTRA.POLAR>
0

>  <SCORE.INTRA.POLAR.0>
0

>  <SCORE.INTRA.REPUL>
0

>  <SCORE.INTRA.REPUL.0>
0

>  <SCORE.INTRA.SOLV>
-0.783818

>  <SCORE.INTRA.SOLV.lig_0>
-32.0553

>  <SCORE.INTRA.VDW>
-0.14182

>  <SCORE.INTRA.VDW.0>
-0.571921

>  <SCORE.INTRA.norm>
-0.155518

>  <SCORE.RESTR>
0

>  <SCORE.RESTR.CAVITY>
0

>  <SCORE.RESTR.norm>
0

>  <SCORE.SYSTEM>
0

>  <SCORE.SYSTEM.CONST>
0

>  <SCORE.SYSTEM.DIHEDRAL>
0

>  <SCORE.SYSTEM.SOLV>
0

>  <SCORE.SYSTEM.norm>
0

>  <SCORE.heavy>
10

>  <SCORE.norm>
-0.955251

>  <RMSD>
5.580

$$$$
ligand
 OpenBabel11021811473D
libRbt.so/2013.1/901 2013/11/27
 10  9  0  0  0  0  0  0  0  0999 V2000
   28.6052   14.9773   19.0921 N   0  0  0  0  0  0  0  0  0  0  0  0
   28.1770   15.0652   20.5206 C   0  0  2  0  0  0  0  0  0  0  0  0
   26.6618   15.1480   20.6479 C   0  0  0  0  0  0  0  0  0  0  0  0
   25.9751   15.6695   19.7761 O   0  0  0  0  0  0  0  0  0  0  0  0
   28.8499   16.2477   21.2220 C   0  0  0  0  0  0  0  0  0  0  0  0
   30.3663   16.1618   21.2461 C   0  0  0  0  0  0  0  0  0  0  0  0
   30.9874   17.3701   21.9358 C   0  0  0  0  0  0  0  0  0  0  0  0
   32.5002   17.2364   21.9948 C   0  0  0  0  0  0  0  0  0  0  0  0
   33.1622   18.4103   22.6675 N   0  0  0  0  0  0  0  0  0  0  0  0
   26.0615   14.6754   21.6036 O   0  0  0  0  0  0  0  0  0  0  0  0
  2  1  1  6  0  0  0
  2  3  1  0  0  0  0
  2  5  1  0  0  0  0
  3  4  1  0  0  0  0
  3 10  1  0  0  0  0
  5  6  1  0  0  0  0
  6  7  1  0  0  0  0
  7  8  1  0  0  0  0
  8  9  1  0  0  0  0
M  END
>  <CHROM.1>
-30.16049242,-60.71075434,179.16251252,177.83470495,179.91158434,29.08919911
16.09108569,21.07002293,-2.73885762,0.29492218,1.20248499

>  <Name>
ligand

>  <RI>
0

>  <Rbt.Current_Directory>
/home/itssahil/PROJECTS/Mol_Feturizer/New_Systems/rnas/3DIZ

>  <Rbt.Executable>
rbdock ($Id: //depot/dev/client3/rdock/2013.1/src/exe/rbdock.cxx#4 $)

>  <Rbt.Library>
libRbt.so (2013.1, Build901 2013/11/27)

>  <Rbt.Parameter_File>
/export/apps/rDock/src/rDock_2013.1_src/data/scripts/dock_solv.prm

>  <Rbt.Receptor>
prm/pocket_docking_8.prm

>  <SCORE>
-9.80045

>  <SCORE.INTER>
-8.10345

>  <SCORE.INTER.CONST>
1

>  <SCORE.INTER.POLAR>
0

>  <SCORE.INTER.ROT>
5

>  <SCORE.INTER.SOLV>
13.2857

>  <SCORE.INTER.VDW>
-16.7642

>  <SCORE.INTER.norm>
-0.810345

>  <SCORE.INTRA>
-1.697

>  <SCORE.INTRA.DIHEDRAL>
-2.08082

>  <SCORE.INTRA.DIHEDRAL.0>
3.67053

>  <SCORE.INTRA.POLAR>
0

>  <SCORE.INTRA.POLAR.0>
0

>  <SCORE.INTRA.REPUL>
0

>  <SCORE.INTRA.REPUL.0>
0

>  <SCORE.INTRA.SOLV>
-0.81128

>  <SCORE.INTRA.SOLV.lig_0>
-32.0553

>  <SCORE.INTRA.VDW>
-0.250955

>  <SCORE.INTRA.VDW.0>
-0.571921

>  <SCORE.INTRA.norm>
-0.1697

>  <SCORE.RESTR>
0

>  <SCORE.RESTR.CAVITY>
0

>  <SCORE.RESTR.norm>
0

>  <SCORE.SYSTEM>
0

>  <SCORE.SYSTEM.CONST>
0

>  <SCORE.SYSTEM.DIHEDRAL>
0

>  <SCORE.SYSTEM.SOLV>
0

>  <SCORE.SYSTEM.norm>
0

>  <SCORE.heavy>
10

>  <SCORE.norm>
-0.980045

>  <RMSD>
5.582

$$$$
ligand
 OpenBabel11021811473D
libRbt.so/2013.1/901 2013/11/27
 10  9  0  0  0  0  0  0  0  0999 V2000
   26.1767   14.5673   20.6625 N   0  0  0  0  0  0  0  0  0  0  0  0
   27.2614   15.1821   19.8398 C   0  0  2  0  0  0  0  0  0  0  0  0
   27.3323   14.5615   18.4509 C   0  0  0  0  0  0  0  0  0  0  0  0
   26.8773   13.4452   18.2262 O   0  0  0  0  0  0  0  0  0  0  0  0
   28.6124   15.0826   20.5526 C   0  0  0  0  0  0  0  0  0  0  0  0
   28.6338   15.7490   21.9175 C   0  0  0  0  0  0  0  0  0  0  0  0
   30.0548   15.9071   22.4441 C   0  0  0  0  0  0  0  0  0  0  0  0
   30.8072   16.9631   21.6512 C   0  0  0  0  0  0  0  0  0  0  0  0
   32.2052   17.1895   22.1642 N   0  0  0  0  0  0  0  0  0  0  0  0
   27.8156   15.1546   17.4961 O   0  0  0  0  0  0  0  0  0  0  0  0
  2  1  1  1  0  0  0
  2  3  1  0  0  0  0
  2  5  1  0  0  0  0
  3  4  1  0  0  0  0
  3 10  1  0  0  0  0
  5  6  1  0  0  0  0
  6  7  1  0  0  0  0
  7  8  1  0  0  0  0
  8  9  1  0  0  0  0
M  END
>  <CHROM.1>
-22.14402727,-58.39764744,-166.92551807,70.68599996,178.07816143,28.57026500
15.36297300,20.30145638,2.43586399,-0.45863561,-1.67818416

>  <Name>
ligand

>  <RI>
0

>  <Rbt.Current_Directory>
/home/itssahil/PROJECTS/Mol_Feturizer/New_Systems/rnas/3DIZ

>  <Rbt.Executable>
rbdock ($Id: //depot/dev/client3/rdock/2013.1/src/exe/rbdock.cxx#4 $)

>  <Rbt.Library>
libRbt.so (2013.1, Build901 2013/11/27)

>  <Rbt.Parameter_File>
/export/apps/rDock/src/rDock_2013.1_src/data/scripts/dock_solv.prm

>  <Rbt.Receptor>
prm/pocket_docking_6.prm

>  <SCORE>
-8.63369

>  <SCORE.INTER>
-8.23462

>  <SCORE.INTER.CONST>
1

>  <SCORE.INTER.POLAR>
0

>  <SCORE.INTER.ROT>
5

>  <SCORE.INTER.SOLV>
16.9015

>  <SCORE.INTER.VDW>
-18.0569

>  <SCORE.INTER.norm>
-0.823462

>  <SCORE.INTRA>
-0.40007

>  <SCORE.INTRA.DIHEDRAL>
-0.933602

>  <SCORE.INTRA.DIHEDRAL.0>
3.67053

>  <SCORE.INTRA.POLAR>
0

>  <SCORE.INTRA.POLAR.0>
0

>  <SCORE.INTRA.REPUL>
0

>  <SCORE.INTRA.REPUL.0>
0

>  <SCORE.INTRA.SOLV>
-0.622561

>  <SCORE.INTRA.SOLV.lig_0>
-32.0553

>  <SCORE.INTRA.VDW>
0.378011

>  <SCORE.INTRA.VDW.0>
-0.571921

>  <SCORE.INTRA.norm>
-0.040007

>  <SCORE.RESTR>
0.00100349

>  <SCORE.RESTR.CAVITY>
0.00100349

>  <SCORE.RESTR.norm>
0.000100349

>  <SCORE.SYSTEM>
0

>  <SCORE.SYSTEM.CONST>
0

>  <SCORE.SYSTEM.DIHEDRAL>
0

>  <SCORE.SYSTEM.SOLV>
0

>  <SCORE.SYSTEM.norm>
0

>  <SCORE.heavy>
10

>  <SCORE.norm>
-0.863369

>  <RMSD>
5.584

$$$$
ligand
 OpenBabel11021811473D
libRbt.so/2013.1/901 2013/11/27
 10  9  0  0  0  0  0  0  0  0999 V2000
   26.1816   14.5575   20.6663 N   0  0  0  0  0  0  0  0  0  0  0  0
   27.2575   15.1817   19.8390 C   0  0  2  0  0  0  0  0  0  0  0  0
   27.3310   14.5586   18.4514 C   0  0  0  0  0  0  0  0  0  0  0  0
   26.8984   13.4321   18.2335 O   0  0  0  0  0  0  0  0  0  0  0  0
   28.6115   15.0981   20.5481 C   0  0  0  0  0  0  0  0  0  0  0  0
   28.6258   15.7549   21.9178 C   0  0  0  0  0  0  0  0  0  0  0  0
   30.0443   15.9140   22.4506 C   0  0  0  0  0  0  0  0  0  0  0  0
   30.8004   16.9685   21.6591 C   0  0  0  0  0  0  0  0  0  0  0  0
   32.1961   17.1957   22.1780 N   0  0  0  0  0  0  0  0  0  0  0  0
   27.7938   15.1592   17.4912 O   0  0  0  0  0  0  0  0  0  0  0  0
  2  1  1  1  0  0  0
  2  3  1  0  0  0  0
  2  5  1  0  0  0  0
  3  4  1  0  0  0  0
  3 10  1  0  0  0  0
  5  6  1  0  0  0  0
  6  7  1  0  0  0  0
  7  8  1  0  0  0  0
  8  9  1  0  0  0  0
M  END
>  <CHROM.1>
-22.84282307,-57.78239407,-167.69921450,70.13393429,178.08703459,28.56668141
15.36472920,20.30445823,2.43374397,-0.46212407,-1.67746147

>  <Name>
ligand

>  <RI>
0

>  <Rbt.Current_Directory>
/home/itssahil/PROJECTS/Mol_Feturizer/New_Systems/rnas/3DIZ

>  <Rbt.Executable>
rbdock ($Id: //depot/dev/client3/rdock/2013.1/src/exe/rbdock.cxx#4 $)

>  <Rbt.Library>
libRbt.so (2013.1, Build901 2013/11/27)

>  <Rbt.Parameter_File>
/export/apps/rDock/src/rDock_2013.1_src/data/scripts/dock_solv.prm

>  <Rbt.Receptor>
prm/pocket_docking_8.prm

>  <SCORE>
-8.6565

>  <SCORE.INTER>
-8.23214

>  <SCORE.INTER.CONST>
1

>  <SCORE.INTER.POLAR>
0

>  <SCORE.INTER.ROT>
5

>  <SCORE.INTER.SOLV>
16.884

>  <SCORE.INTER.VDW>
-18.0494

>  <SCORE.INTER.norm>
-0.823214

>  <SCORE.INTRA>
-0.425768

>  <SCORE.INTRA.DIHEDRAL>
-1.04746

>  <SCORE.INTRA.DIHEDRAL.0>
3.67053

>  <SCORE.INTRA.POLAR>
0

>  <SCORE.INTRA.POLAR.0>
0

>  <SCORE.INTRA.REPUL>
0

>  <SCORE.INTRA.REPUL.0>
0

>  <SCORE.INTRA.SOLV>
-0.609325

>  <SCORE.INTRA.SOLV.lig_0>
-32.0553

>  <SCORE.INTRA.VDW>
0.402623

>  <SCORE.INTRA.VDW.0>
-0.571921

>  <SCORE.INTRA.norm>
-0.0425768

>  <SCORE.RESTR>
0.00140571

>  <SCORE.RESTR.CAVITY>
0.00140571

>  <SCORE.RESTR.norm>
0.000140571

>  <SCORE.SYSTEM>
0

>  <SCORE.SYSTEM.CONST>
0

>  <SCORE.SYSTEM.DIHEDRAL>
0

>  <SCORE.SYSTEM.SOLV>
0

>  <SCORE.SYSTEM.norm>
0

>  <SCORE.heavy>
10

>  <SCORE.norm>
-0.86565

>  <RMSD>
5.585

$$$$
ligand
 OpenBabel11021811473D
libRbt.so/2013.1/901 2013/11/27
 10  9  0  0  0  0  0  0  0  0999 V2000
   28.9252   13.9303   20.9595 N   0  0  0  0  0  0  0  0  0  0  0  0
   28.2652   15.1874   21.4241 C   0  0  2  0  0  0  0  0  0  0  0  0
   26.9063   15.3838   20.7655 C   0  0  0  0  0  0  0  0  0  0  0  0
   25.8971   14.8490   21.2115 O   0  0  0  0  0  0  0  0  0  0  0  0
   29.1684   16.4001   21.1862 C   0  0  0  0  0  0  0  0  0  0  0  0
   30.5168   16.3034   21.8790 C   0  0  0  0  0  0  0  0  0  0  0  0
   31.3277   17.5826   21.7130 C   0  0  0  0  0  0  0  0  0  0  0  0
   32.7158   17.4202   22.3104 C   0  0  0  0  0  0  0  0  0  0  0  0
   33.5326   18.6835   22.2359 N   0  0  0  0  0  0  0  0  0  0  0  0
   26.7543   16.1023   19.7869 O   0  0  0  0  0  0  0  0  0  0  0  0
  2  1  1  6  0  0  0
  2  3  1  0  0  0  0
  2  5  1  0  0  0  0
  3  4  1  0  0  0  0
  3 10  1  0  0  0  0
  5  6  1  0  0  0  0
  6  7  1  0  0  0  0
  7  8  1  0  0  0  0
  8  9  1  0  0  0  0
M  END
>  <CHROM.1>
84.05766530,-58.40703319,-175.00968222,-175.15376091,-176.97369461,29.35818299
16.18296400,21.33117961,-2.76832972,-0.31773366,-0.20115427

>  <Name>
ligand

>  <RI>
0

>  <Rbt.Current_Directory>
/home/itssahil/PROJECTS/Mol_Feturizer/New_Systems/rnas/3DIZ

>  <Rbt.Executable>
rbdock ($Id: //depot/dev/client3/rdock/2013.1/src/exe/rbdock.cxx#4 $)

>  <Rbt.Library>
libRbt.so (2013.1, Build901 2013/11/27)

>  <Rbt.Parameter_File>
/export/apps/rDock/src/rDock_2013.1_src/data/scripts/dock_solv.prm

>  <Rbt.Receptor>
prm/pocket_docking_2.prm

>  <SCORE>
-8.38256

>  <SCORE.INTER>
-7.28105

>  <SCORE.INTER.CONST>
1

>  <SCORE.INTER.POLAR>
0

>  <SCORE.INTER.ROT>
5

>  <SCORE.INTER.SOLV>
16.5282

>  <SCORE.INTER.VDW>
-17.2968

>  <SCORE.INTER.norm>
-0.728105

>  <SCORE.INTRA>
-1.10677

>  <SCORE.INTRA.DIHEDRAL>
-1.86866

>  <SCORE.INTRA.DIHEDRAL.0>
3.67053

>  <SCORE.INTRA.POLAR>
0

>  <SCORE.INTRA.POLAR.0>
0

>  <SCORE.INTRA.REPUL>
0

>  <SCORE.INTRA.REPUL.0>
0

>  <SCORE.INTRA.SOLV>
-0.841118

>  <SCORE.INTRA.SOLV.lig_0>
-32.0553

>  <SCORE.INTRA.VDW>
0.248126

>  <SCORE.INTRA.VDW.0>
-0.571921

>  <SCORE.INTRA.norm>
-0.110677

>  <SCORE.RESTR>
0.00525622

>  <SCORE.RESTR.CAVITY>
0.00525622

>  <SCORE.RESTR.norm>
0.000525622

>  <SCORE.SYSTEM>
0

>  <SCORE.SYSTEM.CONST>
0

>  <SCORE.SYSTEM.DIHEDRAL>
0

>  <SCORE.SYSTEM.SOLV>
0

>  <SCORE.SYSTEM.norm>
0

>  <SCORE.heavy>
10

>  <SCORE.norm>
-0.838256

>  <RMSD>
5.586

$$$$
ligand
 OpenBabel11021811473D
libRbt.so/2013.1/901 2013/11/27
 10  9  0  0  0  0  0  0  0  0999 V2000
   28.6096   15.0176   19.1175 N   0  0  0  0  0  0  0  0  0  0  0  0
   28.1665   15.0398   20.5439 C   0  0  2  0  0  0  0  0  0  0  0  0
   26.6496   15.1088   20.6592 C   0  0  0  0  0  0  0  0  0  0  0  0
   25.9667   15.6410   19.7909 O   0  0  0  0  0  0  0  0  0  0  0  0
   28.8254   16.1936   21.3040 C   0  0  0  0  0  0  0  0  0  0  0  0
   30.3438   16.1557   21.2763 C   0  0  0  0  0  0  0  0  0  0  0  0
   30.9497   17.3409   22.0176 C   0  0  0  0  0  0  0  0  0  0  0  0
   32.4669   17.3085   21.9336 C   0  0  0  0  0  0  0  0  0  0  0  0
   33.1170   18.4158   22.7211 N   0  0  0  0  0  0  0  0  0  0  0  0
   26.0445   14.6141   21.6006 O   0  0  0  0  0  0  0  0  0  0  0  0
  2  1  1  6  0  0  0
  2  3  1  0  0  0  0
  2  5  1  0  0  0  0
  3  4  1  0  0  0  0
  3 10  1  0  0  0  0
  5  6  1  0  0  0  0
  6  7  1  0  0  0  0
  7  8  1  0  0  0  0
  8  9  1  0  0  0  0
M  END
>  <CHROM.1>
-28.66495605,-57.59552918,178.66530450,-177.95764666,-176.59207657,29.06855323
16.07806664,21.09550107,-2.74298467,0.31380301,1.22765740

>  <Name>
ligand

>  <RI>
0

>  <Rbt.Current_Directory>
/home/itssahil/PROJECTS/Mol_Feturizer/New_Systems/rnas/3DIZ

>  <Rbt.Executable>
rbdock ($Id: //depot/dev/client3/rdock/2013.1/src/exe/rbdock.cxx#4 $)

>  <Rbt.Library>
libRbt.so (2013.1, Build901 2013/11/27)

>  <Rbt.Parameter_File>
/export/apps/rDock/src/rDock_2013.1_src/data/scripts/dock_solv.prm

>  <Rbt.Receptor>
prm/blind_docking_60.prm

>  <SCORE>
-9.77041

>  <SCORE.INTER>
-8.16456

>  <SCORE.INTER.CONST>
1

>  <SCORE.INTER.POLAR>
0

>  <SCORE.INTER.ROT>
5

>  <SCORE.INTER.SOLV>
13.2271

>  <SCORE.INTER.VDW>
-16.7854

>  <SCORE.INTER.norm>
-0.816456

>  <SCORE.INTRA>
-1.60585

>  <SCORE.INTRA.DIHEDRAL>
-2.02071

>  <SCORE.INTRA.DIHEDRAL.0>
3.67053

>  <SCORE.INTRA.POLAR>
0

>  <SCORE.INTRA.POLAR.0>
0

>  <SCORE.INTRA.REPUL>
0

>  <SCORE.INTRA.REPUL.0>
0

>  <SCORE.INTRA.SOLV>
-0.768599

>  <SCORE.INTRA.SOLV.lig_0>
-32.0553

>  <SCORE.INTRA.VDW>
-0.211195

>  <SCORE.INTRA.VDW.0>
-0.571921

>  <SCORE.INTRA.norm>
-0.160585

>  <SCORE.RESTR>
0

>  <SCORE.RESTR.CAVITY>
0

>  <SCORE.RESTR.norm>
0

>  <SCORE.SYSTEM>
0

>  <SCORE.SYSTEM.CONST>
0

>  <SCORE.SYSTEM.DIHEDRAL>
0

>  <SCORE.SYSTEM.SOLV>
0

>  <SCORE.SYSTEM.norm>
0

>  <SCORE.heavy>
10

>  <SCORE.norm>
-0.977041

>  <RMSD>
5.588

$$$$
ligand
 OpenBabel11021811473D
libRbt.so/2013.1/901 2013/11/27
 10  9  0  0  0  0  0  0  0  0999 V2000
   28.8246   13.9699   20.5360 N   0  0  0  0  0  0  0  0  0  0  0  0
   28.1059   15.0079   21.3344 C   0  0  2  0  0  0  0  0  0  0  0  0
   26.6926   15.2360   20.8153 C   0  0  0  0  0  0  0  0  0  0  0  0
   25.7228   14.7104   21.3510 O   0  0  0  0  0  0  0  0  0  0  0  0
   28.8953   16.3191   21.3646 C   0  0  0  0  0  0  0  0  0  0  0  0
   30.3163   16.1653   21.8791 C   0  0  0  0  0  0  0  0  0  0  0  0
   31.0841   17.4797   21.8123 C   0  0  0  0  0  0  0  0  0  0  0  0
   32.5427   17.2694   22.1843 C   0  0  0  0  0  0  0  0  0  0  0  0
   33.3469   18.5416   22.1269 N   0  0  0  0  0  0  0  0  0  0  0  0
   26.4579   15.9716   19.8662 O   0  0  0  0  0  0  0  0  0  0  0  0
  2  1  1  6  0  0  0
  2  3  1  0  0  0  0
  2  5  1  0  0  0  0
  3  4  1  0  0  0  0
  3 10  1  0  0  0  0
  5  6  1  0  0  0  0
  6  7  1  0  0  0  0
  7  8  1  0  0  0  0
  8  9  1  0  0  0  0
M  END
>  <CHROM.1>
99.00981798,-55.57612711,176.64015539,-173.70104156,179.73580139,29.15507935
16.06616569,21.31417690,-2.71960924,-0.22571816,-0.00924580

>  <Name>
ligand

>  <RI>
0

>  <Rbt.Current_Directory>
/home/itssahil/PROJECTS/Mol_Feturizer/New_Systems/rnas/3DIZ

>  <Rbt.Executable>
rbdock ($Id: //depot/dev/client3/rdock/2013.1/src/exe/rbdock.cxx#4 $)

>  <Rbt.Library>
libRbt.so (2013.1, Build901 2013/11/27)

>  <Rbt.Parameter_File>
/export/apps/rDock/src/rDock_2013.1_src/data/scripts/dock_solv.prm

>  <Rbt.Receptor>
prm/pocket_docking_7.prm

>  <SCORE>
-9.03282

>  <SCORE.INTER>
-7.78918

>  <SCORE.INTER.CONST>
1

>  <SCORE.INTER.POLAR>
0

>  <SCORE.INTER.ROT>
5

>  <SCORE.INTER.SOLV>
16.0409

>  <SCORE.INTER.VDW>
-17.4731

>  <SCORE.INTER.norm>
-0.778918

>  <SCORE.INTRA>
-1.24364

>  <SCORE.INTRA.DIHEDRAL>
-1.83214

>  <SCORE.INTRA.DIHEDRAL.0>
3.67053

>  <SCORE.INTRA.POLAR>
0

>  <SCORE.INTRA.POLAR.0>
0

>  <SCORE.INTRA.REPUL>
0

>  <SCORE.INTRA.REPUL.0>
0

>  <SCORE.INTRA.SOLV>
-0.769008

>  <SCORE.INTRA.SOLV.lig_0>
-32.0553

>  <SCORE.INTRA.VDW>
0.0569301

>  <SCORE.INTRA.VDW.0>
-0.571921

>  <SCORE.INTRA.norm>
-0.124364

>  <SCORE.RESTR>
0

>  <SCORE.RESTR.CAVITY>
0

>  <SCORE.RESTR.norm>
0

>  <SCORE.SYSTEM>
0

>  <SCORE.SYSTEM.CONST>
0

>  <SCORE.SYSTEM.DIHEDRAL>
0

>  <SCORE.SYSTEM.SOLV>
0

>  <SCORE.SYSTEM.norm>
0

>  <SCORE.heavy>
10

>  <SCORE.norm>
-0.903282

>  <RMSD>
5.602

$$$$
ligand
 OpenBabel11021811473D
libRbt.so/2013.1/901 2013/11/27
 10  9  0  0  0  0  0  0  0  0999 V2000
   28.6716   14.0931   19.8841 N   0  0  0  0  0  0  0  0  0  0  0  0
   28.0229   14.7895   21.0355 C   0  0  2  0  0  0  0  0  0  0  0  0
   26.5525   15.0759   20.7617 C   0  0  0  0  0  0  0  0  0  0  0  0
   26.2036   15.7824   19.8221 O   0  0  0  0  0  0  0  0  0  0  0  0
   28.7732   16.0755   21.3909 C   0  0  0  0  0  0  0  0  0  0  0  0
   30.2451   15.8593   21.6981 C   0  0  0  0  0  0  0  0  0  0  0  0
   30.9799   17.1803   21.8889 C   0  0  0  0  0  0  0  0  0  0  0  0
   32.4762   16.9486   22.0208 C   0  0  0  0  0  0  0  0  0  0  0  0
   33.2580   18.2330   22.1108 N   0  0  0  0  0  0  0  0  0  0  0  0
   25.6571   14.5942   21.4423 O   0  0  0  0  0  0  0  0  0  0  0  0
  2  1  1  6  0  0  0
  2  3  1  0  0  0  0
  2  5  1  0  0  0  0
  3  4  1  0  0  0  0
  3 10  1  0  0  0  0
  5  6  1  0  0  0  0
  6  7  1  0  0  0  0
  7  8  1  0  0  0  0
  8  9  1  0  0  0  0
M  END
>  <CHROM.1>
-60.53969493,-56.23404812,173.49879127,-172.88695095,175.81412207,29.03905401
15.86313147,21.19711663,-2.69318086,-0.03555169,0.42796415

>  <Name>
ligand

>  <RI>
0

>  <Rbt.Current_Directory>
/home/itssahil/PROJECTS/Mol_Feturizer/New_Systems/rnas/3DIZ

>  <Rbt.Executable>
rbdock ($Id: //depot/dev/client3/rdock/2013.1/src/exe/rbdock.cxx#4 $)

>  <Rbt.Library>
libRbt.so (2013.1, Build901 2013/11/27)

>  <Rbt.Parameter_File>
/export/apps/rDock/src/rDock_2013.1_src/data/scripts/dock_solv.prm

>  <Rbt.Receptor>
prm/pocket_docking_4.prm

>  <SCORE>
-9.64357

>  <SCORE.INTER>
-8.26855

>  <SCORE.INTER.CONST>
1

>  <SCORE.INTER.POLAR>
0

>  <SCORE.INTER.ROT>
5

>  <SCORE.INTER.SOLV>
15.2097

>  <SCORE.INTER.VDW>
-17.5156

>  <SCORE.INTER.norm>
-0.826855

>  <SCORE.INTRA>
-1.37502

>  <SCORE.INTRA.DIHEDRAL>
-1.67644

>  <SCORE.INTRA.DIHEDRAL.0>
3.67053

>  <SCORE.INTRA.POLAR>
0

>  <SCORE.INTRA.POLAR.0>
0

>  <SCORE.INTRA.REPUL>
0

>  <SCORE.INTRA.REPUL.0>
0

>  <SCORE.INTRA.SOLV>
-0.736774

>  <SCORE.INTRA.SOLV.lig_0>
-32.0553

>  <SCORE.INTRA.VDW>
-0.16841

>  <SCORE.INTRA.VDW.0>
-0.571921

>  <SCORE.INTRA.norm>
-0.137502

>  <SCORE.RESTR>
0

>  <SCORE.RESTR.CAVITY>
0

>  <SCORE.RESTR.norm>
0

>  <SCORE.SYSTEM>
0

>  <SCORE.SYSTEM.CONST>
0

>  <SCORE.SYSTEM.DIHEDRAL>
0

>  <SCORE.SYSTEM.SOLV>
0

>  <SCORE.SYSTEM.norm>
0

>  <SCORE.heavy>
10

>  <SCORE.norm>
-0.964357

>  <RMSD>
5.603

$$$$
ligand
 OpenBabel11021811473D
libRbt.so/2013.1/901 2013/11/27
 10  9  0  0  0  0  0  0  0  0999 V2000
   26.4859   14.4329   20.8127 N   0  0  0  0  0  0  0  0  0  0  0  0
   26.7981   15.3617   19.6851 C   0  0  2  0  0  0  0  0  0  0  0  0
   27.3070   14.6091   18.4629 C   0  0  0  0  0  0  0  0  0  0  0  0
   28.0584   15.1406   17.6527 O   0  0  0  0  0  0  0  0  0  0  0  0
   27.7980   16.4355   20.1212 C   0  0  0  0  0  0  0  0  0  0  0  0
   29.1338   15.8766   20.5804 C   0  0  0  0  0  0  0  0  0  0  0  0
   30.1022   16.9851   20.9738 C   0  0  0  0  0  0  0  0  0  0  0  0
   31.4312   16.4023   21.4257 C   0  0  0  0  0  0  0  0  0  0  0  0
   32.4100   17.4589   21.8665 N   0  0  0  0  0  0  0  0  0  0  0  0
   27.0163   13.4398   18.2501 O   0  0  0  0  0  0  0  0  0  0  0  0
  2  1  1  1  0  0  0
  2  3  1  0  0  0  0
  2  5  1  0  0  0  0
  3  4  1  0  0  0  0
  3 10  1  0  0  0  0
  5  6  1  0  0  0  0
  6  7  1  0  0  0  0
  7  8  1  0  0  0  0
  8  9  1  0  0  0  0
M  END
>  <CHROM.1>
-152.57860484,60.80137488,178.74384546,-179.85457758,-178.22139630,28.65515580
15.59330108,19.94977980,2.51288074,-0.34272595,-1.89678334

>  <Name>
ligand

>  <RI>
0

>  <Rbt.Current_Directory>
/home/itssahil/PROJECTS/Mol_Feturizer/New_Systems/rnas/3DIZ

>  <Rbt.Executable>
rbdock ($Id: //depot/dev/client3/rdock/2013.1/src/exe/rbdock.cxx#4 $)

>  <Rbt.Library>
libRbt.so (2013.1, Build901 2013/11/27)

>  <Rbt.Parameter_File>
/export/apps/rDock/src/rDock_2013.1_src/data/scripts/dock_solv.prm

>  <Rbt.Receptor>
prm/pocket_docking_5.prm

>  <SCORE>
-8.55834

>  <SCORE.INTER>
-7.50656

>  <SCORE.INTER.CONST>
1

>  <SCORE.INTER.POLAR>
0

>  <SCORE.INTER.ROT>
5

>  <SCORE.INTER.SOLV>
16.7311

>  <SCORE.INTER.VDW>
-17.5148

>  <SCORE.INTER.norm>
-0.750656

>  <SCORE.INTRA>
-1.05178

>  <SCORE.INTRA.DIHEDRAL>
-2.08886

>  <SCORE.INTRA.DIHEDRAL.0>
3.67053

>  <SCORE.INTRA.POLAR>
0

>  <SCORE.INTRA.POLAR.0>
0

>  <SCORE.INTRA.REPUL>
0

>  <SCORE.INTRA.REPUL.0>
0

>  <SCORE.INTRA.SOLV>
-0.834006

>  <SCORE.INTRA.SOLV.lig_0>
-32.0553

>  <SCORE.INTRA.VDW>
0.409657

>  <SCORE.INTRA.VDW.0>
-0.571921

>  <SCORE.INTRA.norm>
-0.105178

>  <SCORE.RESTR>
0

>  <SCORE.RESTR.CAVITY>
0

>  <SCORE.RESTR.norm>
0

>  <SCORE.SYSTEM>
0

>  <SCORE.SYSTEM.CONST>
0

>  <SCORE.SYSTEM.DIHEDRAL>
0

>  <SCORE.SYSTEM.SOLV>
0

>  <SCORE.SYSTEM.norm>
0

>  <SCORE.heavy>
10

>  <SCORE.norm>
-0.855834

>  <RMSD>
5.606

$$$$
ligand
 OpenBabel11021811473D
libRbt.so/2013.1/901 2013/11/27
 10  9  0  0  0  0  0  0  0  0999 V2000
   26.3864   14.6243   21.0387 N   0  0  0  0  0  0  0  0  0  0  0  0
   26.8163   15.2468   19.7506 C   0  0  2  0  0  0  0  0  0  0  0  0
   27.3923   14.2127   18.7925 C   0  0  0  0  0  0  0  0  0  0  0  0
   26.7478   13.8011   17.8340 O   0  0  0  0  0  0  0  0  0  0  0  0
   27.8154   16.3801   19.9967 C   0  0  0  0  0  0  0  0  0  0  0  0
   28.9965   15.9765   20.8625 C   0  0  0  0  0  0  0  0  0  0  0  0
   29.9772   17.1276   21.0485 C   0  0  0  0  0  0  0  0  0  0  0  0
   31.1354   16.7083   21.9388 C   0  0  0  0  0  0  0  0  0  0  0  0
   32.1754   17.7877   22.0874 N   0  0  0  0  0  0  0  0  0  0  0  0
   28.5264   13.7704   18.9161 O   0  0  0  0  0  0  0  0  0  0  0  0
  2  1  1  1  0  0  0
  2  3  1  0  0  0  0
  2  5  1  0  0  0  0
  3  4  1  0  0  0  0
  3 10  1  0  0  0  0
  5  6  1  0  0  0  0
  6  7  1  0  0  0  0
  7  8  1  0  0  0  0
  8  9  1  0  0  0  0
M  END
>  <CHROM.1>
103.92980595,52.33937033,178.58106319,178.91672352,176.61233069,28.59979946
15.53523012,20.19831638,2.36609207,-0.14211568,-2.24440203

>  <Name>
ligand

>  <RI>
0

>  <Rbt.Current_Directory>
/home/itssahil/PROJECTS/Mol_Feturizer/New_Systems/rnas/3DIZ

>  <Rbt.Executable>
rbdock ($Id: //depot/dev/client3/rdock/2013.1/src/exe/rbdock.cxx#4 $)

>  <Rbt.Library>
libRbt.so (2013.1, Build901 2013/11/27)

>  <Rbt.Parameter_File>
/export/apps/rDock/src/rDock_2013.1_src/data/scripts/dock_solv.prm

>  <Rbt.Receptor>
prm/pocket_docking_7.prm

>  <SCORE>
-8.99462

>  <SCORE.INTER>
-7.88586

>  <SCORE.INTER.CONST>
1

>  <SCORE.INTER.POLAR>
0

>  <SCORE.INTER.ROT>
5

>  <SCORE.INTER.SOLV>
17.0049

>  <SCORE.INTER.VDW>
-17.8589

>  <SCORE.INTER.norm>
-0.788586

>  <SCORE.INTRA>
-1.10877

>  <SCORE.INTRA.DIHEDRAL>
-1.81722

>  <SCORE.INTRA.DIHEDRAL.0>
3.67053

>  <SCORE.INTRA.POLAR>
0

>  <SCORE.INTRA.POLAR.0>
0

>  <SCORE.INTRA.REPUL>
0

>  <SCORE.INTRA.REPUL.0>
0

>  <SCORE.INTRA.SOLV>
-0.758105

>  <SCORE.INTRA.SOLV.lig_0>
-32.0553

>  <SCORE.INTRA.VDW>
0.178896

>  <SCORE.INTRA.VDW.0>
-0.571921

>  <SCORE.INTRA.norm>
-0.110877

>  <SCORE.RESTR>
0

>  <SCORE.RESTR.CAVITY>
0

>  <SCORE.RESTR.norm>
0

>  <SCORE.SYSTEM>
0

>  <SCORE.SYSTEM.CONST>
0

>  <SCORE.SYSTEM.DIHEDRAL>
0

>  <SCORE.SYSTEM.SOLV>
0

>  <SCORE.SYSTEM.norm>
0

>  <SCORE.heavy>
10

>  <SCORE.norm>
-0.899462

>  <RMSD>
5.610

$$$$
ligand
 OpenBabel11021811473D
libRbt.so/2013.1/901 2013/11/27
 10  9  0  0  0  0  0  0  0  0999 V2000
   27.1062   15.3689   21.0900 N   0  0  0  0  0  0  0  0  0  0  0  0
   27.8448   15.7826   19.8593 C   0  0  2  0  0  0  0  0  0  0  0  0
   27.5271   14.8711   18.6814 C   0  0  0  0  0  0  0  0  0  0  0  0
   26.9405   13.8058   18.8383 O   0  0  0  0  0  0  0  0  0  0  0  0
   29.3526   15.8364   20.1176 C   0  0  0  0  0  0  0  0  0  0  0  0
   29.7640   16.9053   21.1155 C   0  0  0  0  0  0  0  0  0  0  0  0
   31.2724   16.9244   21.3296 C   0  0  0  0  0  0  0  0  0  0  0  0
   31.6710   18.0719   22.2430 C   0  0  0  0  0  0  0  0  0  0  0  0
   33.1643   18.2252   22.3667 N   0  0  0  0  0  0  0  0  0  0  0  0
   27.8131   15.1706   17.5301 O   0  0  0  0  0  0  0  0  0  0  0  0
  2  1  1  1  0  0  0
  2  3  1  0  0  0  0
  2  5  1  0  0  0  0
  3  4  1  0  0  0  0
  3 10  1  0  0  0  0
  5  6  1  0  0  0  0
  6  7  1  0  0  0  0
  7  8  1  0  0  0  0
  8  9  1  0  0  0  0
M  END
>  <CHROM.1>
-12.64390977,-65.36835302,-179.58368674,175.42284370,-173.78196414,29.22762851
16.07080883,20.28374789,2.50230378,-0.44379212,-1.81209513

>  <Name>
ligand

>  <RI>
0

>  <Rbt.Current_Directory>
/home/itssahil/PROJECTS/Mol_Feturizer/New_Systems/rnas/3DIZ

>  <Rbt.Executable>
rbdock ($Id: //depot/dev/client3/rdock/2013.1/src/exe/rbdock.cxx#4 $)

>  <Rbt.Library>
libRbt.so (2013.1, Build901 2013/11/27)

>  <Rbt.Parameter_File>
/export/apps/rDock/src/rDock_2013.1_src/data/scripts/dock_solv.prm

>  <Rbt.Receptor>
prm/pocket_docking_8.prm

>  <SCORE>
-7.60898

>  <SCORE.INTER>
-6.09087

>  <SCORE.INTER.CONST>
1

>  <SCORE.INTER.POLAR>
0

>  <SCORE.INTER.ROT>
5

>  <SCORE.INTER.SOLV>
16.1627

>  <SCORE.INTER.VDW>
-16.3815

>  <SCORE.INTER.norm>
-0.609087

>  <SCORE.INTRA>
-1.51852

>  <SCORE.INTRA.DIHEDRAL>
-1.76852

>  <SCORE.INTRA.DIHEDRAL.0>
3.67053

>  <SCORE.INTRA.POLAR>
0

>  <SCORE.INTRA.POLAR.0>
0

>  <SCORE.INTRA.REPUL>
0

>  <SCORE.INTRA.REPUL.0>
0

>  <SCORE.INTRA.SOLV>
-0.870989

>  <SCORE.INTRA.SOLV.lig_0>
-32.0553

>  <SCORE.INTRA.VDW>
-0.198771

>  <SCORE.INTRA.VDW.0>
-0.571921

>  <SCORE.INTRA.norm>
-0.151852

>  <SCORE.RESTR>
0.000414295

>  <SCORE.RESTR.CAVITY>
0.000414295

>  <SCORE.RESTR.norm>
4.14295e-05

>  <SCORE.SYSTEM>
0

>  <SCORE.SYSTEM.CONST>
0

>  <SCORE.SYSTEM.DIHEDRAL>
0

>  <SCORE.SYSTEM.SOLV>
0

>  <SCORE.SYSTEM.norm>
0

>  <SCORE.heavy>
10

>  <SCORE.norm>
-0.760898

>  <RMSD>
5.638

$$$$
ligand
 OpenBabel11021811473D
libRbt.so/2013.1/901 2013/11/27
 10  9  0  0  0  0  0  0  0  0999 V2000
   26.9614   15.5333   21.0122 N   0  0  0  0  0  0  0  0  0  0  0  0
   27.7759   15.8516   19.8012 C   0  0  2  0  0  0  0  0  0  0  0  0
   27.4784   14.8918   18.6569 C   0  0  0  0  0  0  0  0  0  0  0  0
   27.7861   15.1612   17.5009 O   0  0  0  0  0  0  0  0  0  0  0  0
   29.2702   15.8600   20.1330 C   0  0  0  0  0  0  0  0  0  0  0  0
   29.6856   16.9950   21.0533 C   0  0  0  0  0  0  0  0  0  0  0  0
   31.1858   16.9832   21.3193 C   0  0  0  0  0  0  0  0  0  0  0  0
   31.5837   18.1532   22.2040 C   0  0  0  0  0  0  0  0  0  0  0  0
   33.0567   18.1699   22.5187 N   0  0  0  0  0  0  0  0  0  0  0  0
   26.9501   13.8035   18.8400 O   0  0  0  0  0  0  0  0  0  0  0  0
  2  1  1  1  0  0  0
  2  3  1  0  0  0  0
  2  5  1  0  0  0  0
  3  4  1  0  0  0  0
  3 10  1  0  0  0  0
  5  6  1  0  0  0  0
  6  7  1  0  0  0  0
  7  8  1  0  0  0  0
  8  9  1  0  0  0  0
M  END
>  <CHROM.1>
162.31244655,-67.52823521,-178.31334960,178.13004678,178.86621216,29.15686137
16.11361892,20.27101818,2.46178800,-0.39824918,-1.87580149

>  <Name>
ligand

>  <RI>
0

>  <Rbt.Current_Directory>
/home/itssahil/PROJECTS/Mol_Feturizer/New_Systems/rnas/3DIZ

>  <Rbt.Executable>
rbdock ($Id: //depot/dev/client3/rdock/2013.1/src/exe/rbdock.cxx#4 $)

>  <Rbt.Library>
libRbt.so (2013.1, Build901 2013/11/27)

>  <Rbt.Parameter_File>
/export/apps/rDock/src/rDock_2013.1_src/data/scripts/dock_solv.prm

>  <Rbt.Receptor>
prm/pocket_docking_6.prm

>  <SCORE>
-7.9926

>  <SCORE.INTER>
-6.30702

>  <SCORE.INTER.CONST>
1

>  <SCORE.INTER.POLAR>
0

>  <SCORE.INTER.ROT>
5

>  <SCORE.INTER.SOLV>
16.5667

>  <SCORE.INTER.VDW>
-16.6602

>  <SCORE.INTER.norm>
-0.630702

>  <SCORE.INTRA>
-1.68558

>  <SCORE.INTRA.DIHEDRAL>
-1.95156

>  <SCORE.INTRA.DIHEDRAL.0>
3.67053

>  <SCORE.INTRA.POLAR>
0

>  <SCORE.INTRA.POLAR.0>
0

>  <SCORE.INTRA.REPUL>
0

>  <SCORE.INTRA.REPUL.0>
0

>  <SCORE.INTRA.SOLV>
-0.919963

>  <SCORE.INTRA.SOLV.lig_0>
-32.0553

>  <SCORE.INTRA.VDW>
-0.249825

>  <SCORE.INTRA.VDW.0>
-0.571921

>  <SCORE.INTRA.norm>
-0.168558

>  <SCORE.RESTR>
0

>  <SCORE.RESTR.CAVITY>
0

>  <SCORE.RESTR.norm>
0

>  <SCORE.SYSTEM>
0

>  <SCORE.SYSTEM.CONST>
0

>  <SCORE.SYSTEM.DIHEDRAL>
0

>  <SCORE.SYSTEM.SOLV>
0

>  <SCORE.SYSTEM.norm>
0

>  <SCORE.heavy>
10

>  <SCORE.norm>
-0.79926

>  <RMSD>
5.651

$$$$
ligand
 OpenBabel11021811473D
libRbt.so/2013.1/901 2013/11/27
 10  9  0  0  0  0  0  0  0  0999 V2000
   26.9372   15.3110   20.9927 N   0  0  0  0  0  0  0  0  0  0  0  0
   27.7212   15.7133   19.7865 C   0  0  2  0  0  0  0  0  0  0  0  0
   27.4367   14.7992   18.6021 C   0  0  0  0  0  0  0  0  0  0  0  0
   27.7680   15.1084   17.4627 O   0  0  0  0  0  0  0  0  0  0  0  0
   29.2196   15.7558   20.0965 C   0  0  0  0  0  0  0  0  0  0  0  0
   29.6101   16.8483   21.0770 C   0  0  0  0  0  0  0  0  0  0  0  0
   31.1207   16.9255   21.2609 C   0  0  0  0  0  0  0  0  0  0  0  0
   31.4918   18.0768   22.1812 C   0  0  0  0  0  0  0  0  0  0  0  0
   32.9809   18.2356   22.3428 N   0  0  0  0  0  0  0  0  0  0  0  0
   26.8958   13.7098   18.7350 O   0  0  0  0  0  0  0  0  0  0  0  0
  2  1  1  1  0  0  0
  2  3  1  0  0  0  0
  2  5  1  0  0  0  0
  3  4  1  0  0  0  0
  3 10  1  0  0  0  0
  5  6  1  0  0  0  0
  6  7  1  0  0  0  0
  7  8  1  0  0  0  0
  8  9  1  0  0  0  0
M  END
>  <CHROM.1>
165.44753259,-66.81774319,-175.15147453,176.66286024,-177.27693387,29.10200745
16.02255898,20.22002211,2.47947827,-0.44504840,-1.83891902

>  <Name>
ligand

>  <RI>
0

>  <Rbt.Current_Directory>
/home/itssahil/PROJECTS/Mol_Feturizer/New_Systems/rnas/3DIZ

>  <Rbt.Executable>
rbdock ($Id: //depot/dev/client3/rdock/2013.1/src/exe/rbdock.cxx#4 $)

>  <Rbt.Library>
libRbt.so (2013.1, Build901 2013/11/27)

>  <Rbt.Parameter_File>
/export/apps/rDock/src/rDock_2013.1_src/data/scripts/dock_solv.prm

>  <Rbt.Receptor>
prm/pocket_docking_7.prm

>  <SCORE>
-7.95321

>  <SCORE.INTER>
-6.34715

>  <SCORE.INTER.CONST>
1

>  <SCORE.INTER.POLAR>
0

>  <SCORE.INTER.ROT>
5

>  <SCORE.INTER.SOLV>
16.4737

>  <SCORE.INTER.VDW>
-16.656

>  <SCORE.INTER.norm>
-0.634715

>  <SCORE.INTRA>
-1.60606

>  <SCORE.INTRA.DIHEDRAL>
-1.84502

>  <SCORE.INTRA.DIHEDRAL.0>
3.67053

>  <SCORE.INTRA.POLAR>
0

>  <SCORE.INTRA.POLAR.0>
0

>  <SCORE.INTRA.REPUL>
0

>  <SCORE.INTRA.REPUL.0>
0

>  <SCORE.INTRA.SOLV>
-0.923445

>  <SCORE.INTRA.SOLV.lig_0>
-32.0553

>  <SCORE.INTRA.VDW>
-0.221827

>  <SCORE.INTRA.VDW.0>
-0.571921

>  <SCORE.INTRA.norm>
-0.160606

>  <SCORE.RESTR>
0

>  <SCORE.RESTR.CAVITY>
0

>  <SCORE.RESTR.norm>
0

>  <SCORE.SYSTEM>
0

>  <SCORE.SYSTEM.CONST>
0

>  <SCORE.SYSTEM.DIHEDRAL>
0

>  <SCORE.SYSTEM.SOLV>
0

>  <SCORE.SYSTEM.norm>
0

>  <SCORE.heavy>
10

>  <SCORE.norm>
-0.795321

>  <RMSD>
5.665

$$$$
ligand
 OpenBabel11021811473D
libRbt.so/2013.1/901 2013/11/27
 10  9  0  0  0  0  0  0  0  0999 V2000
   26.9793   15.1718   21.0071 N   0  0  0  0  0  0  0  0  0  0  0  0
   27.7103   15.6577   19.7984 C   0  0  2  0  0  0  0  0  0  0  0  0
   27.4431   14.7732   18.5879 C   0  0  0  0  0  0  0  0  0  0  0  0
   26.9000   13.6798   18.7033 O   0  0  0  0  0  0  0  0  0  0  0  0
   29.2120   15.7676   20.0741 C   0  0  0  0  0  0  0  0  0  0  0  0
   29.5732   16.8613   21.0646 C   0  0  0  0  0  0  0  0  0  0  0  0
   31.0776   16.9397   21.2923 C   0  0  0  0  0  0  0  0  0  0  0  0
   31.4188   18.0765   22.2417 C   0  0  0  0  0  0  0  0  0  0  0  0
   32.8939   18.1687   22.5324 N   0  0  0  0  0  0  0  0  0  0  0  0
   27.7280   15.1221   17.4504 O   0  0  0  0  0  0  0  0  0  0  0  0
  2  1  1  1  0  0  0
  2  3  1  0  0  0  0
  2  5  1  0  0  0  0
  3  4  1  0  0  0  0
  3 10  1  0  0  0  0
  5  6  1  0  0  0  0
  6  7  1  0  0  0  0
  7  8  1  0  0  0  0
  8  9  1  0  0  0  0
M  END
>  <CHROM.1>
-12.53042509,-67.94928874,-179.35946533,177.68322094,178.23448467,29.07709773
15.99678635,20.24083263,2.47977175,-0.48215868,-1.78935530

>  <Name>
ligand

>  <RI>
0

>  <Rbt.Current_Directory>
/home/itssahil/PROJECTS/Mol_Feturizer/New_Systems/rnas/3DIZ

>  <Rbt.Executable>
rbdock ($Id: //depot/dev/client3/rdock/2013.1/src/exe/rbdock.cxx#4 $)

>  <Rbt.Library>
libRbt.so (2013.1, Build901 2013/11/27)

>  <Rbt.Parameter_File>
/export/apps/rDock/src/rDock_2013.1_src/data/scripts/dock_solv.prm

>  <Rbt.Receptor>
prm/pocket_docking_5.prm

>  <SCORE>
-7.84342

>  <SCORE.INTER>
-6.26026

>  <SCORE.INTER.CONST>
1

>  <SCORE.INTER.POLAR>
0

>  <SCORE.INTER.ROT>
5

>  <SCORE.INTER.SOLV>
16.3944

>  <SCORE.INTER.VDW>
-16.5716

>  <SCORE.INTER.norm>
-0.626026

>  <SCORE.INTRA>
-1.58524

>  <SCORE.INTRA.DIHEDRAL>
-1.82769

>  <SCORE.INTRA.DIHEDRAL.0>
3.67053

>  <SCORE.INTRA.POLAR>
0

>  <SCORE.INTRA.POLAR.0>
0

>  <SCORE.INTRA.REPUL>
0

>  <SCORE.INTRA.REPUL.0>
0

>  <SCORE.INTRA.SOLV>
-0.908413

>  <SCORE.INTRA.SOLV.lig_0>
-32.0553

>  <SCORE.INTRA.VDW>
-0.21719

>  <SCORE.INTRA.VDW.0>
-0.571921

>  <SCORE.INTRA.norm>
-0.158524

>  <SCORE.RESTR>
0.00209095

>  <SCORE.RESTR.CAVITY>
0.00209095

>  <SCORE.RESTR.norm>
0.000209095

>  <SCORE.SYSTEM>
0

>  <SCORE.SYSTEM.CONST>
0

>  <SCORE.SYSTEM.DIHEDRAL>
0

>  <SCORE.SYSTEM.SOLV>
0

>  <SCORE.SYSTEM.norm>
0

>  <SCORE.heavy>
10

>  <SCORE.norm>
-0.784342

>  <RMSD>
5.671

$$$$
ligand
 OpenBabel11021811473D
libRbt.so/2013.1/901 2013/11/27
 10  9  0  0  0  0  0  0  0  0999 V2000
   25.5843   26.6218   19.4785 N   0  0  0  0  0  0  0  0  0  0  0  0
   25.5568   25.8173   20.7369 C   0  0  2  0  0  0  0  0  0  0  0  0
   26.5953   26.3059   21.7379 C   0  0  0  0  0  0  0  0  0  0  0  0
   26.3186   26.4569   22.9229 O   0  0  0  0  0  0  0  0  0  0  0  0
   25.7437   24.3276   20.4385 C   0  0  0  0  0  0  0  0  0  0  0  0
   24.5579   23.6920   19.7332 C   0  0  0  0  0  0  0  0  0  0  0  0
   24.8210   22.2294   19.3972 C   0  0  0  0  0  0  0  0  0  0  0  0
   25.6439   22.1100   18.1249 C   0  0  0  0  0  0  0  0  0  0  0  0
   27.0283   22.6850   18.2714 N   0  0  0  0  0  0  0  0  0  0  0  0
   27.7520   26.5398   21.4149 O   0  0  0  0  0  0  0  0  0  0  0  0
  2  1  1  6  0  0  0
  2  3  1  0  0  0  0
  2  5  1  0  0  0  0
  3  4  1  0  0  0  0
  3 10  1  0  0  0  0
  5  6  1  0  0  0  0
  6  7  1  0  0  0  0
  7  8  1  0  0  0  0
  8  9  1  0  0  0  0
M  END
>  <CHROM.1>
134.88647214,-69.79184487,177.15078410,-81.29317026,64.92571951,25.98392858
24.69807829,20.25507944,-1.35408115,-0.36493721,-2.40539417

>  <Name>
ligand

>  <RI>
0

>  <Rbt.Current_Directory>
/home/itssahil/PROJECTS/Mol_Feturizer/New_Systems/rnas/3DIZ

>  <Rbt.Executable>
rbdock ($Id: //depot/dev/client3/rdock/2013.1/src/exe/rbdock.cxx#4 $)

>  <Rbt.Library>
libRbt.so (2013.1, Build901 2013/11/27)

>  <Rbt.Parameter_File>
/export/apps/rDock/src/rDock_2013.1_src/data/scripts/dock_solv.prm

>  <Rbt.Receptor>
prm/blind_docking_80.prm

>  <SCORE>
-3.92432

>  <SCORE.INTER>
-4.69224

>  <SCORE.INTER.CONST>
1

>  <SCORE.INTER.POLAR>
0

>  <SCORE.INTER.ROT>
5

>  <SCORE.INTER.SOLV>
12.0022

>  <SCORE.INTER.VDW>
-14.0622

>  <SCORE.INTER.norm>
-0.469224

>  <SCORE.INTRA>
0.767912

>  <SCORE.INTRA.DIHEDRAL>
0.0215087

>  <SCORE.INTRA.DIHEDRAL.0>
3.67053

>  <SCORE.INTRA.POLAR>
0

>  <SCORE.INTRA.POLAR.0>
0

>  <SCORE.INTRA.REPUL>
0

>  <SCORE.INTRA.REPUL.0>
0

>  <SCORE.INTRA.SOLV>
1.40279

>  <SCORE.INTRA.SOLV.lig_0>
-32.0553

>  <SCORE.INTRA.VDW>
0.0557627

>  <SCORE.INTRA.VDW.0>
-0.571921

>  <SCORE.INTRA.norm>
0.0767912

>  <SCORE.RESTR>
0

>  <SCORE.RESTR.CAVITY>
0

>  <SCORE.RESTR.norm>
0

>  <SCORE.SYSTEM>
0

>  <SCORE.SYSTEM.CONST>
0

>  <SCORE.SYSTEM.DIHEDRAL>
0

>  <SCORE.SYSTEM.SOLV>
0

>  <SCORE.SYSTEM.norm>
0

>  <SCORE.heavy>
10

>  <SCORE.norm>
-0.392432

>  <RMSD>
10.012

$$$$
ligand
 OpenBabel11021811473D
libRbt.so/2013.1/901 2013/11/27
 10  9  0  0  0  0  0  0  0  0999 V2000
   24.5519   22.7575   16.2467 N   0  0  0  0  0  0  0  0  0  0  0  0
   25.2913   23.1970   17.4680 C   0  0  2  0  0  0  0  0  0  0  0  0
   26.5810   22.4094   17.6567 C   0  0  0  0  0  0  0  0  0  0  0  0
   27.6782   22.9328   17.4965 O   0  0  0  0  0  0  0  0  0  0  0  0
   24.4035   23.0977   18.7110 C   0  0  0  0  0  0  0  0  0  0  0  0
   25.0369   23.6806   19.9627 C   0  0  0  0  0  0  0  0  0  0  0  0
   25.2562   25.1829   19.8349 C   0  0  0  0  0  0  0  0  0  0  0  0
   25.9532   25.7311   21.0693 C   0  0  0  0  0  0  0  0  0  0  0  0
   26.2362   27.2072   20.9702 N   0  0  0  0  0  0  0  0  0  0  0  0
   26.5831   21.2359   18.0030 O   0  0  0  0  0  0  0  0  0  0  0  0
  2  1  1  6  0  0  0
  2  3  1  0  0  0  0
  2  5  1  0  0  0  0
  3  4  1  0  0  0  0
  3 10  1  0  0  0  0
  5  6  1  0  0  0  0
  6  7  1  0  0  0  0
  7  8  1  0  0  0  0
  8  9  1  0  0  0  0
M  END
>  <CHROM.1>
109.88030988,-173.26118868,64.66112419,-177.16811706,177.99149333,25.78721521
23.71942998,18.73879536,1.53445724,0.11094117,-2.40979747

>  <Name>
ligand

>  <RI>
0

>  <Rbt.Current_Directory>
/home/itssahil/PROJECTS/Mol_Feturizer/New_Systems/rnas/3DIZ

>  <Rbt.Executable>
rbdock ($Id: //depot/dev/client3/rdock/2013.1/src/exe/rbdock.cxx#4 $)

>  <Rbt.Library>
libRbt.so (2013.1, Build901 2013/11/27)

>  <Rbt.Parameter_File>
/export/apps/rDock/src/rDock_2013.1_src/data/scripts/dock_solv.prm

>  <Rbt.Receptor>
prm/blind_docking_80.prm

>  <SCORE>
-4.17185

>  <SCORE.INTER>
-2.55294

>  <SCORE.INTER.CONST>
1

>  <SCORE.INTER.POLAR>
0

>  <SCORE.INTER.ROT>
5

>  <SCORE.INTER.SOLV>
11.8924

>  <SCORE.INTER.VDW>
-12.5994

>  <SCORE.INTER.norm>
-0.255294

>  <SCORE.INTRA>
-1.61891

>  <SCORE.INTRA.DIHEDRAL>
-1.83126

>  <SCORE.INTRA.DIHEDRAL.0>
3.67053

>  <SCORE.INTRA.POLAR>
0

>  <SCORE.INTRA.POLAR.0>
0

>  <SCORE.INTRA.REPUL>
0

>  <SCORE.INTRA.REPUL.0>
0

>  <SCORE.INTRA.SOLV>
-1.46902

>  <SCORE.INTRA.SOLV.lig_0>
-32.0553

>  <SCORE.INTRA.VDW>
0.0312296

>  <SCORE.INTRA.VDW.0>
-0.571921

>  <SCORE.INTRA.norm>
-0.161891

>  <SCORE.RESTR>
0

>  <SCORE.RESTR.CAVITY>
0

>  <SCORE.RESTR.norm>
0

>  <SCORE.SYSTEM>
0

>  <SCORE.SYSTEM.CONST>
0

>  <SCORE.SYSTEM.DIHEDRAL>
0

>  <SCORE.SYSTEM.SOLV>
0

>  <SCORE.SYSTEM.norm>
0

>  <SCORE.heavy>
10

>  <SCORE.norm>
-0.417185

>  <RMSD>
10.108

$$$$
ligand
 OpenBabel11021811473D
libRbt.so/2013.1/901 2013/11/27
 10  9  0  0  0  0  0  0  0  0999 V2000
   25.4146   27.1886   21.2677 N   0  0  0  0  0  0  0  0  0  0  0  0
   26.1635   26.0075   20.7428 C   0  0  2  0  0  0  0  0  0  0  0  0
   27.0397   26.3816   19.5547 C   0  0  0  0  0  0  0  0  0  0  0  0
   28.2450   26.5669   19.6833 O   0  0  0  0  0  0  0  0  0  0  0  0
   25.2063   24.8696   20.3792 C   0  0  0  0  0  0  0  0  0  0  0  0
   25.9047   23.5514   20.0927 C   0  0  0  0  0  0  0  0  0  0  0  0
   24.9209   22.4811   19.6363 C   0  0  0  0  0  0  0  0  0  0  0  0
   24.4301   22.7684   18.2269 C   0  0  0  0  0  0  0  0  0  0  0  0
   25.5432   22.7690   17.2121 N   0  0  0  0  0  0  0  0  0  0  0  0
   26.5910   26.4844   18.4211 O   0  0  0  0  0  0  0  0  0  0  0  0
  2  1  1  6  0  0  0
  2  3  1  0  0  0  0
  2  5  1  0  0  0  0
  3  4  1  0  0  0  0
  3 10  1  0  0  0  0
  5  6  1  0  0  0  0
  6  7  1  0  0  0  0
  7  8  1  0  0  0  0
  8  9  1  0  0  0  0
M  END
>  <CHROM.1>
100.50006618,-168.92420983,-175.76845651,72.03427726,61.47117293,25.97001244
24.92316493,19.49944853,0.95853775,0.83383548,0.85885161

>  <Name>
ligand

>  <RI>
0

>  <Rbt.Current_Directory>
/home/itssahil/PROJECTS/Mol_Feturizer/New_Systems/rnas/3DIZ

>  <Rbt.Executable>
rbdock ($Id: //depot/dev/client3/rdock/2013.1/src/exe/rbdock.cxx#4 $)

>  <Rbt.Library>
libRbt.so (2013.1, Build901 2013/11/27)

>  <Rbt.Parameter_File>
/export/apps/rDock/src/rDock_2013.1_src/data/scripts/dock_solv.prm

>  <Rbt.Receptor>
prm/blind_docking_100.prm

>  <SCORE>
-1.79999

>  <SCORE.INTER>
-1.5279

>  <SCORE.INTER.CONST>
1

>  <SCORE.INTER.POLAR>
0

>  <SCORE.INTER.ROT>
5

>  <SCORE.INTER.SOLV>
10.4901

>  <SCORE.INTER.VDW>
-11.4486

>  <SCORE.INTER.norm>
-0.15279

>  <SCORE.INTRA>
-0.272095

>  <SCORE.INTRA.DIHEDRAL>
-0.996113

>  <SCORE.INTRA.DIHEDRAL.0>
3.67053

>  <SCORE.INTRA.POLAR>
0

>  <SCORE.INTRA.POLAR.0>
0

>  <SCORE.INTRA.REPUL>
0

>  <SCORE.INTRA.REPUL.0>
0

>  <SCORE.INTRA.SOLV>
-0.300364

>  <SCORE.INTRA.SOLV.lig_0>
-32.0553

>  <SCORE.INTRA.VDW>
0.376143

>  <SCORE.INTRA.VDW.0>
-0.571921

>  <SCORE.INTRA.norm>
-0.0272095

>  <SCORE.RESTR>
0

>  <SCORE.RESTR.CAVITY>
0

>  <SCORE.RESTR.norm>
0

>  <SCORE.SYSTEM>
0

>  <SCORE.SYSTEM.CONST>
0

>  <SCORE.SYSTEM.DIHEDRAL>
0

>  <SCORE.SYSTEM.SOLV>
0

>  <SCORE.SYSTEM.norm>
0

>  <SCORE.heavy>
10

>  <SCORE.norm>
-0.179999

>  <RMSD>
10.281

$$$$
ligand
 OpenBabel11021811473D
libRbt.so/2013.1/901 2013/11/27
 10  9  0  0  0  0  0  0  0  0999 V2000
   25.4737   24.7662   18.6307 N   0  0  0  0  0  0  0  0  0  0  0  0
   24.8739   23.4305   18.3345 C   0  0  2  0  0  0  0  0  0  0  0  0
   25.1525   22.4309   19.4490 C   0  0  0  0  0  0  0  0  0  0  0  0
   24.5659   21.3555   19.5038 O   0  0  0  0  0  0  0  0  0  0  0  0
   25.3645   22.8968   16.9863 C   0  0  0  0  0  0  0  0  0  0  0  0
   25.0465   23.8102   15.8149 C   0  0  0  0  0  0  0  0  0  0  0  0
   25.6460   23.2879   14.5152 C   0  0  0  0  0  0  0  0  0  0  0  0
   25.4077   24.2706   13.3805 C   0  0  0  0  0  0  0  0  0  0  0  0
   26.0193   23.8177   12.0807 N   0  0  0  0  0  0  0  0  0  0  0  0
   25.9890   22.6395   20.3172 O   0  0  0  0  0  0  0  0  0  0  0  0
  2  1  1  1  0  0  0
  2  3  1  0  0  0  0
  2  5  1  0  0  0  0
  3  4  1  0  0  0  0
  3 10  1  0  0  0  0
  5  6  1  0  0  0  0
  6  7  1  0  0  0  0
  7  8  1  0  0  0  0
  8  9  1  0  0  0  0
M  END
>  <CHROM.1>
167.74289742,-58.66344219,175.67730013,-175.59995418,178.26211726,25.35795591
23.24554565,16.93920986,-1.92451012,-1.38722300,-1.71436649

>  <Name>
ligand

>  <RI>
0

>  <Rbt.Current_Directory>
/home/itssahil/PROJECTS/Mol_Feturizer/New_Systems/rnas/3DIZ

>  <Rbt.Executable>
rbdock ($Id: //depot/dev/client3/rdock/2013.1/src/exe/rbdock.cxx#4 $)

>  <Rbt.Library>
libRbt.so (2013.1, Build901 2013/11/27)

>  <Rbt.Parameter_File>
/export/apps/rDock/src/rDock_2013.1_src/data/scripts/dock_solv.prm

>  <Rbt.Receptor>
prm/blind_docking_60.prm

>  <SCORE>
-4.76915

>  <SCORE.INTER>
-3.23523

>  <SCORE.INTER.CONST>
1

>  <SCORE.INTER.POLAR>
0

>  <SCORE.INTER.ROT>
5

>  <SCORE.INTER.SOLV>
7.78077

>  <SCORE.INTER.VDW>
-11.6837

>  <SCORE.INTER.norm>
-0.323523

>  <SCORE.INTRA>
-1.53391

>  <SCORE.INTRA.DIHEDRAL>
-2.03476

>  <SCORE.INTRA.DIHEDRAL.0>
3.67053

>  <SCORE.INTRA.POLAR>
0

>  <SCORE.INTRA.POLAR.0>
0

>  <SCORE.INTRA.REPUL>
0

>  <SCORE.INTRA.REPUL.0>
0

>  <SCORE.INTRA.SOLV>
-0.772998

>  <SCORE.INTRA.SOLV.lig_0>
-32.0553

>  <SCORE.INTRA.VDW>
-0.130033

>  <SCORE.INTRA.VDW.0>
-0.571921

>  <SCORE.INTRA.norm>
-0.153391

>  <SCORE.RESTR>
0

>  <SCORE.RESTR.CAVITY>
0

>  <SCORE.RESTR.norm>
0

>  <SCORE.SYSTEM>
0

>  <SCORE.SYSTEM.CONST>
0

>  <SCORE.SYSTEM.DIHEDRAL>
0

>  <SCORE.SYSTEM.SOLV>
0

>  <SCORE.SYSTEM.norm>
0

>  <SCORE.heavy>
10

>  <SCORE.norm>
-0.476915

>  <RMSD>
10.332

$$$$
ligand
 OpenBabel11021811473D
libRbt.so/2013.1/901 2013/11/27
 10  9  0  0  0  0  0  0  0  0999 V2000
   26.9863   27.2684   19.7143 N   0  0  0  0  0  0  0  0  0  0  0  0
   26.2888   26.9169   20.9877 C   0  0  2  0  0  0  0  0  0  0  0  0
   27.0465   27.4337   22.2034 C   0  0  0  0  0  0  0  0  0  0  0  0
   26.4846   27.6092   23.2790 O   0  0  0  0  0  0  0  0  0  0  0  0
   26.0599   25.4067   21.0877 C   0  0  0  0  0  0  0  0  0  0  0  0
   25.2207   24.8394   19.9556 C   0  0  0  0  0  0  0  0  0  0  0  0
   25.0510   23.3306   20.0826 C   0  0  0  0  0  0  0  0  0  0  0  0
   24.2765   22.7755   18.8985 C   0  0  0  0  0  0  0  0  0  0  0  0
   25.0133   22.9360   17.5946 N   0  0  0  0  0  0  0  0  0  0  0  0
   28.2471   27.6672   22.1720 O   0  0  0  0  0  0  0  0  0  0  0  0
  2  1  1  6  0  0  0
  2  3  1  0  0  0  0
  2  5  1  0  0  0  0
  3  4  1  0  0  0  0
  3 10  1  0  0  0  0
  5  6  1  0  0  0  0
  6  7  1  0  0  0  0
  7  8  1  0  0  0  0
  8  9  1  0  0  0  0
M  END
>  <CHROM.1>
158.06471929,-59.53838716,178.60309871,-176.77169786,64.70194886,26.08823506
25.63976389,20.63186955,-0.84412967,-0.93062331,-1.85679518

>  <Name>
ligand

>  <RI>
0

>  <Rbt.Current_Directory>
/home/itssahil/PROJECTS/Mol_Feturizer/New_Systems/rnas/3DIZ

>  <Rbt.Executable>
rbdock ($Id: //depot/dev/client3/rdock/2013.1/src/exe/rbdock.cxx#4 $)

>  <Rbt.Library>
libRbt.so (2013.1, Build901 2013/11/27)

>  <Rbt.Parameter_File>
/export/apps/rDock/src/rDock_2013.1_src/data/scripts/dock_solv.prm

>  <Rbt.Receptor>
prm/blind_docking_80.prm

>  <SCORE>
-4.30907

>  <SCORE.INTER>
-3.20732

>  <SCORE.INTER.CONST>
1

>  <SCORE.INTER.POLAR>
0

>  <SCORE.INTER.ROT>
5

>  <SCORE.INTER.SOLV>
7.6863

>  <SCORE.INTER.VDW>
-11.6336

>  <SCORE.INTER.norm>
-0.320732

>  <SCORE.INTRA>
-1.10175

>  <SCORE.INTRA.DIHEDRAL>
-2.09155

>  <SCORE.INTRA.DIHEDRAL.0>
3.67053

>  <SCORE.INTRA.POLAR>
0

>  <SCORE.INTRA.POLAR.0>
0

>  <SCORE.INTRA.REPUL>
0

>  <SCORE.INTRA.REPUL.0>
0

>  <SCORE.INTRA.SOLV>
0.128712

>  <SCORE.INTRA.SOLV.lig_0>
-32.0553

>  <SCORE.INTRA.VDW>
-0.120327

>  <SCORE.INTRA.VDW.0>
-0.571921

>  <SCORE.INTRA.norm>
-0.110175

>  <SCORE.RESTR>
0

>  <SCORE.RESTR.CAVITY>
0

>  <SCORE.RESTR.norm>
0

>  <SCORE.SYSTEM>
0

>  <SCORE.SYSTEM.CONST>
0

>  <SCORE.SYSTEM.DIHEDRAL>
0

>  <SCORE.SYSTEM.SOLV>
0

>  <SCORE.SYSTEM.norm>
0

>  <SCORE.heavy>
10

>  <SCORE.norm>
-0.430907

>  <RMSD>
10.645

$$$$
ligand
 OpenBabel11021811473D
libRbt.so/2013.1/901 2013/11/27
 10  9  0  0  0  0  0  0  0  0999 V2000
   26.4187   22.9274   17.4109 N   0  0  0  0  0  0  0  0  0  0  0  0
   26.1313   23.1185   18.8643 C   0  0  2  0  0  0  0  0  0  0  0  0
   24.8776   22.3670   19.2917 C   0  0  0  0  0  0  0  0  0  0  0  0
   24.8723   21.6456   20.2833 O   0  0  0  0  0  0  0  0  0  0  0  0
   26.0216   24.6057   19.2098 C   0  0  0  0  0  0  0  0  0  0  0  0
   25.7409   24.8729   20.6786 C   0  0  0  0  0  0  0  0  0  0  0  0
   25.7373   26.3647   20.9884 C   0  0  0  0  0  0  0  0  0  0  0  0
   27.1451   26.9325   20.9130 C   0  0  0  0  0  0  0  0  0  0  0  0
   27.1908   28.4127   21.1878 N   0  0  0  0  0  0  0  0  0  0  0  0
   23.8183   22.4707   18.6883 O   0  0  0  0  0  0  0  0  0  0  0  0
  2  1  1  6  0  0  0
  2  3  1  0  0  0  0
  2  5  1  0  0  0  0
  3  4  1  0  0  0  0
  3 10  1  0  0  0  0
  5  6  1  0  0  0  0
  6  7  1  0  0  0  0
  7  8  1  0  0  0  0
  8  9  1  0  0  0  0
M  END
>  <CHROM.1>
130.98151846,-179.52079211,176.03714794,-70.93741103,178.96642034,25.76527672
24.34430163,19.75721544,-2.08282745,0.86115840,0.79282708

>  <Name>
ligand

>  <RI>
0

>  <Rbt.Current_Directory>
/home/itssahil/PROJECTS/Mol_Feturizer/New_Systems/rnas/3DIZ

>  <Rbt.Executable>
rbdock ($Id: //depot/dev/client3/rdock/2013.1/src/exe/rbdock.cxx#4 $)

>  <Rbt.Library>
libRbt.so (2013.1, Build901 2013/11/27)

>  <Rbt.Parameter_File>
/export/apps/rDock/src/rDock_2013.1_src/data/scripts/dock_solv.prm

>  <Rbt.Receptor>
prm/blind_docking_80.prm

>  <SCORE>
-5.15769

>  <SCORE.INTER>
-3.98988

>  <SCORE.INTER.CONST>
1

>  <SCORE.INTER.POLAR>
0

>  <SCORE.INTER.ROT>
5

>  <SCORE.INTER.SOLV>
6.77691

>  <SCORE.INTER.VDW>
-11.8522

>  <SCORE.INTER.norm>
-0.398988

>  <SCORE.INTRA>
-1.16781

>  <SCORE.INTRA.DIHEDRAL>
-1.63981

>  <SCORE.INTRA.DIHEDRAL.0>
3.67053

>  <SCORE.INTRA.POLAR>
0

>  <SCORE.INTRA.POLAR.0>
0

>  <SCORE.INTRA.REPUL>
0

>  <SCORE.INTRA.REPUL.0>
0

>  <SCORE.INTRA.SOLV>
-1.51049

>  <SCORE.INTRA.SOLV.lig_0>
-32.0553

>  <SCORE.INTRA.VDW>
0.407339

>  <SCORE.INTRA.VDW.0>
-0.571921

>  <SCORE.INTRA.norm>
-0.116781

>  <SCORE.RESTR>
0

>  <SCORE.RESTR.CAVITY>
0

>  <SCORE.RESTR.norm>
0

>  <SCORE.SYSTEM>
0

>  <SCORE.SYSTEM.CONST>
0

>  <SCORE.SYSTEM.DIHEDRAL>
0

>  <SCORE.SYSTEM.SOLV>
0

>  <SCORE.SYSTEM.norm>
0

>  <SCORE.heavy>
10

>  <SCORE.norm>
-0.515769

>  <RMSD>
10.697

$$$$
ligand
 OpenBabel11021811473D
libRbt.so/2013.1/901 2013/11/27
 10  9  0  0  0  0  0  0  0  0999 V2000
   26.5706   28.4794   21.8071 N   0  0  0  0  0  0  0  0  0  0  0  0
   26.8914   27.0933   21.3518 C   0  0  2  0  0  0  0  0  0  0  0  0
   27.9602   27.0925   20.2670 C   0  0  0  0  0  0  0  0  0  0  0  0
   27.6944   27.3929   19.1083 O   0  0  0  0  0  0  0  0  0  0  0  0
   25.6302   26.3673   20.8771 C   0  0  0  0  0  0  0  0  0  0  0  0
   25.8564   24.9021   20.5462 C   0  0  0  0  0  0  0  0  0  0  0  0
   24.5622   24.2125   20.1328 C   0  0  0  0  0  0  0  0  0  0  0  0
   24.8235   22.7653   19.7488 C   0  0  0  0  0  0  0  0  0  0  0  0
   25.6632   22.6359   18.5050 N   0  0  0  0  0  0  0  0  0  0  0  0
   29.1298   26.8234   20.5049 O   0  0  0  0  0  0  0  0  0  0  0  0
  2  1  1  6  0  0  0
  2  3  1  0  0  0  0
  2  5  1  0  0  0  0
  3  4  1  0  0  0  0
  3 10  1  0  0  0  0
  5  6  1  0  0  0  0
  6  7  1  0  0  0  0
  7  8  1  0  0  0  0
  8  9  1  0  0  0  0
M  END
>  <CHROM.1>
-77.05678128,-173.52469599,177.73391908,177.53259558,-66.27795272,26.50823867
25.78555561,20.26422306,0.97588640,0.46604047,0.57028613

>  <Name>
ligand

>  <RI>
0

>  <Rbt.Current_Directory>
/home/itssahil/PROJECTS/Mol_Feturizer/New_Systems/rnas/3DIZ

>  <Rbt.Executable>
rbdock ($Id: //depot/dev/client3/rdock/2013.1/src/exe/rbdock.cxx#4 $)

>  <Rbt.Library>
libRbt.so (2013.1, Build901 2013/11/27)

>  <Rbt.Parameter_File>
/export/apps/rDock/src/rDock_2013.1_src/data/scripts/dock_solv.prm

>  <Rbt.Receptor>
prm/blind_docking_100.prm

>  <SCORE>
-4.91436

>  <SCORE.INTER>
-3.57547

>  <SCORE.INTER.CONST>
1

>  <SCORE.INTER.POLAR>
0

>  <SCORE.INTER.ROT>
5

>  <SCORE.INTER.SOLV>
7.35971

>  <SCORE.INTER.VDW>
-11.7702

>  <SCORE.INTER.norm>
-0.357547

>  <SCORE.INTRA>
-1.33889

>  <SCORE.INTRA.DIHEDRAL>
-1.87512

>  <SCORE.INTRA.DIHEDRAL.0>
3.67053

>  <SCORE.INTRA.POLAR>
0

>  <SCORE.INTRA.POLAR.0>
0

>  <SCORE.INTRA.REPUL>
0

>  <SCORE.INTRA.REPUL.0>
0

>  <SCORE.INTRA.SOLV>
-0.817657

>  <SCORE.INTRA.SOLV.lig_0>
-32.0553

>  <SCORE.INTRA.VDW>
0.00749566

>  <SCORE.INTRA.VDW.0>
-0.571921

>  <SCORE.INTRA.norm>
-0.133889

>  <SCORE.RESTR>
0

>  <SCORE.RESTR.CAVITY>
0

>  <SCORE.RESTR.norm>
0

>  <SCORE.SYSTEM>
0

>  <SCORE.SYSTEM.CONST>
0

>  <SCORE.SYSTEM.DIHEDRAL>
0

>  <SCORE.SYSTEM.SOLV>
0

>  <SCORE.SYSTEM.norm>
0

>  <SCORE.heavy>
10

>  <SCORE.norm>
-0.491436

>  <RMSD>
10.727

$$$$
ligand
 OpenBabel11021811473D
libRbt.so/2013.1/901 2013/11/27
 10  9  0  0  0  0  0  0  0  0999 V2000
   26.8674   27.3174   19.8167 N   0  0  0  0  0  0  0  0  0  0  0  0
   25.7846   26.9121   20.7626 C   0  0  2  0  0  0  0  0  0  0  0  0
   25.8829   27.6640   22.0833 C   0  0  0  0  0  0  0  0  0  0  0  0
   26.7791   27.4293   22.8866 O   0  0  0  0  0  0  0  0  0  0  0  0
   25.7969   25.3988   20.9930 C   0  0  0  0  0  0  0  0  0  0  0  0
   25.3706   24.5922   19.7784 C   0  0  0  0  0  0  0  0  0  0  0  0
   25.2993   23.1023   20.0893 C   0  0  0  0  0  0  0  0  0  0  0  0
   24.8418   22.3201   18.8691 C   0  0  0  0  0  0  0  0  0  0  0  0
   25.8307   22.3809   17.7347 N   0  0  0  0  0  0  0  0  0  0  0  0
   25.0967   28.5504   22.3884 O   0  0  0  0  0  0  0  0  0  0  0  0
  2  1  1  6  0  0  0
  2  3  1  0  0  0  0
  2  5  1  0  0  0  0
  3  4  1  0  0  0  0
  3 10  1  0  0  0  0
  5  6  1  0  0  0  0
  6  7  1  0  0  0  0
  7  8  1  0  0  0  0
  8  9  1  0  0  0  0
M  END
>  <CHROM.1>
-71.26727332,-69.26614778,-175.74387485,178.75439107,65.31415313,25.75791123
25.59511363,20.57570810,-1.34503956,-1.09946373,-2.36548427

>  <Name>
ligand

>  <RI>
0

>  <Rbt.Current_Directory>
/home/itssahil/PROJECTS/Mol_Feturizer/New_Systems/rnas/3DIZ

>  <Rbt.Executable>
rbdock ($Id: //depot/dev/client3/rdock/2013.1/src/exe/rbdock.cxx#4 $)

>  <Rbt.Library>
libRbt.so (2013.1, Build901 2013/11/27)

>  <Rbt.Parameter_File>
/export/apps/rDock/src/rDock_2013.1_src/data/scripts/dock_solv.prm

>  <Rbt.Receptor>
prm/blind_docking_60.prm

>  <SCORE>
-3.89933

>  <SCORE.INTER>
-2.92393

>  <SCORE.INTER.CONST>
1

>  <SCORE.INTER.POLAR>
0

>  <SCORE.INTER.ROT>
5

>  <SCORE.INTER.SOLV>
8.26578

>  <SCORE.INTER.VDW>
-11.6379

>  <SCORE.INTER.norm>
-0.292393

>  <SCORE.INTRA>
-0.975405

>  <SCORE.INTRA.DIHEDRAL>
-1.66591

>  <SCORE.INTRA.DIHEDRAL.0>
3.67053

>  <SCORE.INTRA.POLAR>
0

>  <SCORE.INTRA.POLAR.0>
0

>  <SCORE.INTRA.REPUL>
0

>  <SCORE.INTRA.REPUL.0>
0

>  <SCORE.INTRA.SOLV>
-0.0651329

>  <SCORE.INTRA.SOLV.lig_0>
-32.0553

>  <SCORE.INTRA.VDW>
-0.109885

>  <SCORE.INTRA.VDW.0>
-0.571921

>  <SCORE.INTRA.norm>
-0.0975405

>  <SCORE.RESTR>
0

>  <SCORE.RESTR.CAVITY>
0

>  <SCORE.RESTR.norm>
0

>  <SCORE.SYSTEM>
0

>  <SCORE.SYSTEM.CONST>
0

>  <SCORE.SYSTEM.DIHEDRAL>
0

>  <SCORE.SYSTEM.SOLV>
0

>  <SCORE.SYSTEM.norm>
0

>  <SCORE.heavy>
10

>  <SCORE.norm>
-0.389933

>  <RMSD>
10.871

$$$$
ligand
 OpenBabel11021811473D
libRbt.so/2013.1/901 2013/11/27
 10  9  0  0  0  0  0  0  0  0999 V2000
   26.6400   24.1975   18.1478 N   0  0  0  0  0  0  0  0  0  0  0  0
   25.1793   24.2433   17.8384 C   0  0  2  0  0  0  0  0  0  0  0  0
   24.3491   24.5037   19.0883 C   0  0  0  0  0  0  0  0  0  0  0  0
   24.0612   23.5985   19.8638 O   0  0  0  0  0  0  0  0  0  0  0  0
   24.7270   22.9587   17.1397 C   0  0  0  0  0  0  0  0  0  0  0  0
   25.4736   22.6698   15.8486 C   0  0  0  0  0  0  0  0  0  0  0  0
   25.2961   23.7916   14.8330 C   0  0  0  0  0  0  0  0  0  0  0  0
   26.1175   23.5200   13.5834 C   0  0  0  0  0  0  0  0  0  0  0  0
   26.0189   24.6299   12.5699 N   0  0  0  0  0  0  0  0  0  0  0  0
   23.9594   25.6235   19.3901 O   0  0  0  0  0  0  0  0  0  0  0  0
  2  1  1  1  0  0  0
  2  3  1  0  0  0  0
  2  5  1  0  0  0  0
  3  4  1  0  0  0  0
  3 10  1  0  0  0  0
  5  6  1  0  0  0  0
  6  7  1  0  0  0  0
  7  8  1  0  0  0  0
  8  9  1  0  0  0  0
M  END
>  <CHROM.1>
-81.60367015,-57.89820282,-59.81325718,176.62474091,-177.68603686,25.16105524
23.98185522,16.86946033,-2.76760414,1.29503707,-0.48594977

>  <Name>
ligand

>  <RI>
0

>  <Rbt.Current_Directory>
/home/itssahil/PROJECTS/Mol_Feturizer/New_Systems/rnas/3DIZ

>  <Rbt.Executable>
rbdock ($Id: //depot/dev/client3/rdock/2013.1/src/exe/rbdock.cxx#4 $)

>  <Rbt.Library>
libRbt.so (2013.1, Build901 2013/11/27)

>  <Rbt.Parameter_File>
/export/apps/rDock/src/rDock_2013.1_src/data/scripts/dock_solv.prm

>  <Rbt.Receptor>
prm/blind_docking_60.prm

>  <SCORE>
-2.23816

>  <SCORE.INTER>
-1.50808

>  <SCORE.INTER.CONST>
1

>  <SCORE.INTER.POLAR>
0

>  <SCORE.INTER.ROT>
5

>  <SCORE.INTER.SOLV>
7.54763

>  <SCORE.INTER.VDW>
-10.4546

>  <SCORE.INTER.norm>
-0.150808

>  <SCORE.INTRA>
-0.730088

>  <SCORE.INTRA.DIHEDRAL>
-2.14532

>  <SCORE.INTRA.DIHEDRAL.0>
3.67053

>  <SCORE.INTRA.POLAR>
0

>  <SCORE.INTRA.POLAR.0>
0

>  <SCORE.INTRA.REPUL>
0

>  <SCORE.INTRA.REPUL.0>
0

>  <SCORE.INTRA.SOLV>
-0.134864

>  <SCORE.INTRA.SOLV.lig_0>
-32.0553

>  <SCORE.INTRA.VDW>
0.410004

>  <SCORE.INTRA.VDW.0>
-0.571921

>  <SCORE.INTRA.norm>
-0.0730088

>  <SCORE.RESTR>
0

>  <SCORE.RESTR.CAVITY>
0

>  <SCORE.RESTR.norm>
0

>  <SCORE.SYSTEM>
0

>  <SCORE.SYSTEM.CONST>
0

>  <SCORE.SYSTEM.DIHEDRAL>
0

>  <SCORE.SYSTEM.SOLV>
0

>  <SCORE.SYSTEM.norm>
0

>  <SCORE.heavy>
10

>  <SCORE.norm>
-0.223816

>  <RMSD>
10.891

$$$$
ligand
 OpenBabel11021811473D
libRbt.so/2013.1/901 2013/11/27
 10  9  0  0  0  0  0  0  0  0999 V2000
   26.5567   27.8147   19.1559 N   0  0  0  0  0  0  0  0  0  0  0  0
   27.0389   27.8018   20.5697 C   0  0  2  0  0  0  0  0  0  0  0  0
   28.4640   27.2746   20.6715 C   0  0  0  0  0  0  0  0  0  0  0  0
   29.0490   26.8222   19.6934 O   0  0  0  0  0  0  0  0  0  0  0  0
   26.0929   26.9961   21.4635 C   0  0  0  0  0  0  0  0  0  0  0  0
   25.8542   25.5766   20.9782 C   0  0  0  0  0  0  0  0  0  0  0  0
   24.8082   25.5288   19.8714 C   0  0  0  0  0  0  0  0  0  0  0  0
   24.4875   24.0912   19.4969 C   0  0  0  0  0  0  0  0  0  0  0  0
   25.6464   23.3889   18.8392 N   0  0  0  0  0  0  0  0  0  0  0  0
   29.0968   27.3052   21.7182 O   0  0  0  0  0  0  0  0  0  0  0  0
  2  1  1  6  0  0  0
  2  3  1  0  0  0  0
  2  5  1  0  0  0  0
  3  4  1  0  0  0  0
  3 10  1  0  0  0  0
  5  6  1  0  0  0  0
  6  7  1  0  0  0  0
  7  8  1  0  0  0  0
  8  9  1  0  0  0  0
M  END
>  <CHROM.1>
-5.78801736,55.11194313,-81.07572545,-174.46595726,-67.30300081,26.74827726
26.25716436,20.25059624,0.75021345,0.13526615,0.53411718

>  <Name>
ligand

>  <RI>
0

>  <Rbt.Current_Directory>
/home/itssahil/PROJECTS/Mol_Feturizer/New_Systems/rnas/3DIZ

>  <Rbt.Executable>
rbdock ($Id: //depot/dev/client3/rdock/2013.1/src/exe/rbdock.cxx#4 $)

>  <Rbt.Library>
libRbt.so (2013.1, Build901 2013/11/27)

>  <Rbt.Parameter_File>
/export/apps/rDock/src/rDock_2013.1_src/data/scripts/dock_solv.prm

>  <Rbt.Receptor>
prm/blind_docking_100.prm

>  <SCORE>
-2.48017

>  <SCORE.INTER>
-3.33032

>  <SCORE.INTER.CONST>
1

>  <SCORE.INTER.POLAR>
0

>  <SCORE.INTER.ROT>
5

>  <SCORE.INTER.SOLV>
7.25963

>  <SCORE.INTER.VDW>
-11.5734

>  <SCORE.INTER.norm>
-0.333032

>  <SCORE.INTRA>
0.850147

>  <SCORE.INTRA.DIHEDRAL>
-0.0320138

>  <SCORE.INTRA.DIHEDRAL.0>
3.67053

>  <SCORE.INTRA.POLAR>
0

>  <SCORE.INTRA.POLAR.0>
0

>  <SCORE.INTRA.REPUL>
0

>  <SCORE.INTRA.REPUL.0>
0

>  <SCORE.INTRA.SOLV>
1.46013

>  <SCORE.INTRA.SOLV.lig_0>
-32.0553

>  <SCORE.INTRA.VDW>
0.136086

>  <SCORE.INTRA.VDW.0>
-0.571921

>  <SCORE.INTRA.norm>
0.0850147

>  <SCORE.RESTR>
0

>  <SCORE.RESTR.CAVITY>
0

>  <SCORE.RESTR.norm>
0

>  <SCORE.SYSTEM>
0

>  <SCORE.SYSTEM.CONST>
0

>  <SCORE.SYSTEM.DIHEDRAL>
0

>  <SCORE.SYSTEM.SOLV>
0

>  <SCORE.SYSTEM.norm>
0

>  <SCORE.heavy>
10

>  <SCORE.norm>
-0.248017

>  <RMSD>
10.970

$$$$
ligand
 OpenBabel11021811473D
libRbt.so/2013.1/901 2013/11/27
 10  9  0  0  0  0  0  0  0  0999 V2000
   28.3185   16.1689    9.8051 N   0  0  0  0  0  0  0  0  0  0  0  0
   27.2928   15.2736   10.4199 C   0  0  2  0  0  0  0  0  0  0  0  0
   27.8615   14.4965   11.5997 C   0  0  0  0  0  0  0  0  0  0  0  0
   27.1817   14.2515   12.5904 O   0  0  0  0  0  0  0  0  0  0  0  0
   26.6979   14.3250    9.3763 C   0  0  0  0  0  0  0  0  0  0  0  0
   25.6616   13.3681    9.9403 C   0  0  0  0  0  0  0  0  0  0  0  0
   24.4306   14.1081   10.4489 C   0  0  0  0  0  0  0  0  0  0  0  0
   23.3840   13.1274   10.9519 C   0  0  0  0  0  0  0  0  0  0  0  0
   22.1357   13.8111   11.4450 N   0  0  0  0  0  0  0  0  0  0  0  0
   29.0038   14.0583   11.6015 O   0  0  0  0  0  0  0  0  0  0  0  0
  2  1  1  6  0  0  0
  2  3  1  0  0  0  0
  2  5  1  0  0  0  0
  3  4  1  0  0  0  0
  3 10  1  0  0  0  0
  5  6  1  0  0  0  0
  6  7  1  0  0  0  0
  7  8  1  0  0  0  0
  8  9  1  0  0  0  0
M  END
>  <CHROM.1>
143.87723459,179.04089853,64.73672625,177.52824199,-179.03629391,26.21846133
14.28483629,10.84535163,0.08537724,-0.23205902,-1.21224638

>  <Name>
ligand

>  <RI>
0

>  <Rbt.Current_Directory>
/home/itssahil/PROJECTS/Mol_Feturizer/New_Systems/rnas/3DIZ

>  <Rbt.Executable>
rbdock ($Id: //depot/dev/client3/rdock/2013.1/src/exe/rbdock.cxx#4 $)

>  <Rbt.Library>
libRbt.so (2013.1, Build901 2013/11/27)

>  <Rbt.Parameter_File>
/export/apps/rDock/src/rDock_2013.1_src/data/scripts/dock_solv.prm

>  <Rbt.Receptor>
prm/blind_docking_80.prm

>  <SCORE>
-6.73844

>  <SCORE.INTER>
-4.97994

>  <SCORE.INTER.CONST>
1

>  <SCORE.INTER.POLAR>
0

>  <SCORE.INTER.ROT>
5

>  <SCORE.INTER.SOLV>
12.9159

>  <SCORE.INTER.VDW>
-14.5586

>  <SCORE.INTER.norm>
-0.497994

>  <SCORE.INTRA>
-1.7585

>  <SCORE.INTRA.DIHEDRAL>
-2.09645

>  <SCORE.INTRA.DIHEDRAL.0>
3.67053

>  <SCORE.INTRA.POLAR>
0

>  <SCORE.INTRA.POLAR.0>
0

>  <SCORE.INTRA.REPUL>
0

>  <SCORE.INTRA.REPUL.0>
0

>  <SCORE.INTRA.SOLV>
-1.50452

>  <SCORE.INTRA.SOLV.lig_0>
-32.0553

>  <SCORE.INTRA.VDW>
0.0419843

>  <SCORE.INTRA.VDW.0>
-0.571921

>  <SCORE.INTRA.norm>
-0.17585

>  <SCORE.RESTR>
0

>  <SCORE.RESTR.CAVITY>
0

>  <SCORE.RESTR.norm>
0

>  <SCORE.SYSTEM>
0

>  <SCORE.SYSTEM.CONST>
0

>  <SCORE.SYSTEM.DIHEDRAL>
0

>  <SCORE.SYSTEM.SOLV>
0

>  <SCORE.SYSTEM.norm>
0

>  <SCORE.heavy>
10

>  <SCORE.norm>
-0.673844

>  <RMSD>
11.111

$$$$
ligand
 OpenBabel11021811473D
libRbt.so/2013.1/901 2013/11/27
 10  9  0  0  0  0  0  0  0  0999 V2000
   25.8207   24.3547   18.1984 N   0  0  0  0  0  0  0  0  0  0  0  0
   25.8075   23.7600   19.5687 C   0  0  2  0  0  0  0  0  0  0  0  0
   24.8363   22.5908   19.6634 C   0  0  0  0  0  0  0  0  0  0  0  0
   24.9444   21.7401   20.5398 O   0  0  0  0  0  0  0  0  0  0  0  0
   25.4885   24.8224   20.6235 C   0  0  0  0  0  0  0  0  0  0  0  0
   26.4851   25.9683   20.6578 C   0  0  0  0  0  0  0  0  0  0  0  0
   26.1655   26.9587   21.7707 C   0  0  0  0  0  0  0  0  0  0  0  0
   27.1979   28.0735   21.8106 C   0  0  0  0  0  0  0  0  0  0  0  0
   27.1997   28.9098   20.5579 N   0  0  0  0  0  0  0  0  0  0  0  0
   23.8932   22.4633   18.8944 O   0  0  0  0  0  0  0  0  0  0  0  0
  2  1  1  6  0  0  0
  2  3  1  0  0  0  0
  2  5  1  0  0  0  0
  3  4  1  0  0  0  0
  3 10  1  0  0  0  0
  5  6  1  0  0  0  0
  6  7  1  0  0  0  0
  7  8  1  0  0  0  0
  8  9  1  0  0  0  0
M  END
>  <CHROM.1>
158.66015664,-59.85370914,-176.98892033,178.37295440,63.62595731,25.75887756
24.92614628,20.22725790,-2.93073198,1.19435947,1.65032883

>  <Name>
ligand

>  <RI>
0

>  <Rbt.Current_Directory>
/home/itssahil/PROJECTS/Mol_Feturizer/New_Systems/rnas/3DIZ

>  <Rbt.Executable>
rbdock ($Id: //depot/dev/client3/rdock/2013.1/src/exe/rbdock.cxx#4 $)

>  <Rbt.Library>
libRbt.so (2013.1, Build901 2013/11/27)

>  <Rbt.Parameter_File>
/export/apps/rDock/src/rDock_2013.1_src/data/scripts/dock_solv.prm

>  <Rbt.Receptor>
prm/blind_docking_100.prm

>  <SCORE>
-5.4463

>  <SCORE.INTER>
-4.32267

>  <SCORE.INTER.CONST>
1

>  <SCORE.INTER.POLAR>
0

>  <SCORE.INTER.ROT>
5

>  <SCORE.INTER.SOLV>
5.84779

>  <SCORE.INTER.VDW>
-11.7644

>  <SCORE.INTER.norm>
-0.432267

>  <SCORE.INTRA>
-1.12363

>  <SCORE.INTRA.DIHEDRAL>
-2.1273

>  <SCORE.INTRA.DIHEDRAL.0>
3.67053

>  <SCORE.INTRA.POLAR>
0

>  <SCORE.INTRA.POLAR.0>
0

>  <SCORE.INTRA.REPUL>
0

>  <SCORE.INTRA.REPUL.0>
0

>  <SCORE.INTRA.SOLV>
0.0934056

>  <SCORE.INTRA.SOLV.lig_0>
-32.0553

>  <SCORE.INTRA.VDW>
-0.10668

>  <SCORE.INTRA.VDW.0>
-0.571921

>  <SCORE.INTRA.norm>
-0.112363

>  <SCORE.RESTR>
0

>  <SCORE.RESTR.CAVITY>
0

>  <SCORE.RESTR.norm>
0

>  <SCORE.SYSTEM>
0

>  <SCORE.SYSTEM.CONST>
0

>  <SCORE.SYSTEM.DIHEDRAL>
0

>  <SCORE.SYSTEM.SOLV>
0

>  <SCORE.SYSTEM.norm>
0

>  <SCORE.heavy>
10

>  <SCORE.norm>
-0.54463

>  <RMSD>
11.199

$$$$
ligand
 OpenBabel11021811473D
libRbt.so/2013.1/901 2013/11/27
 10  9  0  0  0  0  0  0  0  0999 V2000
   25.6382   24.5192   18.1426 N   0  0  0  0  0  0  0  0  0  0  0  0
   25.7443   23.8445   19.4712 C   0  0  2  0  0  0  0  0  0  0  0  0
   24.8035   22.6511   19.5709 C   0  0  0  0  0  0  0  0  0  0  0  0
   23.9074   22.4741   18.7528 O   0  0  0  0  0  0  0  0  0  0  0  0
   25.4925   24.8356   20.6102 C   0  0  0  0  0  0  0  0  0  0  0  0
   26.5014   25.9698   20.6677 C   0  0  0  0  0  0  0  0  0  0  0  0
   26.3362   26.8062   21.9305 C   0  0  0  0  0  0  0  0  0  0  0  0
   27.3967   27.8929   21.9977 C   0  0  0  0  0  0  0  0  0  0  0  0
   27.2803   28.7435   23.2353 N   0  0  0  0  0  0  0  0  0  0  0  0
   24.9158   21.8044   20.4470 O   0  0  0  0  0  0  0  0  0  0  0  0
  2  1  1  6  0  0  0
  2  3  1  0  0  0  0
  2  5  1  0  0  0  0
  3  4  1  0  0  0  0
  3 10  1  0  0  0  0
  5  6  1  0  0  0  0
  6  7  1  0  0  0  0
  7  8  1  0  0  0  0
  8  9  1  0  0  0  0
M  END
>  <CHROM.1>
-13.44062657,-62.07682636,-171.49112080,177.32876380,-179.65668629,25.77727373
24.91580543,20.47811204,-2.76274368,1.16853204,1.69248504

>  <Name>
ligand

>  <RI>
0

>  <Rbt.Current_Directory>
/home/itssahil/PROJECTS/Mol_Feturizer/New_Systems/rnas/3DIZ

>  <Rbt.Executable>
rbdock ($Id: //depot/dev/client3/rdock/2013.1/src/exe/rbdock.cxx#4 $)

>  <Rbt.Library>
libRbt.so (2013.1, Build901 2013/11/27)

>  <Rbt.Parameter_File>
/export/apps/rDock/src/rDock_2013.1_src/data/scripts/dock_solv.prm

>  <Rbt.Receptor>
prm/blind_docking_100.prm

>  <SCORE>
-5.63881

>  <SCORE.INTER>
-4.14591

>  <SCORE.INTER.CONST>
1

>  <SCORE.INTER.POLAR>
0

>  <SCORE.INTER.ROT>
5

>  <SCORE.INTER.SOLV>
6.43683

>  <SCORE.INTER.VDW>
-11.8429

>  <SCORE.INTER.norm>
-0.414591

>  <SCORE.INTRA>
-1.4929

>  <SCORE.INTRA.DIHEDRAL>
-1.7741

>  <SCORE.INTRA.DIHEDRAL.0>
3.67053

>  <SCORE.INTRA.POLAR>
0

>  <SCORE.INTRA.POLAR.0>
0

>  <SCORE.INTRA.REPUL>
0

>  <SCORE.INTRA.REPUL.0>
0

>  <SCORE.INTRA.SOLV>
-0.864923

>  <SCORE.INTRA.SOLV.lig_0>
-32.0553

>  <SCORE.INTRA.VDW>
-0.173386

>  <SCORE.INTRA.VDW.0>
-0.571921

>  <SCORE.INTRA.norm>
-0.14929

>  <SCORE.RESTR>
0

>  <SCORE.RESTR.CAVITY>
0

>  <SCORE.RESTR.norm>
0

>  <SCORE.SYSTEM>
0

>  <SCORE.SYSTEM.CONST>
0

>  <SCORE.SYSTEM.DIHEDRAL>
0

>  <SCORE.SYSTEM.SOLV>
0

>  <SCORE.SYSTEM.norm>
0

>  <SCORE.heavy>
10

>  <SCORE.norm>
-0.563881

>  <RMSD>
11.266

$$$$
ligand
 OpenBabel11021811473D
libRbt.so/2013.1/901 2013/11/27
 10  9  0  0  0  0  0  0  0  0999 V2000
   26.6153   13.8977    8.9852 N   0  0  0  0  0  0  0  0  0  0  0  0
   26.5916   14.7943   10.1797 C   0  0  2  0  0  0  0  0  0  0  0  0
   27.9930   15.0472   10.7192 C   0  0  0  0  0  0  0  0  0  0  0  0
   28.5826   16.0992   10.4973 O   0  0  0  0  0  0  0  0  0  0  0  0
   25.6796   14.2284   11.2711 C   0  0  0  0  0  0  0  0  0  0  0  0
   24.2295   14.0847   10.8421 C   0  0  0  0  0  0  0  0  0  0  0  0
   23.3635   13.5261   11.9645 C   0  0  0  0  0  0  0  0  0  0  0  0
   21.9106   13.4353   11.5277 C   0  0  0  0  0  0  0  0  0  0  0  0
   21.0067   12.9204   12.6170 N   0  0  0  0  0  0  0  0  0  0  0  0
   28.5791   14.2317   11.4181 O   0  0  0  0  0  0  0  0  0  0  0  0
  2  1  1  6  0  0  0
  2  3  1  0  0  0  0
  2  5  1  0  0  0  0
  3  4  1  0  0  0  0
  3 10  1  0  0  0  0
  5  6  1  0  0  0  0
  6  7  1  0  0  0  0
  7  8  1  0  0  0  0
  8  9  1  0  0  0  0
M  END
>  <CHROM.1>
102.42913556,-61.23867824,-179.67044412,178.09688127,-178.53767678,25.49863029
14.23721716,11.01090705,0.21871001,-0.28210682,-1.58700497

>  <Name>
ligand

>  <RI>
0

>  <Rbt.Current_Directory>
/home/itssahil/PROJECTS/Mol_Feturizer/New_Systems/rnas/3DIZ

>  <Rbt.Executable>
rbdock ($Id: //depot/dev/client3/rdock/2013.1/src/exe/rbdock.cxx#4 $)

>  <Rbt.Library>
libRbt.so (2013.1, Build901 2013/11/27)

>  <Rbt.Parameter_File>
/export/apps/rDock/src/rDock_2013.1_src/data/scripts/dock_solv.prm

>  <Rbt.Receptor>
prm/blind_docking_40.prm

>  <SCORE>
-7.75177

>  <SCORE.INTER>
-6.22963

>  <SCORE.INTER.CONST>
1

>  <SCORE.INTER.POLAR>
0

>  <SCORE.INTER.ROT>
5

>  <SCORE.INTER.SOLV>
6.01052

>  <SCORE.INTER.VDW>
-13.0899

>  <SCORE.INTER.norm>
-0.622963

>  <SCORE.INTRA>
-1.52214

>  <SCORE.INTRA.DIHEDRAL>
-2.08392

>  <SCORE.INTRA.DIHEDRAL.0>
3.67053

>  <SCORE.INTRA.POLAR>
0

>  <SCORE.INTRA.POLAR.0>
0

>  <SCORE.INTRA.REPUL>
0

>  <SCORE.INTRA.REPUL.0>
0

>  <SCORE.INTRA.SOLV>
-0.8574

>  <SCORE.INTRA.SOLV.lig_0>
-32.0553

>  <SCORE.INTRA.VDW>
-0.0514804

>  <SCORE.INTRA.VDW.0>
-0.571921

>  <SCORE.INTRA.norm>
-0.152214

>  <SCORE.RESTR>
0

>  <SCORE.RESTR.CAVITY>
0

>  <SCORE.RESTR.norm>
0

>  <SCORE.SYSTEM>
0

>  <SCORE.SYSTEM.CONST>
0

>  <SCORE.SYSTEM.DIHEDRAL>
0

>  <SCORE.SYSTEM.SOLV>
0

>  <SCORE.SYSTEM.norm>
0

>  <SCORE.heavy>
10

>  <SCORE.norm>
-0.775177

>  <RMSD>
11.284

$$$$
ligand
 OpenBabel11021811473D
libRbt.so/2013.1/901 2013/11/27
 10  9  0  0  0  0  0  0  0  0999 V2000
   26.5861   13.9699    8.9725 N   0  0  0  0  0  0  0  0  0  0  0  0
   26.5841   14.8144   10.2046 C   0  0  2  0  0  0  0  0  0  0  0  0
   27.9920   15.0147   10.7496 C   0  0  0  0  0  0  0  0  0  0  0  0
   28.5796   16.0836   10.6236 O   0  0  0  0  0  0  0  0  0  0  0  0
   25.6635   14.2208   11.2738 C   0  0  0  0  0  0  0  0  0  0  0  0
   24.2128   14.1084   10.8374 C   0  0  0  0  0  0  0  0  0  0  0  0
   23.3299   13.5654   11.9541 C   0  0  0  0  0  0  0  0  0  0  0  0
   21.8800   13.4905   11.5043 C   0  0  0  0  0  0  0  0  0  0  0  0
   20.9642   12.9645   12.5782 N   0  0  0  0  0  0  0  0  0  0  0  0
   28.5857   14.1358   11.3595 O   0  0  0  0  0  0  0  0  0  0  0  0
  2  1  1  6  0  0  0
  2  3  1  0  0  0  0
  2  5  1  0  0  0  0
  3  4  1  0  0  0  0
  3 10  1  0  0  0  0
  5  6  1  0  0  0  0
  6  7  1  0  0  0  0
  7  8  1  0  0  0  0
  8  9  1  0  0  0  0
M  END
>  <CHROM.1>
105.76039097,-60.46005384,-177.71070350,178.76840873,-179.72926444,25.48150373
14.24617788,11.01480619,0.21228030,-0.26656754,-1.57586723

>  <Name>
ligand

>  <RI>
0

>  <Rbt.Current_Directory>
/home/itssahil/PROJECTS/Mol_Feturizer/New_Systems/rnas/3DIZ

>  <Rbt.Executable>
rbdock ($Id: //depot/dev/client3/rdock/2013.1/src/exe/rbdock.cxx#4 $)

>  <Rbt.Library>
libRbt.so (2013.1, Build901 2013/11/27)

>  <Rbt.Parameter_File>
/export/apps/rDock/src/rDock_2013.1_src/data/scripts/dock_solv.prm

>  <Rbt.Receptor>
prm/blind_docking_40.prm

>  <SCORE>
-7.70484

>  <SCORE.INTER>
-6.1463

>  <SCORE.INTER.CONST>
1

>  <SCORE.INTER.POLAR>
0

>  <SCORE.INTER.ROT>
5

>  <SCORE.INTER.SOLV>
5.8476

>  <SCORE.INTER.VDW>
-12.9801

>  <SCORE.INTER.norm>
-0.61463

>  <SCORE.INTRA>
-1.55853

>  <SCORE.INTRA.DIHEDRAL>
-2.09258

>  <SCORE.INTRA.DIHEDRAL.0>
3.67053

>  <SCORE.INTRA.POLAR>
0

>  <SCORE.INTRA.POLAR.0>
0

>  <SCORE.INTRA.REPUL>
0

>  <SCORE.INTRA.REPUL.0>
0

>  <SCORE.INTRA.SOLV>
-0.85611

>  <SCORE.INTRA.SOLV.lig_0>
-32.0553

>  <SCORE.INTRA.VDW>
-0.0841845

>  <SCORE.INTRA.VDW.0>
-0.571921

>  <SCORE.INTRA.norm>
-0.155853

>  <SCORE.RESTR>
0

>  <SCORE.RESTR.CAVITY>
0

>  <SCORE.RESTR.norm>
0

>  <SCORE.SYSTEM>
0

>  <SCORE.SYSTEM.CONST>
0

>  <SCORE.SYSTEM.DIHEDRAL>
0

>  <SCORE.SYSTEM.SOLV>
0

>  <SCORE.SYSTEM.norm>
0

>  <SCORE.heavy>
10

>  <SCORE.norm>
-0.770484

>  <RMSD>
11.285

$$$$
ligand
 OpenBabel11021811473D
libRbt.so/2013.1/901 2013/11/27
 10  9  0  0  0  0  0  0  0  0999 V2000
   26.6691   13.8566    8.9961 N   0  0  0  0  0  0  0  0  0  0  0  0
   26.6334   14.7711   10.1767 C   0  0  2  0  0  0  0  0  0  0  0  0
   28.0272   15.0155   10.7394 C   0  0  0  0  0  0  0  0  0  0  0  0
   28.5850   16.1003   10.6150 O   0  0  0  0  0  0  0  0  0  0  0  0
   25.6940   14.2321   11.2585 C   0  0  0  0  0  0  0  0  0  0  0  0
   24.2576   14.0657   10.7932 C   0  0  0  0  0  0  0  0  0  0  0  0
   23.3596   13.5527   11.9121 C   0  0  0  0  0  0  0  0  0  0  0  0
   21.9277   13.4020   11.4254 C   0  0  0  0  0  0  0  0  0  0  0  0
   20.9967   12.9067   12.5010 N   0  0  0  0  0  0  0  0  0  0  0  0
   28.6379   14.1577   11.3625 O   0  0  0  0  0  0  0  0  0  0  0  0
  2  1  1  6  0  0  0
  2  3  1  0  0  0  0
  2  5  1  0  0  0  0
  3  4  1  0  0  0  0
  3 10  1  0  0  0  0
  5  6  1  0  0  0  0
  6  7  1  0  0  0  0
  7  8  1  0  0  0  0
  8  9  1  0  0  0  0
M  END
>  <CHROM.1>
109.02195765,-59.76785432,-178.91664139,179.67895322,-179.54303916,25.52222682
14.21648268,10.98748043,0.18028813,-0.28819749,-1.65204258

>  <Name>
ligand

>  <RI>
0

>  <Rbt.Current_Directory>
/home/itssahil/PROJECTS/Mol_Feturizer/New_Systems/rnas/3DIZ

>  <Rbt.Executable>
rbdock ($Id: //depot/dev/client3/rdock/2013.1/src/exe/rbdock.cxx#4 $)

>  <Rbt.Library>
libRbt.so (2013.1, Build901 2013/11/27)

>  <Rbt.Parameter_File>
/export/apps/rDock/src/rDock_2013.1_src/data/scripts/dock_solv.prm

>  <Rbt.Receptor>
prm/blind_docking_40.prm

>  <SCORE>
-7.81155

>  <SCORE.INTER>
-6.21504

>  <SCORE.INTER.CONST>
1

>  <SCORE.INTER.POLAR>
0

>  <SCORE.INTER.ROT>
5

>  <SCORE.INTER.SOLV>
6.20549

>  <SCORE.INTER.VDW>
-13.1452

>  <SCORE.INTER.norm>
-0.621504

>  <SCORE.INTRA>
-1.59683

>  <SCORE.INTRA.DIHEDRAL>
-2.12497

>  <SCORE.INTRA.DIHEDRAL.0>
3.67053

>  <SCORE.INTRA.POLAR>
0

>  <SCORE.INTRA.POLAR.0>
0

>  <SCORE.INTRA.REPUL>
0

>  <SCORE.INTRA.REPUL.0>
0

>  <SCORE.INTRA.SOLV>
-0.840958

>  <SCORE.INTRA.SOLV.lig_0>
-32.0553

>  <SCORE.INTRA.VDW>
-0.113865

>  <SCORE.INTRA.VDW.0>
-0.571921

>  <SCORE.INTRA.norm>
-0.159683

>  <SCORE.RESTR>
0.000318898

>  <SCORE.RESTR.CAVITY>
0.000318898

>  <SCORE.RESTR.norm>
3.18898e-05

>  <SCORE.SYSTEM>
0

>  <SCORE.SYSTEM.CONST>
0

>  <SCORE.SYSTEM.DIHEDRAL>
0

>  <SCORE.SYSTEM.SOLV>
0

>  <SCORE.SYSTEM.norm>
0

>  <SCORE.heavy>
10

>  <SCORE.norm>
-0.781155

>  <RMSD>
11.292

$$$$
ligand
 OpenBabel11021811473D
libRbt.so/2013.1/901 2013/11/27
 10  9  0  0  0  0  0  0  0  0999 V2000
   26.6346   13.8945    8.9775 N   0  0  0  0  0  0  0  0  0  0  0  0
   26.5998   14.7888   10.1735 C   0  0  2  0  0  0  0  0  0  0  0  0
   27.9952   15.0326   10.7325 C   0  0  0  0  0  0  0  0  0  0  0  0
   28.5990   14.1593   11.3460 O   0  0  0  0  0  0  0  0  0  0  0  0
   25.6699   14.2258   11.2513 C   0  0  0  0  0  0  0  0  0  0  0  0
   24.2303   14.0656   10.7937 C   0  0  0  0  0  0  0  0  0  0  0  0
   23.3354   13.5604   11.9186 C   0  0  0  0  0  0  0  0  0  0  0  0
   21.8917   13.4619   11.4536 C   0  0  0  0  0  0  0  0  0  0  0  0
   20.9605   12.9959   12.5419 N   0  0  0  0  0  0  0  0  0  0  0  0
   28.5859   16.0918   10.5709 O   0  0  0  0  0  0  0  0  0  0  0  0
  2  1  1  6  0  0  0
  2  3  1  0  0  0  0
  2  5  1  0  0  0  0
  3  4  1  0  0  0  0
  3 10  1  0  0  0  0
  5  6  1  0  0  0  0
  6  7  1  0  0  0  0
  7  8  1  0  0  0  0
  8  9  1  0  0  0  0
M  END
>  <CHROM.1>
-73.22291732,-60.10313405,-177.52083183,177.70816912,-178.68208066,25.49398472
14.23748023,10.98473564,0.19439418,-0.27767894,-1.63299462

>  <Name>
ligand

>  <RI>
0

>  <Rbt.Current_Directory>
/home/itssahil/PROJECTS/Mol_Feturizer/New_Systems/rnas/3DIZ

>  <Rbt.Executable>
rbdock ($Id: //depot/dev/client3/rdock/2013.1/src/exe/rbdock.cxx#4 $)

>  <Rbt.Library>
libRbt.so (2013.1, Build901 2013/11/27)

>  <Rbt.Parameter_File>
/export/apps/rDock/src/rDock_2013.1_src/data/scripts/dock_solv.prm

>  <Rbt.Receptor>
prm/blind_docking_40.prm

>  <SCORE>
-7.80546

>  <SCORE.INTER>
-6.21704

>  <SCORE.INTER.CONST>
1

>  <SCORE.INTER.POLAR>
0

>  <SCORE.INTER.ROT>
5

>  <SCORE.INTER.SOLV>
5.94752

>  <SCORE.INTER.VDW>
-13.0605

>  <SCORE.INTER.norm>
-0.621704

>  <SCORE.INTRA>
-1.58843

>  <SCORE.INTRA.DIHEDRAL>
-2.15676

>  <SCORE.INTRA.DIHEDRAL.0>
3.67053

>  <SCORE.INTRA.POLAR>
0

>  <SCORE.INTRA.POLAR.0>
0

>  <SCORE.INTRA.REPUL>
0

>  <SCORE.INTRA.REPUL.0>
0

>  <SCORE.INTRA.SOLV>
-0.835731

>  <SCORE.INTRA.SOLV.lig_0>
-32.0553

>  <SCORE.INTRA.VDW>
-0.0921788

>  <SCORE.INTRA.VDW.0>
-0.571921

>  <SCORE.INTRA.norm>
-0.158843

>  <SCORE.RESTR>
0

>  <SCORE.RESTR.CAVITY>
0

>  <SCORE.RESTR.norm>
0

>  <SCORE.SYSTEM>
0

>  <SCORE.SYSTEM.CONST>
0

>  <SCORE.SYSTEM.DIHEDRAL>
0

>  <SCORE.SYSTEM.SOLV>
0

>  <SCORE.SYSTEM.norm>
0

>  <SCORE.heavy>
10

>  <SCORE.norm>
-0.780546

>  <RMSD>
11.306

$$$$
ligand
 OpenBabel11021811473D
libRbt.so/2013.1/901 2013/11/27
 10  9  0  0  0  0  0  0  0  0999 V2000
   26.7248   14.0136    8.8757 N   0  0  0  0  0  0  0  0  0  0  0  0
   26.5823   14.9309   10.0460 C   0  0  2  0  0  0  0  0  0  0  0  0
   27.9382   15.3560   10.5938 C   0  0  0  0  0  0  0  0  0  0  0  0
   28.7026   14.5456   11.1061 O   0  0  0  0  0  0  0  0  0  0  0  0
   25.7262   14.2913   11.1420 C   0  0  0  0  0  0  0  0  0  0  0  0
   24.2794   14.0690   10.7357 C   0  0  0  0  0  0  0  0  0  0  0  0
   23.4393   13.5624   11.9015 C   0  0  0  0  0  0  0  0  0  0  0  0
   21.9851   13.4062   11.4878 C   0  0  0  0  0  0  0  0  0  0  0  0
   21.1125   12.9037   12.6079 N   0  0  0  0  0  0  0  0  0  0  0  0
   28.3371   16.5104   10.5218 O   0  0  0  0  0  0  0  0  0  0  0  0
  2  1  1  6  0  0  0
  2  3  1  0  0  0  0
  2  5  1  0  0  0  0
  3  4  1  0  0  0  0
  3 10  1  0  0  0  0
  5  6  1  0  0  0  0
  6  7  1  0  0  0  0
  7  8  1  0  0  0  0
  8  9  1  0  0  0  0
M  END
>  <CHROM.1>
-65.44515509,-65.64793930,-174.27976477,177.49773101,179.87045678,25.52518438
14.37353831,10.90993138,0.15037527,-0.37503055,-1.82428004

>  <Name>
ligand

>  <RI>
0

>  <Rbt.Current_Directory>
/home/itssahil/PROJECTS/Mol_Feturizer/New_Systems/rnas/3DIZ

>  <Rbt.Executable>
rbdock ($Id: //depot/dev/client3/rdock/2013.1/src/exe/rbdock.cxx#4 $)

>  <Rbt.Library>
libRbt.so (2013.1, Build901 2013/11/27)

>  <Rbt.Parameter_File>
/export/apps/rDock/src/rDock_2013.1_src/data/scripts/dock_solv.prm

>  <Rbt.Receptor>
prm/blind_docking_100.prm

>  <SCORE>
-8.06492

>  <SCORE.INTER>
-6.43831

>  <SCORE.INTER.CONST>
1

>  <SCORE.INTER.POLAR>
0

>  <SCORE.INTER.ROT>
5

>  <SCORE.INTER.SOLV>
5.91532

>  <SCORE.INTER.VDW>
-13.1973

>  <SCORE.INTER.norm>
-0.643831

>  <SCORE.INTRA>
-1.62661

>  <SCORE.INTRA.DIHEDRAL>
-1.89029

>  <SCORE.INTRA.DIHEDRAL.0>
3.67053

>  <SCORE.INTRA.POLAR>
0

>  <SCORE.INTRA.POLAR.0>
0

>  <SCORE.INTRA.REPUL>
0

>  <SCORE.INTRA.REPUL.0>
0

>  <SCORE.INTRA.SOLV>
-0.919655

>  <SCORE.INTRA.SOLV.lig_0>
-32.0553

>  <SCORE.INTRA.VDW>
-0.221636

>  <SCORE.INTRA.VDW.0>
-0.571921

>  <SCORE.INTRA.norm>
-0.162661

>  <SCORE.RESTR>
0

>  <SCORE.RESTR.CAVITY>
0

>  <SCORE.RESTR.norm>
0

>  <SCORE.SYSTEM>
0

>  <SCORE.SYSTEM.CONST>
0

>  <SCORE.SYSTEM.DIHEDRAL>
0

>  <SCORE.SYSTEM.SOLV>
0

>  <SCORE.SYSTEM.norm>
0

>  <SCORE.heavy>
10

>  <SCORE.norm>
-0.806492

>  <RMSD>
11.334

$$$$
ligand
 OpenBabel11021811473D
libRbt.so/2013.1/901 2013/11/27
 10  9  0  0  0  0  0  0  0  0999 V2000
   26.7070   14.0165    8.8717 N   0  0  0  0  0  0  0  0  0  0  0  0
   26.5785   14.9149   10.0582 C   0  0  2  0  0  0  0  0  0  0  0  0
   27.9407   15.3131   10.6105 C   0  0  0  0  0  0  0  0  0  0  0  0
   28.7004   14.4824   11.0967 O   0  0  0  0  0  0  0  0  0  0  0  0
   25.7163   14.2672   11.1445 C   0  0  0  0  0  0  0  0  0  0  0  0
   24.2695   14.0567   10.7320 C   0  0  0  0  0  0  0  0  0  0  0  0
   23.4225   13.5469   11.8914 C   0  0  0  0  0  0  0  0  0  0  0  0
   21.9672   13.4111   11.4745 C   0  0  0  0  0  0  0  0  0  0  0  0
   21.0844   12.9247   12.5938 N   0  0  0  0  0  0  0  0  0  0  0  0
   28.3494   16.4655   10.5680 O   0  0  0  0  0  0  0  0  0  0  0  0
  2  1  1  6  0  0  0
  2  3  1  0  0  0  0
  2  5  1  0  0  0  0
  3  4  1  0  0  0  0
  3 10  1  0  0  0  0
  5  6  1  0  0  0  0
  6  7  1  0  0  0  0
  7  8  1  0  0  0  0
  8  9  1  0  0  0  0
M  END
>  <CHROM.1>
-64.81844372,-65.02241077,-174.02763867,177.13676472,-179.32054788,25.51620497
14.35383713,10.91240588,0.15064207,-0.36477012,-1.81656537

>  <Name>
ligand

>  <RI>
0

>  <Rbt.Current_Directory>
/home/itssahil/PROJECTS/Mol_Feturizer/New_Systems/rnas/3DIZ

>  <Rbt.Executable>
rbdock ($Id: //depot/dev/client3/rdock/2013.1/src/exe/rbdock.cxx#4 $)

>  <Rbt.Library>
libRbt.so (2013.1, Build901 2013/11/27)

>  <Rbt.Parameter_File>
/export/apps/rDock/src/rDock_2013.1_src/data/scripts/dock_solv.prm

>  <Rbt.Receptor>
prm/blind_docking_100.prm

>  <SCORE>
-8.03782

>  <SCORE.INTER>
-6.41292

>  <SCORE.INTER.CONST>
1

>  <SCORE.INTER.POLAR>
0

>  <SCORE.INTER.ROT>
5

>  <SCORE.INTER.SOLV>
5.86893

>  <SCORE.INTER.VDW>
-13.1649

>  <SCORE.INTER.norm>
-0.641292

>  <SCORE.INTRA>
-1.6249

>  <SCORE.INTRA.DIHEDRAL>
-1.8938

>  <SCORE.INTRA.DIHEDRAL.0>
3.67053

>  <SCORE.INTRA.POLAR>
0

>  <SCORE.INTRA.POLAR.0>
0

>  <SCORE.INTRA.REPUL>
0

>  <SCORE.INTRA.REPUL.0>
0

>  <SCORE.INTRA.SOLV>
-0.912124

>  <SCORE.INTRA.SOLV.lig_0>
-32.0553

>  <SCORE.INTRA.VDW>
-0.221943

>  <SCORE.INTRA.VDW.0>
-0.571921

>  <SCORE.INTRA.norm>
-0.16249

>  <SCORE.RESTR>
0

>  <SCORE.RESTR.CAVITY>
0

>  <SCORE.RESTR.norm>
0

>  <SCORE.SYSTEM>
0

>  <SCORE.SYSTEM.CONST>
0

>  <SCORE.SYSTEM.DIHEDRAL>
0

>  <SCORE.SYSTEM.SOLV>
0

>  <SCORE.SYSTEM.norm>
0

>  <SCORE.heavy>
10

>  <SCORE.norm>
-0.803782

>  <RMSD>
11.338

$$$$
ligand
 OpenBabel11021811473D
libRbt.so/2013.1/901 2013/11/27
 10  9  0  0  0  0  0  0  0  0999 V2000
   26.6628   13.9008    8.9302 N   0  0  0  0  0  0  0  0  0  0  0  0
   26.5000   14.8542   10.0685 C   0  0  2  0  0  0  0  0  0  0  0  0
   27.8462   15.3094   10.6159 C   0  0  0  0  0  0  0  0  0  0  0  0
   28.0992   16.4976   10.7824 O   0  0  0  0  0  0  0  0  0  0  0  0
   25.6382   14.2426   11.1760 C   0  0  0  0  0  0  0  0  0  0  0  0
   24.1836   14.0501   10.7826 C   0  0  0  0  0  0  0  0  0  0  0  0
   23.3527   13.5172   11.9433 C   0  0  0  0  0  0  0  0  0  0  0  0
   21.8910   13.3942   11.5456 C   0  0  0  0  0  0  0  0  0  0  0  0
   21.0285   12.8585   12.6583 N   0  0  0  0  0  0  0  0  0  0  0  0
   28.7195   14.5162   10.9404 O   0  0  0  0  0  0  0  0  0  0  0  0
  2  1  1  6  0  0  0
  2  3  1  0  0  0  0
  2  5  1  0  0  0  0
  3  4  1  0  0  0  0
  3 10  1  0  0  0  0
  5  6  1  0  0  0  0
  6  7  1  0  0  0  0
  7  8  1  0  0  0  0
  8  9  1  0  0  0  0
M  END
>  <CHROM.1>
129.76592486,-68.17548209,-176.61629758,177.36427323,179.48710192,25.43398661
14.32961597,10.95299363,0.07089986,-0.39217811,-2.04370730

>  <Name>
ligand

>  <RI>
0

>  <Rbt.Current_Directory>
/home/itssahil/PROJECTS/Mol_Feturizer/New_Systems/rnas/3DIZ

>  <Rbt.Executable>
rbdock ($Id: //depot/dev/client3/rdock/2013.1/src/exe/rbdock.cxx#4 $)

>  <Rbt.Library>
libRbt.so (2013.1, Build901 2013/11/27)

>  <Rbt.Parameter_File>
/export/apps/rDock/src/rDock_2013.1_src/data/scripts/dock_solv.prm

>  <Rbt.Receptor>
prm/blind_docking_40.prm

>  <SCORE>
-7.79715

>  <SCORE.INTER>
-6.07484

>  <SCORE.INTER.CONST>
1

>  <SCORE.INTER.POLAR>
0

>  <SCORE.INTER.ROT>
5

>  <SCORE.INTER.SOLV>
5.93562

>  <SCORE.INTER.VDW>
-12.9618

>  <SCORE.INTER.norm>
-0.607484

>  <SCORE.INTRA>
-1.72231

>  <SCORE.INTRA.DIHEDRAL>
-1.83831

>  <SCORE.INTRA.DIHEDRAL.0>
3.67053

>  <SCORE.INTRA.POLAR>
0

>  <SCORE.INTRA.POLAR.0>
0

>  <SCORE.INTRA.REPUL>
0

>  <SCORE.INTRA.REPUL.0>
0

>  <SCORE.INTRA.SOLV>
-0.952966

>  <SCORE.INTRA.SOLV.lig_0>
-32.0553

>  <SCORE.INTRA.VDW>
-0.326671

>  <SCORE.INTRA.VDW.0>
-0.571921

>  <SCORE.INTRA.norm>
-0.172231

>  <SCORE.RESTR>
0

>  <SCORE.RESTR.CAVITY>
0

>  <SCORE.RESTR.norm>
0

>  <SCORE.SYSTEM>
0

>  <SCORE.SYSTEM.CONST>
0

>  <SCORE.SYSTEM.DIHEDRAL>
0

>  <SCORE.SYSTEM.SOLV>
0

>  <SCORE.SYSTEM.norm>
0

>  <SCORE.heavy>
10

>  <SCORE.norm>
-0.779715

>  <RMSD>
11.341

$$$$
ligand
 OpenBabel11021811473D
libRbt.so/2013.1/901 2013/11/27
 10  9  0  0  0  0  0  0  0  0999 V2000
   26.7017   13.9827    8.8662 N   0  0  0  0  0  0  0  0  0  0  0  0
   26.5650   14.8945   10.0415 C   0  0  2  0  0  0  0  0  0  0  0  0
   27.9235   15.3085   10.5913 C   0  0  0  0  0  0  0  0  0  0  0  0
   28.3047   16.4728   10.5417 O   0  0  0  0  0  0  0  0  0  0  0  0
   25.7051   14.2543   11.1341 C   0  0  0  0  0  0  0  0  0  0  0  0
   24.2512   14.0666   10.7363 C   0  0  0  0  0  0  0  0  0  0  0  0
   23.4094   13.5632   11.9022 C   0  0  0  0  0  0  0  0  0  0  0  0
   21.9504   13.4354   11.4958 C   0  0  0  0  0  0  0  0  0  0  0  0
   21.0730   12.9536   12.6213 N   0  0  0  0  0  0  0  0  0  0  0  0
   28.6787   14.5109   11.1304 O   0  0  0  0  0  0  0  0  0  0  0  0
  2  1  1  6  0  0  0
  2  3  1  0  0  0  0
  2  5  1  0  0  0  0
  3  4  1  0  0  0  0
  3 10  1  0  0  0  0
  5  6  1  0  0  0  0
  6  7  1  0  0  0  0
  7  8  1  0  0  0  0
  8  9  1  0  0  0  0
M  END
>  <CHROM.1>
114.37690549,-66.72138264,-174.05322500,177.77140386,-179.40625555,25.49842294
14.35887940,10.91483550,0.15194145,-0.36479198,-1.82829855

>  <Name>
ligand

>  <RI>
0

>  <Rbt.Current_Directory>
/home/itssahil/PROJECTS/Mol_Feturizer/New_Systems/rnas/3DIZ

>  <Rbt.Executable>
rbdock ($Id: //depot/dev/client3/rdock/2013.1/src/exe/rbdock.cxx#4 $)

>  <Rbt.Library>
libRbt.so (2013.1, Build901 2013/11/27)

>  <Rbt.Parameter_File>
/export/apps/rDock/src/rDock_2013.1_src/data/scripts/dock_solv.prm

>  <Rbt.Receptor>
prm/blind_docking_100.prm

>  <SCORE>
-8.05686

>  <SCORE.INTER>
-6.46125

>  <SCORE.INTER.CONST>
1

>  <SCORE.INTER.POLAR>
0

>  <SCORE.INTER.ROT>
5

>  <SCORE.INTER.SOLV>
5.85138

>  <SCORE.INTER.VDW>
-13.1913

>  <SCORE.INTER.norm>
-0.646125

>  <SCORE.INTRA>
-1.59561

>  <SCORE.INTRA.DIHEDRAL>
-1.78511

>  <SCORE.INTRA.DIHEDRAL.0>
3.67053

>  <SCORE.INTRA.POLAR>
0

>  <SCORE.INTRA.POLAR.0>
0

>  <SCORE.INTRA.REPUL>
0

>  <SCORE.INTRA.REPUL.0>
0

>  <SCORE.INTRA.SOLV>
-0.951528

>  <SCORE.INTRA.SOLV.lig_0>
-32.0553

>  <SCORE.INTRA.VDW>
-0.227288

>  <SCORE.INTRA.VDW.0>
-0.571921

>  <SCORE.INTRA.norm>
-0.159561

>  <SCORE.RESTR>
0

>  <SCORE.RESTR.CAVITY>
0

>  <SCORE.RESTR.norm>
0

>  <SCORE.SYSTEM>
0

>  <SCORE.SYSTEM.CONST>
0

>  <SCORE.SYSTEM.DIHEDRAL>
0

>  <SCORE.SYSTEM.SOLV>
0

>  <SCORE.SYSTEM.norm>
0

>  <SCORE.heavy>
10

>  <SCORE.norm>
-0.805686

>  <RMSD>
11.345

$$$$
ligand
 OpenBabel11021811473D
libRbt.so/2013.1/901 2013/11/27
 10  9  0  0  0  0  0  0  0  0999 V2000
   26.5384   14.0602    8.8461 N   0  0  0  0  0  0  0  0  0  0  0  0
   26.5433   14.8572   10.1096 C   0  0  2  0  0  0  0  0  0  0  0  0
   27.9586   15.0861   10.6229 C   0  0  0  0  0  0  0  0  0  0  0  0
   28.5312   14.2491   11.3121 O   0  0  0  0  0  0  0  0  0  0  0  0
   25.6746   14.1918   11.1800 C   0  0  0  0  0  0  0  0  0  0  0  0
   24.2083   14.0847   10.7976 C   0  0  0  0  0  0  0  0  0  0  0  0
   23.3719   13.5060   11.9321 C   0  0  0  0  0  0  0  0  0  0  0  0
   21.9055   13.4389   11.5382 C   0  0  0  0  0  0  0  0  0  0  0  0
   21.0356   12.8712   12.6290 N   0  0  0  0  0  0  0  0  0  0  0  0
   28.5959   16.0940   10.3490 O   0  0  0  0  0  0  0  0  0  0  0  0
  2  1  1  6  0  0  0
  2  3  1  0  0  0  0
  2  5  1  0  0  0  0
  3  4  1  0  0  0  0
  3 10  1  0  0  0  0
  5  6  1  0  0  0  0
  6  7  1  0  0  0  0
  7  8  1  0  0  0  0
  8  9  1  0  0  0  0
M  END
>  <CHROM.1>
-84.27981354,-62.28419453,-176.01115747,178.67561658,179.94710969,25.48028701
14.25365674,10.93917796,0.26559544,-0.26983871,-1.48881195

>  <Name>
ligand

>  <RI>
0

>  <Rbt.Current_Directory>
/home/itssahil/PROJECTS/Mol_Feturizer/New_Systems/rnas/3DIZ

>  <Rbt.Executable>
rbdock ($Id: //depot/dev/client3/rdock/2013.1/src/exe/rbdock.cxx#4 $)

>  <Rbt.Library>
libRbt.so (2013.1, Build901 2013/11/27)

>  <Rbt.Parameter_File>
/export/apps/rDock/src/rDock_2013.1_src/data/scripts/dock_solv.prm

>  <Rbt.Receptor>
prm/blind_docking_40.prm

>  <SCORE>
-7.5931

>  <SCORE.INTER>
-6.13064

>  <SCORE.INTER.CONST>
1

>  <SCORE.INTER.POLAR>
0

>  <SCORE.INTER.ROT>
5

>  <SCORE.INTER.SOLV>
5.69679

>  <SCORE.INTER.VDW>
-12.9194

>  <SCORE.INTER.norm>
-0.613064

>  <SCORE.INTRA>
-1.46246

>  <SCORE.INTRA.DIHEDRAL>
-2.12884

>  <SCORE.INTRA.DIHEDRAL.0>
3.67053

>  <SCORE.INTRA.POLAR>
0

>  <SCORE.INTRA.POLAR.0>
0

>  <SCORE.INTRA.REPUL>
0

>  <SCORE.INTRA.REPUL.0>
0

>  <SCORE.INTRA.SOLV>
-0.872797

>  <SCORE.INTRA.SOLV.lig_0>
-32.0553

>  <SCORE.INTRA.VDW>
0.0383548

>  <SCORE.INTRA.VDW.0>
-0.571921

>  <SCORE.INTRA.norm>
-0.146246

>  <SCORE.RESTR>
0

>  <SCORE.RESTR.CAVITY>
0

>  <SCORE.RESTR.norm>
0

>  <SCORE.SYSTEM>
0

>  <SCORE.SYSTEM.CONST>
0

>  <SCORE.SYSTEM.DIHEDRAL>
0

>  <SCORE.SYSTEM.SOLV>
0

>  <SCORE.SYSTEM.norm>
0

>  <SCORE.heavy>
10

>  <SCORE.norm>
-0.75931

>  <RMSD>
11.354

$$$$
ligand
 OpenBabel11021811473D
libRbt.so/2013.1/901 2013/11/27
 10  9  0  0  0  0  0  0  0  0999 V2000
   27.1969   14.3101    8.5938 N   0  0  0  0  0  0  0  0  0  0  0  0
   26.4121   14.7206    9.7968 C   0  0  2  0  0  0  0  0  0  0  0  0
   27.3160   14.9788   10.9949 C   0  0  0  0  0  0  0  0  0  0  0  0
   27.8106   16.0827   11.1956 O   0  0  0  0  0  0  0  0  0  0  0  0
   25.3419   13.6793   10.1338 C   0  0  0  0  0  0  0  0  0  0  0  0
   24.3465   14.1435   11.1832 C   0  0  0  0  0  0  0  0  0  0  0  0
   23.2530   13.1088   11.4180 C   0  0  0  0  0  0  0  0  0  0  0  0
   22.2805   13.5872   12.4835 C   0  0  0  0  0  0  0  0  0  0  0  0
   21.1782   12.5964   12.7521 N   0  0  0  0  0  0  0  0  0  0  0  0
   27.5644   14.1123   11.8223 O   0  0  0  0  0  0  0  0  0  0  0  0
  2  1  1  6  0  0  0
  2  3  1  0  0  0  0
  2  5  1  0  0  0  0
  3  4  1  0  0  0  0
  3 10  1  0  0  0  0
  5  6  1  0  0  0  0
  6  7  1  0  0  0  0
  7  8  1  0  0  0  0
  8  9  1  0  0  0  0
M  END
>  <CHROM.1>
88.22574495,-169.50753096,176.36634369,179.26584968,179.99836399,25.30053124
14.14286665,11.06015372,0.23569403,-0.39772260,-1.79183145

>  <Name>
ligand

>  <RI>
0

>  <Rbt.Current_Directory>
/home/itssahil/PROJECTS/Mol_Feturizer/New_Systems/rnas/3DIZ

>  <Rbt.Executable>
rbdock ($Id: //depot/dev/client3/rdock/2013.1/src/exe/rbdock.cxx#4 $)

>  <Rbt.Library>
libRbt.so (2013.1, Build901 2013/11/27)

>  <Rbt.Parameter_File>
/export/apps/rDock/src/rDock_2013.1_src/data/scripts/dock_solv.prm

>  <Rbt.Receptor>
prm/blind_docking_40.prm

>  <SCORE>
-6.31923

>  <SCORE.INTER>
-4.74233

>  <SCORE.INTER.CONST>
1

>  <SCORE.INTER.POLAR>
0

>  <SCORE.INTER.ROT>
5

>  <SCORE.INTER.SOLV>
6.67698

>  <SCORE.INTER.VDW>
-12.3205

>  <SCORE.INTER.norm>
-0.474233

>  <SCORE.INTRA>
-1.5769

>  <SCORE.INTRA.DIHEDRAL>
-1.64947

>  <SCORE.INTRA.DIHEDRAL.0>
3.67053

>  <SCORE.INTRA.POLAR>
0

>  <SCORE.INTRA.POLAR.0>
0

>  <SCORE.INTRA.REPUL>
0

>  <SCORE.INTRA.REPUL.0>
0

>  <SCORE.INTRA.SOLV>
-1.73562

>  <SCORE.INTRA.SOLV.lig_0>
-32.0553

>  <SCORE.INTRA.VDW>
0.115651

>  <SCORE.INTRA.VDW.0>
-0.571921

>  <SCORE.INTRA.norm>
-0.15769

>  <SCORE.RESTR>
0

>  <SCORE.RESTR.CAVITY>
0

>  <SCORE.RESTR.norm>
0

>  <SCORE.SYSTEM>
0

>  <SCORE.SYSTEM.CONST>
0

>  <SCORE.SYSTEM.DIHEDRAL>
0

>  <SCORE.SYSTEM.SOLV>
0

>  <SCORE.SYSTEM.norm>
0

>  <SCORE.heavy>
10

>  <SCORE.norm>
-0.631923

>  <RMSD>
11.363

$$$$
ligand
 OpenBabel11021811473D
libRbt.so/2013.1/901 2013/11/27
 10  9  0  0  0  0  0  0  0  0999 V2000
   26.6534   13.9173    8.7762 N   0  0  0  0  0  0  0  0  0  0  0  0
   26.5689   14.8618    9.9304 C   0  0  2  0  0  0  0  0  0  0  0  0
   27.9507   15.2781   10.4168 C   0  0  0  0  0  0  0  0  0  0  0  0
   28.6521   14.5176   11.0750 O   0  0  0  0  0  0  0  0  0  0  0  0
   25.7463   14.2591   11.0720 C   0  0  0  0  0  0  0  0  0  0  0  0
   24.2780   14.0682   10.7327 C   0  0  0  0  0  0  0  0  0  0  0  0
   23.4891   13.5407   11.9248 C   0  0  0  0  0  0  0  0  0  0  0  0
   22.0243   13.3598   11.5620 C   0  0  0  0  0  0  0  0  0  0  0  0
   21.1992   12.8463   12.7128 N   0  0  0  0  0  0  0  0  0  0  0  0
   28.4335   16.3703   10.1504 O   0  0  0  0  0  0  0  0  0  0  0  0
  2  1  1  6  0  0  0
  2  3  1  0  0  0  0
  2  5  1  0  0  0  0
  3  4  1  0  0  0  0
  3 10  1  0  0  0  0
  5  6  1  0  0  0  0
  6  7  1  0  0  0  0
  7  8  1  0  0  0  0
  8  9  1  0  0  0  0
M  END
>  <CHROM.1>
-75.28624130,-66.46925701,-176.77436095,179.92403942,-179.67529955,25.54241722
14.31616011,10.84156556,0.24057107,-0.35610905,-1.68719756

>  <Name>
ligand

>  <RI>
0

>  <Rbt.Current_Directory>
/home/itssahil/PROJECTS/Mol_Feturizer/New_Systems/rnas/3DIZ

>  <Rbt.Executable>
rbdock ($Id: //depot/dev/client3/rdock/2013.1/src/exe/rbdock.cxx#4 $)

>  <Rbt.Library>
libRbt.so (2013.1, Build901 2013/11/27)

>  <Rbt.Parameter_File>
/export/apps/rDock/src/rDock_2013.1_src/data/scripts/dock_solv.prm

>  <Rbt.Receptor>
prm/blind_docking_40.prm

>  <SCORE>
-7.7863

>  <SCORE.INTER>
-6.20424

>  <SCORE.INTER.CONST>
1

>  <SCORE.INTER.POLAR>
0

>  <SCORE.INTER.ROT>
5

>  <SCORE.INTER.SOLV>
6.05117

>  <SCORE.INTER.VDW>
-13.0866

>  <SCORE.INTER.norm>
-0.620424

>  <SCORE.INTRA>
-1.58206

>  <SCORE.INTRA.DIHEDRAL>
-1.99392

>  <SCORE.INTRA.DIHEDRAL.0>
3.67053

>  <SCORE.INTRA.POLAR>
0

>  <SCORE.INTRA.POLAR.0>
0

>  <SCORE.INTRA.REPUL>
0

>  <SCORE.INTRA.REPUL.0>
0

>  <SCORE.INTRA.SOLV>
-0.92269

>  <SCORE.INTRA.SOLV.lig_0>
-32.0553

>  <SCORE.INTRA.VDW>
-0.123751

>  <SCORE.INTRA.VDW.0>
-0.571921

>  <SCORE.INTRA.norm>
-0.158206

>  <SCORE.RESTR>
0

>  <SCORE.RESTR.CAVITY>
0

>  <SCORE.RESTR.norm>
0

>  <SCORE.SYSTEM>
0

>  <SCORE.SYSTEM.CONST>
0

>  <SCORE.SYSTEM.DIHEDRAL>
0

>  <SCORE.SYSTEM.SOLV>
0

>  <SCORE.SYSTEM.norm>
0

>  <SCORE.heavy>
10

>  <SCORE.norm>
-0.77863

>  <RMSD>
11.410

$$$$
ligand
 OpenBabel11021811473D
libRbt.so/2013.1/901 2013/11/27
 10  9  0  0  0  0  0  0  0  0999 V2000
   26.6674   13.9154    8.7381 N   0  0  0  0  0  0  0  0  0  0  0  0
   26.5829   14.8553    9.8960 C   0  0  2  0  0  0  0  0  0  0  0  0
   27.9641   15.2900   10.3677 C   0  0  0  0  0  0  0  0  0  0  0  0
   28.3850   16.4217   10.1542 O   0  0  0  0  0  0  0  0  0  0  0  0
   25.7821   14.2377   11.0452 C   0  0  0  0  0  0  0  0  0  0  0  0
   24.3120   14.0306   10.7237 C   0  0  0  0  0  0  0  0  0  0  0  0
   23.5447   13.4888   11.9234 C   0  0  0  0  0  0  0  0  0  0  0  0
   22.0642   13.3650   11.6029 C   0  0  0  0  0  0  0  0  0  0  0  0
   21.2546   12.8728   12.7739 N   0  0  0  0  0  0  0  0  0  0  0  0
   28.6997   14.5463   11.0024 O   0  0  0  0  0  0  0  0  0  0  0  0
  2  1  1  6  0  0  0
  2  3  1  0  0  0  0
  2  5  1  0  0  0  0
  3  4  1  0  0  0  0
  3 10  1  0  0  0  0
  5  6  1  0  0  0  0
  6  7  1  0  0  0  0
  7  8  1  0  0  0  0
  8  9  1  0  0  0  0
M  END
>  <CHROM.1>
107.17803653,-66.64392740,-176.75864064,176.76933474,-178.21451549,25.56807340
14.31758726,10.82905036,0.23716485,-0.37253448,-1.72929716

>  <Name>
ligand

>  <RI>
0

>  <Rbt.Current_Directory>
/home/itssahil/PROJECTS/Mol_Feturizer/New_Systems/rnas/3DIZ

>  <Rbt.Executable>
rbdock ($Id: //depot/dev/client3/rdock/2013.1/src/exe/rbdock.cxx#4 $)

>  <Rbt.Library>
libRbt.so (2013.1, Build901 2013/11/27)

>  <Rbt.Parameter_File>
/export/apps/rDock/src/rDock_2013.1_src/data/scripts/dock_solv.prm

>  <Rbt.Receptor>
prm/blind_docking_40.prm

>  <SCORE>
-7.74404

>  <SCORE.INTER>
-6.19904

>  <SCORE.INTER.CONST>
1

>  <SCORE.INTER.POLAR>
0

>  <SCORE.INTER.ROT>
5

>  <SCORE.INTER.SOLV>
6.1071

>  <SCORE.INTER.VDW>
-13.1017

>  <SCORE.INTER.norm>
-0.619904

>  <SCORE.INTRA>
-1.54511

>  <SCORE.INTRA.DIHEDRAL>
-1.83938

>  <SCORE.INTRA.DIHEDRAL.0>
3.67053

>  <SCORE.INTRA.POLAR>
0

>  <SCORE.INTRA.POLAR.0>
0

>  <SCORE.INTRA.REPUL>
0

>  <SCORE.INTRA.REPUL.0>
0

>  <SCORE.INTRA.SOLV>
-0.940652

>  <SCORE.INTRA.SOLV.lig_0>
-32.0553

>  <SCORE.INTRA.VDW>
-0.155095

>  <SCORE.INTRA.VDW.0>
-0.571921

>  <SCORE.INTRA.norm>
-0.154511

>  <SCORE.RESTR>
0.000108101

>  <SCORE.RESTR.CAVITY>
0.000108101

>  <SCORE.RESTR.norm>
1.08101e-05

>  <SCORE.SYSTEM>
0

>  <SCORE.SYSTEM.CONST>
0

>  <SCORE.SYSTEM.DIHEDRAL>
0

>  <SCORE.SYSTEM.SOLV>
0

>  <SCORE.SYSTEM.norm>
0

>  <SCORE.heavy>
10

>  <SCORE.norm>
-0.774404

>  <RMSD>
11.413

$$$$
ligand
 OpenBabel11021811473D
libRbt.so/2013.1/901 2013/11/27
 10  9  0  0  0  0  0  0  0  0999 V2000
   26.6541   13.9107    8.7584 N   0  0  0  0  0  0  0  0  0  0  0  0
   26.5638   14.8667    9.9027 C   0  0  2  0  0  0  0  0  0  0  0  0
   27.9423   15.3169   10.3676 C   0  0  0  0  0  0  0  0  0  0  0  0
   28.6991   14.5524   10.9560 O   0  0  0  0  0  0  0  0  0  0  0  0
   25.7673   14.2607   11.0609 C   0  0  0  0  0  0  0  0  0  0  0  0
   24.3024   14.0227   10.7369 C   0  0  0  0  0  0  0  0  0  0  0  0
   23.5343   13.5094   11.9485 C   0  0  0  0  0  0  0  0  0  0  0  0
   22.0632   13.3258   11.6138 C   0  0  0  0  0  0  0  0  0  0  0  0
   21.2547   12.8443   12.7899 N   0  0  0  0  0  0  0  0  0  0  0  0
   28.3669   16.4438   10.1513 O   0  0  0  0  0  0  0  0  0  0  0  0
  2  1  1  6  0  0  0
  2  3  1  0  0  0  0
  2  5  1  0  0  0  0
  3  4  1  0  0  0  0
  3 10  1  0  0  0  0
  5  6  1  0  0  0  0
  6  7  1  0  0  0  0
  7  8  1  0  0  0  0
  8  9  1  0  0  0  0
M  END
>  <CHROM.1>
-70.82349865,-65.88686528,-176.09861105,178.00040660,-178.87780996,25.55745209
14.32049200,10.83412928,0.22987100,-0.38465244,-1.75565377

>  <Name>
ligand

>  <RI>
0

>  <Rbt.Current_Directory>
/home/itssahil/PROJECTS/Mol_Feturizer/New_Systems/rnas/3DIZ

>  <Rbt.Executable>
rbdock ($Id: //depot/dev/client3/rdock/2013.1/src/exe/rbdock.cxx#4 $)

>  <Rbt.Library>
libRbt.so (2013.1, Build901 2013/11/27)

>  <Rbt.Parameter_File>
/export/apps/rDock/src/rDock_2013.1_src/data/scripts/dock_solv.prm

>  <Rbt.Receptor>
prm/blind_docking_40.prm

>  <SCORE>
-7.72659

>  <SCORE.INTER>
-6.11103

>  <SCORE.INTER.CONST>
1

>  <SCORE.INTER.POLAR>
0

>  <SCORE.INTER.ROT>
5

>  <SCORE.INTER.SOLV>
6.13339

>  <SCORE.INTER.VDW>
-13.0518

>  <SCORE.INTER.norm>
-0.611103

>  <SCORE.INTRA>
-1.61557

>  <SCORE.INTRA.DIHEDRAL>
-1.97154

>  <SCORE.INTRA.DIHEDRAL.0>
3.67053

>  <SCORE.INTRA.POLAR>
0

>  <SCORE.INTRA.POLAR.0>
0

>  <SCORE.INTRA.REPUL>
0

>  <SCORE.INTRA.REPUL.0>
0

>  <SCORE.INTRA.SOLV>
-0.91671

>  <SCORE.INTRA.SOLV.lig_0>
-32.0553

>  <SCORE.INTRA.VDW>
-0.17144

>  <SCORE.INTRA.VDW.0>
-0.571921

>  <SCORE.INTRA.norm>
-0.161557

>  <SCORE.RESTR>
0

>  <SCORE.RESTR.CAVITY>
0

>  <SCORE.RESTR.norm>
0

>  <SCORE.SYSTEM>
0

>  <SCORE.SYSTEM.CONST>
0

>  <SCORE.SYSTEM.DIHEDRAL>
0

>  <SCORE.SYSTEM.SOLV>
0

>  <SCORE.SYSTEM.norm>
0

>  <SCORE.heavy>
10

>  <SCORE.norm>
-0.772659

>  <RMSD>
11.413

$$$$
ligand
 OpenBabel11021811473D
libRbt.so/2013.1/901 2013/11/27
 10  9  0  0  0  0  0  0  0  0999 V2000
   27.2906   14.2734    8.4596 N   0  0  0  0  0  0  0  0  0  0  0  0
   26.5159   14.6582    9.6774 C   0  0  2  0  0  0  0  0  0  0  0  0
   27.4242   14.8384   10.8864 C   0  0  0  0  0  0  0  0  0  0  0  0
   27.8069   15.9491   11.2378 O   0  0  0  0  0  0  0  0  0  0  0  0
   25.4128   13.6379    9.9697 C   0  0  0  0  0  0  0  0  0  0  0  0
   24.4775   14.0536   11.0921 C   0  0  0  0  0  0  0  0  0  0  0  0
   23.3419   13.0548   11.2771 C   0  0  0  0  0  0  0  0  0  0  0  0
   22.4195   13.4924   12.4031 C   0  0  0  0  0  0  0  0  0  0  0  0
   21.3378   12.4853   12.6936 N   0  0  0  0  0  0  0  0  0  0  0  0
   27.7870   13.8945   11.5752 O   0  0  0  0  0  0  0  0  0  0  0  0
  2  1  1  6  0  0  0
  2  3  1  0  0  0  0
  2  5  1  0  0  0  0
  3  4  1  0  0  0  0
  3 10  1  0  0  0  0
  5  6  1  0  0  0  0
  6  7  1  0  0  0  0
  7  8  1  0  0  0  0
  8  9  1  0  0  0  0
M  END
>  <CHROM.1>
98.20556077,-172.87997609,175.93790958,-179.93186469,-175.74083405,25.41195214
14.04282817,10.95020033,0.25507100,-0.38636414,-1.76422084

>  <Name>
ligand

>  <RI>
0

>  <Rbt.Current_Directory>
/home/itssahil/PROJECTS/Mol_Feturizer/New_Systems/rnas/3DIZ

>  <Rbt.Executable>
rbdock ($Id: //depot/dev/client3/rdock/2013.1/src/exe/rbdock.cxx#4 $)

>  <Rbt.Library>
libRbt.so (2013.1, Build901 2013/11/27)

>  <Rbt.Parameter_File>
/export/apps/rDock/src/rDock_2013.1_src/data/scripts/dock_solv.prm

>  <Rbt.Receptor>
prm/blind_docking_40.prm

>  <SCORE>
-6.40164

>  <SCORE.INTER>
-4.62826

>  <SCORE.INTER.CONST>
1

>  <SCORE.INTER.POLAR>
0

>  <SCORE.INTER.ROT>
5

>  <SCORE.INTER.SOLV>
7.1161

>  <SCORE.INTER.VDW>
-12.3909

>  <SCORE.INTER.norm>
-0.462826

>  <SCORE.INTRA>
-1.77338

>  <SCORE.INTRA.DIHEDRAL>
-1.79133

>  <SCORE.INTRA.DIHEDRAL.0>
3.67053

>  <SCORE.INTRA.POLAR>
0

>  <SCORE.INTRA.POLAR.0>
0

>  <SCORE.INTRA.REPUL>
0

>  <SCORE.INTRA.REPUL.0>
0

>  <SCORE.INTRA.SOLV>
-1.73849

>  <SCORE.INTRA.SOLV.lig_0>
-32.0553

>  <SCORE.INTRA.VDW>
-0.00846731

>  <SCORE.INTRA.VDW.0>
-0.571921

>  <SCORE.INTRA.norm>
-0.177338

>  <SCORE.RESTR>
0

>  <SCORE.RESTR.CAVITY>
0

>  <SCORE.RESTR.norm>
0

>  <SCORE.SYSTEM>
0

>  <SCORE.SYSTEM.CONST>
0

>  <SCORE.SYSTEM.DIHEDRAL>
0

>  <SCORE.SYSTEM.SOLV>
0

>  <SCORE.SYSTEM.norm>
0

>  <SCORE.heavy>
10

>  <SCORE.norm>
-0.640164

>  <RMSD>
11.425

$$$$
ligand
 OpenBabel11021811473D
libRbt.so/2013.1/901 2013/11/27
 10  9  0  0  0  0  0  0  0  0999 V2000
   27.6207   14.4101   11.9563 N   0  0  0  0  0  0  0  0  0  0  0  0
   27.4665   14.4447   10.4709 C   0  0  2  0  0  0  0  0  0  0  0  0
   28.3774   15.4873    9.8365 C   0  0  0  0  0  0  0  0  0  0  0  0
   29.1814   15.1853    8.9614 O   0  0  0  0  0  0  0  0  0  0  0  0
   26.0065   14.6824   10.0774 C   0  0  0  0  0  0  0  0  0  0  0  0
   25.0318   13.7202   10.7346 C   0  0  0  0  0  0  0  0  0  0  0  0
   23.5883   14.1762   10.5618 C   0  0  0  0  0  0  0  0  0  0  0  0
   22.6532   13.3341   11.4141 C   0  0  0  0  0  0  0  0  0  0  0  0
   21.2417   13.8598   11.4222 N   0  0  0  0  0  0  0  0  0  0  0  0
   28.3288   16.6699   10.1465 O   0  0  0  0  0  0  0  0  0  0  0  0
  2  1  1  1  0  0  0
  2  3  1  0  0  0  0
  2  5  1  0  0  0  0
  3  4  1  0  0  0  0
  3 10  1  0  0  0  0
  5  6  1  0  0  0  0
  6  7  1  0  0  0  0
  7  8  1  0  0  0  0
  8  9  1  0  0  0  0
M  END
>  <CHROM.1>
124.05322499,-52.31844508,167.53553843,-170.64415253,172.32789802,25.98299390
14.62269873,10.54069680,-0.32822887,0.11727395,2.17751486

>  <Name>
ligand

>  <RI>
0

>  <Rbt.Current_Directory>
/home/itssahil/PROJECTS/Mol_Feturizer/New_Systems/rnas/3DIZ

>  <Rbt.Executable>
rbdock ($Id: //depot/dev/client3/rdock/2013.1/src/exe/rbdock.cxx#4 $)

>  <Rbt.Library>
libRbt.so (2013.1, Build901 2013/11/27)

>  <Rbt.Parameter_File>
/export/apps/rDock/src/rDock_2013.1_src/data/scripts/dock_solv.prm

>  <Rbt.Receptor>
prm/blind_docking_100.prm

>  <SCORE>
-5.79388

>  <SCORE.INTER>
-4.91959

>  <SCORE.INTER.CONST>
1

>  <SCORE.INTER.POLAR>
0

>  <SCORE.INTER.ROT>
5

>  <SCORE.INTER.SOLV>
11.2811

>  <SCORE.INTER.VDW>
-13.9734

>  <SCORE.INTER.norm>
-0.491959

>  <SCORE.INTRA>
-0.874286

>  <SCORE.INTRA.DIHEDRAL>
-0.75529

>  <SCORE.INTRA.DIHEDRAL.0>
3.67053

>  <SCORE.INTRA.POLAR>
0

>  <SCORE.INTRA.POLAR.0>
0

>  <SCORE.INTRA.REPUL>
0

>  <SCORE.INTRA.REPUL.0>
0

>  <SCORE.INTRA.SOLV>
-0.666394

>  <SCORE.INTRA.SOLV.lig_0>
-32.0553

>  <SCORE.INTRA.VDW>
-0.163444

>  <SCORE.INTRA.VDW.0>
-0.571921

>  <SCORE.INTRA.norm>
-0.0874286

>  <SCORE.RESTR>
0

>  <SCORE.RESTR.CAVITY>
0

>  <SCORE.RESTR.norm>
0

>  <SCORE.SYSTEM>
0

>  <SCORE.SYSTEM.CONST>
0

>  <SCORE.SYSTEM.DIHEDRAL>
0

>  <SCORE.SYSTEM.SOLV>
0

>  <SCORE.SYSTEM.norm>
0

>  <SCORE.heavy>
10

>  <SCORE.norm>
-0.579388

>  <RMSD>
11.453

$$$$
ligand
 OpenBabel11021811473D
libRbt.so/2013.1/901 2013/11/27
 10  9  0  0  0  0  0  0  0  0999 V2000
   26.7797   14.0791    8.4670 N   0  0  0  0  0  0  0  0  0  0  0  0
   26.6635   15.0332    9.6106 C   0  0  2  0  0  0  0  0  0  0  0  0
   28.0256   15.5593   10.0428 C   0  0  0  0  0  0  0  0  0  0  0  0
   28.1290   16.4884   10.8364 O   0  0  0  0  0  0  0  0  0  0  0  0
   25.9274   14.3892   10.7882 C   0  0  0  0  0  0  0  0  0  0  0  0
   24.4629   14.0985   10.5084 C   0  0  0  0  0  0  0  0  0  0  0  0
   23.7405   13.5998   11.7537 C   0  0  0  0  0  0  0  0  0  0  0  0
   22.2702   13.3520   11.4589 C   0  0  0  0  0  0  0  0  0  0  0  0
   21.5167   12.8319   12.6549 N   0  0  0  0  0  0  0  0  0  0  0  0
   29.0715   15.0643    9.6451 O   0  0  0  0  0  0  0  0  0  0  0  0
  2  1  1  6  0  0  0
  2  3  1  0  0  0  0
  2  5  1  0  0  0  0
  3  4  1  0  0  0  0
  3 10  1  0  0  0  0
  5  6  1  0  0  0  0
  6  7  1  0  0  0  0
  7  8  1  0  0  0  0
  8  9  1  0  0  0  0
M  END
>  <CHROM.1>
169.73407525,-67.14147739,-173.85763031,178.46509626,178.92140873,25.70038737
14.46692309,10.58171735,0.12436382,-0.46648212,-2.05939095

>  <Name>
ligand

>  <RI>
0

>  <Rbt.Current_Directory>
/home/itssahil/PROJECTS/Mol_Feturizer/New_Systems/rnas/3DIZ

>  <Rbt.Executable>
rbdock ($Id: //depot/dev/client3/rdock/2013.1/src/exe/rbdock.cxx#4 $)

>  <Rbt.Library>
libRbt.so (2013.1, Build901 2013/11/27)

>  <Rbt.Parameter_File>
/export/apps/rDock/src/rDock_2013.1_src/data/scripts/dock_solv.prm

>  <Rbt.Receptor>
prm/blind_docking_60.prm

>  <SCORE>
-7.90041

>  <SCORE.INTER>
-6.33551

>  <SCORE.INTER.CONST>
1

>  <SCORE.INTER.POLAR>
0

>  <SCORE.INTER.ROT>
5

>  <SCORE.INTER.SOLV>
6.13611

>  <SCORE.INTER.VDW>
-13.2024

>  <SCORE.INTER.norm>
-0.633551

>  <SCORE.INTRA>
-1.5649

>  <SCORE.INTRA.DIHEDRAL>
-1.81814

>  <SCORE.INTRA.DIHEDRAL.0>
3.67053

>  <SCORE.INTRA.POLAR>
0

>  <SCORE.INTRA.POLAR.0>
0

>  <SCORE.INTRA.REPUL>
0

>  <SCORE.INTRA.REPUL.0>
0

>  <SCORE.INTRA.SOLV>
-0.932237

>  <SCORE.INTRA.SOLV.lig_0>
-32.0553

>  <SCORE.INTRA.VDW>
-0.18971

>  <SCORE.INTRA.VDW.0>
-0.571921

>  <SCORE.INTRA.norm>
-0.15649

>  <SCORE.RESTR>
0

>  <SCORE.RESTR.CAVITY>
0

>  <SCORE.RESTR.norm>
0

>  <SCORE.SYSTEM>
0

>  <SCORE.SYSTEM.CONST>
0

>  <SCORE.SYSTEM.DIHEDRAL>
0

>  <SCORE.SYSTEM.SOLV>
0

>  <SCORE.SYSTEM.norm>
0

>  <SCORE.heavy>
10

>  <SCORE.norm>
-0.790041

>  <RMSD>
11.543

$$$$
ligand
 OpenBabel11021811473D
libRbt.so/2013.1/901 2013/11/27
 10  9  0  0  0  0  0  0  0  0999 V2000
   27.3377   14.5045   11.9147 N   0  0  0  0  0  0  0  0  0  0  0  0
   27.2517   14.4146   10.4260 C   0  0  2  0  0  0  0  0  0  0  0  0
   28.2299   15.3655    9.7493 C   0  0  0  0  0  0  0  0  0  0  0  0
   28.3216   16.5389   10.0933 O   0  0  0  0  0  0  0  0  0  0  0  0
   25.8211   14.6677    9.9439 C   0  0  0  0  0  0  0  0  0  0  0  0
   24.7797   13.8115   10.6438 C   0  0  0  0  0  0  0  0  0  0  0  0
   23.3701   14.1371   10.1659 C   0  0  0  0  0  0  0  0  0  0  0  0
   22.3409   13.3267   10.9365 C   0  0  0  0  0  0  0  0  0  0  0  0
   22.2968   13.6827   12.3994 N   0  0  0  0  0  0  0  0  0  0  0  0
   28.9845   14.9989    8.8587 O   0  0  0  0  0  0  0  0  0  0  0  0
  2  1  1  1  0  0  0
  2  3  1  0  0  0  0
  2  5  1  0  0  0  0
  3  4  1  0  0  0  0
  3 10  1  0  0  0  0
  5  6  1  0  0  0  0
  6  7  1  0  0  0  0
  7  8  1  0  0  0  0
  8  9  1  0  0  0  0
M  END
>  <CHROM.1>
-47.77200715,-51.71149951,177.90355752,-176.71673870,65.07628695,25.90793234
14.56836516,10.49522313,-0.25652888,0.29820366,1.60001602

>  <Name>
ligand

>  <RI>
0

>  <Rbt.Current_Directory>
/home/itssahil/PROJECTS/Mol_Feturizer/New_Systems/rnas/3DIZ

>  <Rbt.Executable>
rbdock ($Id: //depot/dev/client3/rdock/2013.1/src/exe/rbdock.cxx#4 $)

>  <Rbt.Library>
libRbt.so (2013.1, Build901 2013/11/27)

>  <Rbt.Parameter_File>
/export/apps/rDock/src/rDock_2013.1_src/data/scripts/dock_solv.prm

>  <Rbt.Receptor>
prm/blind_docking_40.prm

>  <SCORE>
-5.61619

>  <SCORE.INTER>
-4.79067

>  <SCORE.INTER.CONST>
1

>  <SCORE.INTER.POLAR>
0

>  <SCORE.INTER.ROT>
5

>  <SCORE.INTER.SOLV>
11.0488

>  <SCORE.INTER.VDW>
-13.81

>  <SCORE.INTER.norm>
-0.479067

>  <SCORE.INTRA>
-0.825511

>  <SCORE.INTRA.DIHEDRAL>
-1.72677

>  <SCORE.INTRA.DIHEDRAL.0>
3.67053

>  <SCORE.INTRA.POLAR>
0

>  <SCORE.INTRA.POLAR.0>
0

>  <SCORE.INTRA.REPUL>
0

>  <SCORE.INTRA.REPUL.0>
0

>  <SCORE.INTRA.SOLV>
0.22428

>  <SCORE.INTRA.SOLV.lig_0>
-32.0553

>  <SCORE.INTRA.VDW>
-0.074268

>  <SCORE.INTRA.VDW.0>
-0.571921

>  <SCORE.INTRA.norm>
-0.0825511

>  <SCORE.RESTR>
0

>  <SCORE.RESTR.CAVITY>
0

>  <SCORE.RESTR.norm>
0

>  <SCORE.SYSTEM>
0

>  <SCORE.SYSTEM.CONST>
0

>  <SCORE.SYSTEM.DIHEDRAL>
0

>  <SCORE.SYSTEM.SOLV>
0

>  <SCORE.SYSTEM.norm>
0

>  <SCORE.heavy>
10

>  <SCORE.norm>
-0.561619

>  <RMSD>
11.548

$$$$
ligand
 OpenBabel11021811473D
libRbt.so/2013.1/901 2013/11/27
 10  9  0  0  0  0  0  0  0  0999 V2000
   26.7493   14.1609    8.4343 N   0  0  0  0  0  0  0  0  0  0  0  0
   26.6519   15.0760    9.6110 C   0  0  2  0  0  0  0  0  0  0  0  0
   28.0217   15.5821   10.0429 C   0  0  0  0  0  0  0  0  0  0  0  0
   29.0519   15.1383    9.5475 O   0  0  0  0  0  0  0  0  0  0  0  0
   25.9286   14.3951   10.7756 C   0  0  0  0  0  0  0  0  0  0  0  0
   24.4623   14.1088   10.5009 C   0  0  0  0  0  0  0  0  0  0  0  0
   23.7453   13.6013   11.7459 C   0  0  0  0  0  0  0  0  0  0  0  0
   22.2746   13.3520   11.4548 C   0  0  0  0  0  0  0  0  0  0  0  0
   21.5283   12.8150   12.6480 N   0  0  0  0  0  0  0  0  0  0  0  0
   28.1560   16.4686   10.8755 O   0  0  0  0  0  0  0  0  0  0  0  0
  2  1  1  6  0  0  0
  2  3  1  0  0  0  0
  2  5  1  0  0  0  0
  3  4  1  0  0  0  0
  3 10  1  0  0  0  0
  5  6  1  0  0  0  0
  6  7  1  0  0  0  0
  7  8  1  0  0  0  0
  8  9  1  0  0  0  0
M  END
>  <CHROM.1>
-7.65687755,-66.64783621,-172.55493866,178.72242421,178.55501852,25.69893144
14.48716694,10.56804183,0.14338820,-0.46869125,-2.01637588

>  <Name>
ligand

>  <RI>
0

>  <Rbt.Current_Directory>
/home/itssahil/PROJECTS/Mol_Feturizer/New_Systems/rnas/3DIZ

>  <Rbt.Executable>
rbdock ($Id: //depot/dev/client3/rdock/2013.1/src/exe/rbdock.cxx#4 $)

>  <Rbt.Library>
libRbt.so (2013.1, Build901 2013/11/27)

>  <Rbt.Parameter_File>
/export/apps/rDock/src/rDock_2013.1_src/data/scripts/dock_solv.prm

>  <Rbt.Receptor>
prm/blind_docking_60.prm

>  <SCORE>
-7.90669

>  <SCORE.INTER>
-6.4225

>  <SCORE.INTER.CONST>
1

>  <SCORE.INTER.POLAR>
0

>  <SCORE.INTER.ROT>
5

>  <SCORE.INTER.SOLV>
6.10592

>  <SCORE.INTER.VDW>
-13.2503

>  <SCORE.INTER.norm>
-0.64225

>  <SCORE.INTRA>
-1.4842

>  <SCORE.INTRA.DIHEDRAL>
-1.70808

>  <SCORE.INTRA.DIHEDRAL.0>
3.67053

>  <SCORE.INTRA.POLAR>
0

>  <SCORE.INTRA.POLAR.0>
0

>  <SCORE.INTRA.REPUL>
0

>  <SCORE.INTRA.REPUL.0>
0

>  <SCORE.INTRA.SOLV>
-0.921251

>  <SCORE.INTRA.SOLV.lig_0>
-32.0553

>  <SCORE.INTRA.VDW>
-0.16953

>  <SCORE.INTRA.VDW.0>
-0.571921

>  <SCORE.INTRA.norm>
-0.14842

>  <SCORE.RESTR>
0

>  <SCORE.RESTR.CAVITY>
0

>  <SCORE.RESTR.norm>
0

>  <SCORE.SYSTEM>
0

>  <SCORE.SYSTEM.CONST>
0

>  <SCORE.SYSTEM.DIHEDRAL>
0

>  <SCORE.SYSTEM.SOLV>
0

>  <SCORE.SYSTEM.norm>
0

>  <SCORE.heavy>
10

>  <SCORE.norm>
-0.790669

>  <RMSD>
11.552

$$$$
ligand
 OpenBabel11021811473D
libRbt.so/2013.1/901 2013/11/27
 10  9  0  0  0  0  0  0  0  0999 V2000
   26.7286   14.1058    8.4496 N   0  0  0  0  0  0  0  0  0  0  0  0
   26.6261   15.0419    9.6092 C   0  0  2  0  0  0  0  0  0  0  0  0
   27.9937   15.5589   10.0352 C   0  0  0  0  0  0  0  0  0  0  0  0
   28.1073   16.4684   10.8497 O   0  0  0  0  0  0  0  0  0  0  0  0
   25.9014   14.3807   10.7843 C   0  0  0  0  0  0  0  0  0  0  0  0
   24.4306   14.1079   10.5199 C   0  0  0  0  0  0  0  0  0  0  0  0
   23.7251   13.5758   11.7611 C   0  0  0  0  0  0  0  0  0  0  0  0
   22.2510   13.3353   11.4797 C   0  0  0  0  0  0  0  0  0  0  0  0
   21.5043   12.8262   12.6847 N   0  0  0  0  0  0  0  0  0  0  0  0
   29.0343   15.0749    9.6111 O   0  0  0  0  0  0  0  0  0  0  0  0
  2  1  1  6  0  0  0
  2  3  1  0  0  0  0
  2  5  1  0  0  0  0
  3  4  1  0  0  0  0
  3 10  1  0  0  0  0
  5  6  1  0  0  0  0
  6  7  1  0  0  0  0
  7  8  1  0  0  0  0
  8  9  1  0  0  0  0
M  END
>  <CHROM.1>
170.28604429,-67.64356850,-174.48683662,178.93778497,-179.18800171,25.67201407
14.46474435,10.58340444,0.13850477,-0.46872086,-2.03654449

>  <Name>
ligand

>  <RI>
0

>  <Rbt.Current_Directory>
/home/itssahil/PROJECTS/Mol_Feturizer/New_Systems/rnas/3DIZ

>  <Rbt.Executable>
rbdock ($Id: //depot/dev/client3/rdock/2013.1/src/exe/rbdock.cxx#4 $)

>  <Rbt.Library>
libRbt.so (2013.1, Build901 2013/11/27)

>  <Rbt.Parameter_File>
/export/apps/rDock/src/rDock_2013.1_src/data/scripts/dock_solv.prm

>  <Rbt.Receptor>
prm/blind_docking_80.prm

>  <SCORE>
-7.8975

>  <SCORE.INTER>
-6.329

>  <SCORE.INTER.CONST>
1

>  <SCORE.INTER.POLAR>
0

>  <SCORE.INTER.ROT>
5

>  <SCORE.INTER.SOLV>
6.04393

>  <SCORE.INTER.VDW>
-13.1673

>  <SCORE.INTER.norm>
-0.6329

>  <SCORE.INTRA>
-1.56905

>  <SCORE.INTRA.DIHEDRAL>
-1.8244

>  <SCORE.INTRA.DIHEDRAL.0>
3.67053

>  <SCORE.INTRA.POLAR>
0

>  <SCORE.INTRA.POLAR.0>
0

>  <SCORE.INTRA.REPUL>
0

>  <SCORE.INTRA.REPUL.0>
0

>  <SCORE.INTRA.SOLV>
-0.936199

>  <SCORE.INTRA.SOLV.lig_0>
-32.0553

>  <SCORE.INTRA.VDW>
-0.18875

>  <SCORE.INTRA.VDW.0>
-0.571921

>  <SCORE.INTRA.norm>
-0.156905

>  <SCORE.RESTR>
0.000542263

>  <SCORE.RESTR.CAVITY>
0.000542263

>  <SCORE.RESTR.norm>
5.42263e-05

>  <SCORE.SYSTEM>
0

>  <SCORE.SYSTEM.CONST>
0

>  <SCORE.SYSTEM.DIHEDRAL>
0

>  <SCORE.SYSTEM.SOLV>
0

>  <SCORE.SYSTEM.norm>
0

>  <SCORE.heavy>
10

>  <SCORE.norm>
-0.78975

>  <RMSD>
11.555

$$$$
ligand
 OpenBabel11021811473D
libRbt.so/2013.1/901 2013/11/27
 10  9  0  0  0  0  0  0  0  0999 V2000
   26.7424   14.0191    8.4836 N   0  0  0  0  0  0  0  0  0  0  0  0
   26.6157   14.9906    9.6113 C   0  0  2  0  0  0  0  0  0  0  0  0
   27.9726   15.5343   10.0383 C   0  0  0  0  0  0  0  0  0  0  0  0
   28.0668   16.4704   10.8247 O   0  0  0  0  0  0  0  0  0  0  0  0
   25.8817   14.3600   10.7973 C   0  0  0  0  0  0  0  0  0  0  0  0
   24.4150   14.0728   10.5258 C   0  0  0  0  0  0  0  0  0  0  0  0
   23.6926   13.5994   11.7810 C   0  0  0  0  0  0  0  0  0  0  0  0
   22.2301   13.3122   11.4832 C   0  0  0  0  0  0  0  0  0  0  0  0
   21.4827   12.7947   12.6841 N   0  0  0  0  0  0  0  0  0  0  0  0
   29.0233   15.0474    9.6434 O   0  0  0  0  0  0  0  0  0  0  0  0
  2  1  1  6  0  0  0
  2  3  1  0  0  0  0
  2  5  1  0  0  0  0
  3  4  1  0  0  0  0
  3 10  1  0  0  0  0
  5  6  1  0  0  0  0
  6  7  1  0  0  0  0
  7  8  1  0  0  0  0
  8  9  1  0  0  0  0
M  END
>  <CHROM.1>
170.28826587,-68.01844320,-173.36562603,-179.72117158,178.01299577,25.65383722
14.43781127,10.59221252,0.12093453,-0.47130336,-2.07589436

>  <Name>
ligand

>  <RI>
0

>  <Rbt.Current_Directory>
/home/itssahil/PROJECTS/Mol_Feturizer/New_Systems/rnas/3DIZ

>  <Rbt.Executable>
rbdock ($Id: //depot/dev/client3/rdock/2013.1/src/exe/rbdock.cxx#4 $)

>  <Rbt.Library>
libRbt.so (2013.1, Build901 2013/11/27)

>  <Rbt.Parameter_File>
/export/apps/rDock/src/rDock_2013.1_src/data/scripts/dock_solv.prm

>  <Rbt.Receptor>
prm/blind_docking_40.prm

>  <SCORE>
-7.87856

>  <SCORE.INTER>
-6.34596

>  <SCORE.INTER.CONST>
1

>  <SCORE.INTER.POLAR>
0

>  <SCORE.INTER.ROT>
5

>  <SCORE.INTER.SOLV>
6.0394

>  <SCORE.INTER.VDW>
-13.1771

>  <SCORE.INTER.norm>
-0.634596

>  <SCORE.INTRA>
-1.5326

>  <SCORE.INTRA.DIHEDRAL>
-1.73691

>  <SCORE.INTRA.DIHEDRAL.0>
3.67053

>  <SCORE.INTRA.POLAR>
0

>  <SCORE.INTRA.POLAR.0>
0

>  <SCORE.INTRA.REPUL>
0

>  <SCORE.INTRA.REPUL.0>
0

>  <SCORE.INTRA.SOLV>
-0.945672

>  <SCORE.INTRA.SOLV.lig_0>
-32.0553

>  <SCORE.INTRA.VDW>
-0.191314

>  <SCORE.INTRA.VDW.0>
-0.571921

>  <SCORE.INTRA.norm>
-0.15326

>  <SCORE.RESTR>
0

>  <SCORE.RESTR.CAVITY>
0

>  <SCORE.RESTR.norm>
0

>  <SCORE.SYSTEM>
0

>  <SCORE.SYSTEM.CONST>
0

>  <SCORE.SYSTEM.DIHEDRAL>
0

>  <SCORE.SYSTEM.SOLV>
0

>  <SCORE.SYSTEM.norm>
0

>  <SCORE.heavy>
10

>  <SCORE.norm>
-0.787856

>  <RMSD>
11.559

$$$$
ligand
 OpenBabel11021811473D
libRbt.so/2013.1/901 2013/11/27
 10  9  0  0  0  0  0  0  0  0999 V2000
   26.7533   13.9843    8.5110 N   0  0  0  0  0  0  0  0  0  0  0  0
   26.6191   14.9771    9.6191 C   0  0  2  0  0  0  0  0  0  0  0  0
   27.9726   15.5329   10.0411 C   0  0  0  0  0  0  0  0  0  0  0  0
   29.0094   15.1738    9.4938 O   0  0  0  0  0  0  0  0  0  0  0  0
   25.8819   14.3674   10.8141 C   0  0  0  0  0  0  0  0  0  0  0  0
   24.4298   14.0259   10.5270 C   0  0  0  0  0  0  0  0  0  0  0  0
   23.6972   13.5799   11.7863 C   0  0  0  0  0  0  0  0  0  0  0  0
   22.2564   13.2148   11.4688 C   0  0  0  0  0  0  0  0  0  0  0  0
   21.4930   12.7511   12.6817 N   0  0  0  0  0  0  0  0  0  0  0  0
   28.0849   16.3787   10.9181 O   0  0  0  0  0  0  0  0  0  0  0  0
  2  1  1  6  0  0  0
  2  3  1  0  0  0  0
  2  5  1  0  0  0  0
  3  4  1  0  0  0  0
  3 10  1  0  0  0  0
  5  6  1  0  0  0  0
  6  7  1  0  0  0  0
  7  8  1  0  0  0  0
  8  9  1  0  0  0  0
M  END
>  <CHROM.1>
0.33841927,-66.00401066,-173.20477686,-178.75583090,179.32893853,25.66127972
14.41707823,10.59014850,0.12783985,-0.47873035,-2.05547059

>  <Name>
ligand

>  <RI>
0

>  <Rbt.Current_Directory>
/home/itssahil/PROJECTS/Mol_Feturizer/New_Systems/rnas/3DIZ

>  <Rbt.Executable>
rbdock ($Id: //depot/dev/client3/rdock/2013.1/src/exe/rbdock.cxx#4 $)

>  <Rbt.Library>
libRbt.so (2013.1, Build901 2013/11/27)

>  <Rbt.Parameter_File>
/export/apps/rDock/src/rDock_2013.1_src/data/scripts/dock_solv.prm

>  <Rbt.Receptor>
prm/blind_docking_40.prm

>  <SCORE>
-7.8297

>  <SCORE.INTER>
-6.37428

>  <SCORE.INTER.CONST>
1

>  <SCORE.INTER.POLAR>
0

>  <SCORE.INTER.ROT>
5

>  <SCORE.INTER.SOLV>
6.13042

>  <SCORE.INTER.VDW>
-13.2263

>  <SCORE.INTER.norm>
-0.637428

>  <SCORE.INTRA>
-1.45542

>  <SCORE.INTRA.DIHEDRAL>
-1.81011

>  <SCORE.INTRA.DIHEDRAL.0>
3.67053

>  <SCORE.INTRA.POLAR>
0

>  <SCORE.INTRA.POLAR.0>
0

>  <SCORE.INTRA.REPUL>
0

>  <SCORE.INTRA.REPUL.0>
0

>  <SCORE.INTRA.SOLV>
-0.910638

>  <SCORE.INTRA.SOLV.lig_0>
-32.0553

>  <SCORE.INTRA.VDW>
-0.0950411

>  <SCORE.INTRA.VDW.0>
-0.571921

>  <SCORE.INTRA.norm>
-0.145542

>  <SCORE.RESTR>
0

>  <SCORE.RESTR.CAVITY>
0

>  <SCORE.RESTR.norm>
0

>  <SCORE.SYSTEM>
0

>  <SCORE.SYSTEM.CONST>
0

>  <SCORE.SYSTEM.DIHEDRAL>
0

>  <SCORE.SYSTEM.SOLV>
0

>  <SCORE.SYSTEM.norm>
0

>  <SCORE.heavy>
10

>  <SCORE.norm>
-0.78297

>  <RMSD>
11.559

$$$$
ligand
 OpenBabel11021811473D
libRbt.so/2013.1/901 2013/11/27
 10  9  0  0  0  0  0  0  0  0999 V2000
   26.7318   14.0645    8.4682 N   0  0  0  0  0  0  0  0  0  0  0  0
   26.6115   15.0187    9.6113 C   0  0  2  0  0  0  0  0  0  0  0  0
   27.9701   15.5604   10.0352 C   0  0  0  0  0  0  0  0  0  0  0  0
   29.0050   15.1806    9.4981 O   0  0  0  0  0  0  0  0  0  0  0  0
   25.8892   14.3682   10.7938 C   0  0  0  0  0  0  0  0  0  0  0  0
   24.4364   14.0272   10.5101 C   0  0  0  0  0  0  0  0  0  0  0  0
   23.7093   13.5713   11.7691 C   0  0  0  0  0  0  0  0  0  0  0  0
   22.2624   13.2249   11.4583 C   0  0  0  0  0  0  0  0  0  0  0  0
   21.5002   12.7661   12.6737 N   0  0  0  0  0  0  0  0  0  0  0  0
   28.0891   16.4144   10.9033 O   0  0  0  0  0  0  0  0  0  0  0  0
  2  1  1  6  0  0  0
  2  3  1  0  0  0  0
  2  5  1  0  0  0  0
  3  4  1  0  0  0  0
  3 10  1  0  0  0  0
  5  6  1  0  0  0  0
  6  7  1  0  0  0  0
  7  8  1  0  0  0  0
  8  9  1  0  0  0  0
M  END
>  <CHROM.1>
-2.59016767,-65.59767683,-171.78609930,-179.52183188,179.93092261,25.66210948
14.43785796,10.57627324,0.13533114,-0.48010087,-2.03481129

>  <Name>
ligand

>  <RI>
0

>  <Rbt.Current_Directory>
/home/itssahil/PROJECTS/Mol_Feturizer/New_Systems/rnas/3DIZ

>  <Rbt.Executable>
rbdock ($Id: //depot/dev/client3/rdock/2013.1/src/exe/rbdock.cxx#4 $)

>  <Rbt.Library>
libRbt.so (2013.1, Build901 2013/11/27)

>  <Rbt.Parameter_File>
/export/apps/rDock/src/rDock_2013.1_src/data/scripts/dock_solv.prm

>  <Rbt.Receptor>
prm/blind_docking_40.prm

>  <SCORE>
-7.80417

>  <SCORE.INTER>
-6.3605

>  <SCORE.INTER.CONST>
1

>  <SCORE.INTER.POLAR>
0

>  <SCORE.INTER.ROT>
5

>  <SCORE.INTER.SOLV>
6.11179

>  <SCORE.INTER.VDW>
-13.2109

>  <SCORE.INTER.norm>
-0.63605

>  <SCORE.INTRA>
-1.44366

>  <SCORE.INTRA.DIHEDRAL>
-1.74017

>  <SCORE.INTRA.DIHEDRAL.0>
3.67053

>  <SCORE.INTRA.POLAR>
0

>  <SCORE.INTRA.POLAR.0>
0

>  <SCORE.INTRA.REPUL>
0

>  <SCORE.INTRA.REPUL.0>
0

>  <SCORE.INTRA.SOLV>
-0.9104

>  <SCORE.INTRA.SOLV.lig_0>
-32.0553

>  <SCORE.INTRA.VDW>
-0.118377

>  <SCORE.INTRA.VDW.0>
-0.571921

>  <SCORE.INTRA.norm>
-0.144366

>  <SCORE.RESTR>
0

>  <SCORE.RESTR.CAVITY>
0

>  <SCORE.RESTR.norm>
0

>  <SCORE.SYSTEM>
0

>  <SCORE.SYSTEM.CONST>
0

>  <SCORE.SYSTEM.DIHEDRAL>
0

>  <SCORE.SYSTEM.SOLV>
0

>  <SCORE.SYSTEM.norm>
0

>  <SCORE.heavy>
10

>  <SCORE.norm>
-0.780417

>  <RMSD>
11.568

$$$$
ligand
 OpenBabel11021811473D
libRbt.so/2013.1/901 2013/11/27
 10  9  0  0  0  0  0  0  0  0999 V2000
   26.7018   14.1847    8.3943 N   0  0  0  0  0  0  0  0  0  0  0  0
   26.6187   15.0609    9.6012 C   0  0  2  0  0  0  0  0  0  0  0  0
   27.9941   15.5495   10.0356 C   0  0  0  0  0  0  0  0  0  0  0  0
   29.0129   15.1848    9.4588 O   0  0  0  0  0  0  0  0  0  0  0  0
   25.9053   14.3439   10.7502 C   0  0  0  0  0  0  0  0  0  0  0  0
   24.4213   14.1279   10.5084 C   0  0  0  0  0  0  0  0  0  0  0  0
   23.7278   13.5580   11.7396 C   0  0  0  0  0  0  0  0  0  0  0  0
   22.2397   13.3826   11.4851 C   0  0  0  0  0  0  0  0  0  0  0  0
   21.5130   12.7939   12.6658 N   0  0  0  0  0  0  0  0  0  0  0  0
   28.1431   16.3451   10.9530 O   0  0  0  0  0  0  0  0  0  0  0  0
  2  1  1  6  0  0  0
  2  3  1  0  0  0  0
  2  5  1  0  0  0  0
  3  4  1  0  0  0  0
  3 10  1  0  0  0  0
  5  6  1  0  0  0  0
  6  7  1  0  0  0  0
  7  8  1  0  0  0  0
  8  9  1  0  0  0  0
M  END
>  <CHROM.1>
-2.92805673,-69.34381745,-173.47287534,178.61582664,178.81165579,25.66979838
14.47006946,10.56365759,0.17679291,-0.46024503,-1.95942560

>  <Name>
ligand

>  <RI>
0

>  <Rbt.Current_Directory>
/home/itssahil/PROJECTS/Mol_Feturizer/New_Systems/rnas/3DIZ

>  <Rbt.Executable>
rbdock ($Id: //depot/dev/client3/rdock/2013.1/src/exe/rbdock.cxx#4 $)

>  <Rbt.Library>
libRbt.so (2013.1, Build901 2013/11/27)

>  <Rbt.Parameter_File>
/export/apps/rDock/src/rDock_2013.1_src/data/scripts/dock_solv.prm

>  <Rbt.Receptor>
prm/blind_docking_40.prm

>  <SCORE>
-7.85644

>  <SCORE.INTER>
-6.42741

>  <SCORE.INTER.CONST>
1

>  <SCORE.INTER.POLAR>
0

>  <SCORE.INTER.ROT>
5

>  <SCORE.INTER.SOLV>
6.00403

>  <SCORE.INTER.VDW>
-13.2196

>  <SCORE.INTER.norm>
-0.642741

>  <SCORE.INTRA>
-1.42903

>  <SCORE.INTRA.DIHEDRAL>
-1.60567

>  <SCORE.INTRA.DIHEDRAL.0>
3.67053

>  <SCORE.INTRA.POLAR>
0

>  <SCORE.INTRA.POLAR.0>
0

>  <SCORE.INTRA.REPUL>
0

>  <SCORE.INTRA.REPUL.0>
0

>  <SCORE.INTRA.SOLV>
-0.953997

>  <SCORE.INTRA.SOLV.lig_0>
-32.0553

>  <SCORE.INTRA.VDW>
-0.149196

>  <SCORE.INTRA.VDW.0>
-0.571921

>  <SCORE.INTRA.norm>
-0.142903

>  <SCORE.RESTR>
0

>  <SCORE.RESTR.CAVITY>
0

>  <SCORE.RESTR.norm>
0

>  <SCORE.SYSTEM>
0

>  <SCORE.SYSTEM.CONST>
0

>  <SCORE.SYSTEM.DIHEDRAL>
0

>  <SCORE.SYSTEM.SOLV>
0

>  <SCORE.SYSTEM.norm>
0

>  <SCORE.heavy>
10

>  <SCORE.norm>
-0.785644

>  <RMSD>
11.572

$$$$
ligand
 OpenBabel11021811473D
libRbt.so/2013.1/901 2013/11/27
 10  9  0  0  0  0  0  0  0  0999 V2000
   26.7198   14.1636    8.4054 N   0  0  0  0  0  0  0  0  0  0  0  0
   26.6228   15.0581    9.5978 C   0  0  2  0  0  0  0  0  0  0  0  0
   27.9929   15.5555   10.0389 C   0  0  0  0  0  0  0  0  0  0  0  0
   29.0195   15.1692    9.4907 O   0  0  0  0  0  0  0  0  0  0  0  0
   25.8985   14.3576   10.7502 C   0  0  0  0  0  0  0  0  0  0  0  0
   24.4199   14.1251   10.4914 C   0  0  0  0  0  0  0  0  0  0  0  0
   23.7173   13.5540   11.7169 C   0  0  0  0  0  0  0  0  0  0  0  0
   22.2324   13.3716   11.4487 C   0  0  0  0  0  0  0  0  0  0  0  0
   21.4962   12.7870   12.6255 N   0  0  0  0  0  0  0  0  0  0  0  0
   28.1301   16.3793   10.9330 O   0  0  0  0  0  0  0  0  0  0  0  0
  2  1  1  6  0  0  0
  2  3  1  0  0  0  0
  2  5  1  0  0  0  0
  3  4  1  0  0  0  0
  3 10  1  0  0  0  0
  5  6  1  0  0  0  0
  6  7  1  0  0  0  0
  7  8  1  0  0  0  0
  8  9  1  0  0  0  0
M  END
>  <CHROM.1>
-3.96763567,-68.85998476,-174.32162966,178.19374227,179.05743844,25.66689430
14.46924274,10.55450426,0.15931091,-0.46195814,-1.98259043

>  <Name>
ligand

>  <RI>
0

>  <Rbt.Current_Directory>
/home/itssahil/PROJECTS/Mol_Feturizer/New_Systems/rnas/3DIZ

>  <Rbt.Executable>
rbdock ($Id: //depot/dev/client3/rdock/2013.1/src/exe/rbdock.cxx#4 $)

>  <Rbt.Library>
libRbt.so (2013.1, Build901 2013/11/27)

>  <Rbt.Parameter_File>
/export/apps/rDock/src/rDock_2013.1_src/data/scripts/dock_solv.prm

>  <Rbt.Receptor>
prm/blind_docking_80.prm

>  <SCORE>
-7.89357

>  <SCORE.INTER>
-6.4286

>  <SCORE.INTER.CONST>
1

>  <SCORE.INTER.POLAR>
0

>  <SCORE.INTER.ROT>
5

>  <SCORE.INTER.SOLV>
6.04087

>  <SCORE.INTER.VDW>
-13.2327

>  <SCORE.INTER.norm>
-0.64286

>  <SCORE.INTRA>
-1.46497

>  <SCORE.INTRA.DIHEDRAL>
-1.67591

>  <SCORE.INTRA.DIHEDRAL.0>
3.67053

>  <SCORE.INTRA.POLAR>
0

>  <SCORE.INTRA.POLAR.0>
0

>  <SCORE.INTRA.REPUL>
0

>  <SCORE.INTRA.REPUL.0>
0

>  <SCORE.INTRA.SOLV>
-0.943896

>  <SCORE.INTRA.SOLV.lig_0>
-32.0553

>  <SCORE.INTRA.VDW>
-0.155073

>  <SCORE.INTRA.VDW.0>
-0.571921

>  <SCORE.INTRA.norm>
-0.146497

>  <SCORE.RESTR>
0

>  <SCORE.RESTR.CAVITY>
0

>  <SCORE.RESTR.norm>
0

>  <SCORE.SYSTEM>
0

>  <SCORE.SYSTEM.CONST>
0

>  <SCORE.SYSTEM.DIHEDRAL>
0

>  <SCORE.SYSTEM.SOLV>
0

>  <SCORE.SYSTEM.norm>
0

>  <SCORE.heavy>
10

>  <SCORE.norm>
-0.789357

>  <RMSD>
11.579

$$$$
ligand
 OpenBabel11021811473D
libRbt.so/2013.1/901 2013/11/27
 10  9  0  0  0  0  0  0  0  0999 V2000
   26.7718   14.1523    8.3880 N   0  0  0  0  0  0  0  0  0  0  0  0
   26.6831   15.0884    9.5487 C   0  0  2  0  0  0  0  0  0  0  0  0
   28.0561   15.6020    9.9613 C   0  0  0  0  0  0  0  0  0  0  0  0
   29.0801   15.1829    9.4328 O   0  0  0  0  0  0  0  0  0  0  0  0
   25.9684   14.4287   10.7308 C   0  0  0  0  0  0  0  0  0  0  0  0
   24.5032   14.1263   10.4677 C   0  0  0  0  0  0  0  0  0  0  0  0
   23.7965   13.6321   11.7237 C   0  0  0  0  0  0  0  0  0  0  0  0
   22.3350   13.3310   11.4346 C   0  0  0  0  0  0  0  0  0  0  0  0
   21.5917   12.8372   12.6481 N   0  0  0  0  0  0  0  0  0  0  0  0
   28.1984   16.4709   10.8108 O   0  0  0  0  0  0  0  0  0  0  0  0
  2  1  1  6  0  0  0
  2  3  1  0  0  0  0
  2  5  1  0  0  0  0
  3  4  1  0  0  0  0
  3 10  1  0  0  0  0
  5  6  1  0  0  0  0
  6  7  1  0  0  0  0
  7  8  1  0  0  0  0
  8  9  1  0  0  0  0
M  END
>  <CHROM.1>
-5.05275332,-66.12737618,-172.96922419,-179.76307516,179.97012950,25.74037338
14.50271491,10.51846404,0.15236225,-0.47566687,-2.01672685

>  <Name>
ligand

>  <RI>
0

>  <Rbt.Current_Directory>
/home/itssahil/PROJECTS/Mol_Feturizer/New_Systems/rnas/3DIZ

>  <Rbt.Executable>
rbdock ($Id: //depot/dev/client3/rdock/2013.1/src/exe/rbdock.cxx#4 $)

>  <Rbt.Library>
libRbt.so (2013.1, Build901 2013/11/27)

>  <Rbt.Parameter_File>
/export/apps/rDock/src/rDock_2013.1_src/data/scripts/dock_solv.prm

>  <Rbt.Receptor>
prm/blind_docking_60.prm

>  <SCORE>
-7.83802

>  <SCORE.INTER>
-6.34674

>  <SCORE.INTER.CONST>
1

>  <SCORE.INTER.POLAR>
0

>  <SCORE.INTER.ROT>
5

>  <SCORE.INTER.SOLV>
6.23376

>  <SCORE.INTER.VDW>
-13.2424

>  <SCORE.INTER.norm>
-0.634674

>  <SCORE.INTRA>
-1.49128

>  <SCORE.INTRA.DIHEDRAL>
-1.78168

>  <SCORE.INTRA.DIHEDRAL.0>
3.67053

>  <SCORE.INTRA.POLAR>
0

>  <SCORE.INTRA.POLAR.0>
0

>  <SCORE.INTRA.REPUL>
0

>  <SCORE.INTRA.REPUL.0>
0

>  <SCORE.INTRA.SOLV>
-0.912825

>  <SCORE.INTRA.SOLV.lig_0>
-32.0553

>  <SCORE.INTRA.VDW>
-0.144024

>  <SCORE.INTRA.VDW.0>
-0.571921

>  <SCORE.INTRA.norm>
-0.149128

>  <SCORE.RESTR>
0

>  <SCORE.RESTR.CAVITY>
0

>  <SCORE.RESTR.norm>
0

>  <SCORE.SYSTEM>
0

>  <SCORE.SYSTEM.CONST>
0

>  <SCORE.SYSTEM.DIHEDRAL>
0

>  <SCORE.SYSTEM.SOLV>
0

>  <SCORE.SYSTEM.norm>
0

>  <SCORE.heavy>
10

>  <SCORE.norm>
-0.783802

>  <RMSD>
11.580

$$$$
ligand
 OpenBabel11021811473D
libRbt.so/2013.1/901 2013/11/27
 10  9  0  0  0  0  0  0  0  0999 V2000
   26.6771   14.0204    8.5368 N   0  0  0  0  0  0  0  0  0  0  0  0
   26.5493   14.9750    9.6787 C   0  0  2  0  0  0  0  0  0  0  0  0
   27.9024   15.5369   10.0941 C   0  0  0  0  0  0  0  0  0  0  0  0
   28.9387   15.1776    9.5460 O   0  0  0  0  0  0  0  0  0  0  0  0
   25.8429   14.3166   10.8664 C   0  0  0  0  0  0  0  0  0  0  0  0
   24.3698   14.0368   10.6229 C   0  0  0  0  0  0  0  0  0  0  0  0
   23.6943   13.4614   11.8615 C   0  0  0  0  0  0  0  0  0  0  0  0
   22.2148   13.2253   11.6058 C   0  0  0  0  0  0  0  0  0  0  0  0
   21.4394   14.5074   11.4511 N   0  0  0  0  0  0  0  0  0  0  0  0
   28.0146   16.3879   10.9660 O   0  0  0  0  0  0  0  0  0  0  0  0
  2  1  1  6  0  0  0
  2  3  1  0  0  0  0
  2  5  1  0  0  0  0
  3  4  1  0  0  0  0
  3 10  1  0  0  0  0
  5  6  1  0  0  0  0
  6  7  1  0  0  0  0
  7  8  1  0  0  0  0
  8  9  1  0  0  0  0
M  END
>  <CHROM.1>
-2.09696431,-69.37285511,-176.51074135,178.46303833,-68.71281549,25.60576307
14.58185437,10.52778122,0.05465896,-0.38114744,-2.21484832

>  <Name>
ligand

>  <RI>
0

>  <Rbt.Current_Directory>
/home/itssahil/PROJECTS/Mol_Feturizer/New_Systems/rnas/3DIZ

>  <Rbt.Executable>
rbdock ($Id: //depot/dev/client3/rdock/2013.1/src/exe/rbdock.cxx#4 $)

>  <Rbt.Library>
libRbt.so (2013.1, Build901 2013/11/27)

>  <Rbt.Parameter_File>
/export/apps/rDock/src/rDock_2013.1_src/data/scripts/dock_solv.prm

>  <Rbt.Receptor>
prm/blind_docking_60.prm

>  <SCORE>
-6.54572

>  <SCORE.INTER>
-5.68916

>  <SCORE.INTER.CONST>
1

>  <SCORE.INTER.POLAR>
0

>  <SCORE.INTER.ROT>
5

>  <SCORE.INTER.SOLV>
7.57771

>  <SCORE.INTER.VDW>
-13.252

>  <SCORE.INTER.norm>
-0.568916

>  <SCORE.INTRA>
-0.856554

>  <SCORE.INTRA.DIHEDRAL>
-1.45342

>  <SCORE.INTRA.DIHEDRAL.0>
3.67053

>  <SCORE.INTRA.POLAR>
0

>  <SCORE.INTRA.POLAR.0>
0

>  <SCORE.INTRA.REPUL>
0

>  <SCORE.INTRA.REPUL.0>
0

>  <SCORE.INTRA.SOLV>
-0.0774735

>  <SCORE.INTRA.SOLV.lig_0>
-32.0553

>  <SCORE.INTRA.VDW>
-0.0911057

>  <SCORE.INTRA.VDW.0>
-0.571921

>  <SCORE.INTRA.norm>
-0.0856554

>  <SCORE.RESTR>
0

>  <SCORE.RESTR.CAVITY>
0

>  <SCORE.RESTR.norm>
0

>  <SCORE.SYSTEM>
0

>  <SCORE.SYSTEM.CONST>
0

>  <SCORE.SYSTEM.DIHEDRAL>
0

>  <SCORE.SYSTEM.SOLV>
0

>  <SCORE.SYSTEM.norm>
0

>  <SCORE.heavy>
10

>  <SCORE.norm>
-0.654572

>  <RMSD>
11.592

$$$$
ligand
 OpenBabel11021811473D
libRbt.so/2013.1/901 2013/11/27
 10  9  0  0  0  0  0  0  0  0999 V2000
   26.8441   14.1556    8.3642 N   0  0  0  0  0  0  0  0  0  0  0  0
   26.1447   14.5794    9.6143 C   0  0  2  0  0  0  0  0  0  0  0  0
   27.1120   14.7031   10.7839 C   0  0  0  0  0  0  0  0  0  0  0  0
   27.4867   15.7977   11.1899 O   0  0  0  0  0  0  0  0  0  0  0  0
   24.9985   13.6226    9.9517 C   0  0  0  0  0  0  0  0  0  0  0  0
   24.1452   14.0798   11.1224 C   0  0  0  0  0  0  0  0  0  0  0  0
   23.0118   13.1024   11.4080 C   0  0  0  0  0  0  0  0  0  0  0  0
   22.1722   13.5811   12.5810 C   0  0  0  0  0  0  0  0  0  0  0  0
   21.0484   12.6359   12.9161 N   0  0  0  0  0  0  0  0  0  0  0  0
   27.5334   13.7255   11.3870 O   0  0  0  0  0  0  0  0  0  0  0  0
  2  1  1  6  0  0  0
  2  3  1  0  0  0  0
  2  5  1  0  0  0  0
  3  4  1  0  0  0  0
  3 10  1  0  0  0  0
  5  6  1  0  0  0  0
  6  7  1  0  0  0  0
  7  8  1  0  0  0  0
  8  9  1  0  0  0  0
M  END
>  <CHROM.1>
104.26134481,-173.46950142,179.40476998,-179.94894419,-179.15084232,25.08150861
14.00560447,10.95343350,0.32113411,-0.35200759,-1.74944342

>  <Name>
ligand

>  <RI>
0

>  <Rbt.Current_Directory>
/home/itssahil/PROJECTS/Mol_Feturizer/New_Systems/rnas/3DIZ

>  <Rbt.Executable>
rbdock ($Id: //depot/dev/client3/rdock/2013.1/src/exe/rbdock.cxx#4 $)

>  <Rbt.Library>
libRbt.so (2013.1, Build901 2013/11/27)

>  <Rbt.Parameter_File>
/export/apps/rDock/src/rDock_2013.1_src/data/scripts/dock_solv.prm

>  <Rbt.Receptor>
prm/blind_docking_40.prm

>  <SCORE>
-6.35066

>  <SCORE.INTER>
-4.41237

>  <SCORE.INTER.CONST>
1

>  <SCORE.INTER.POLAR>
0

>  <SCORE.INTER.ROT>
5

>  <SCORE.INTER.SOLV>
5.97466

>  <SCORE.INTER.VDW>
-11.8665

>  <SCORE.INTER.norm>
-0.441237

>  <SCORE.INTRA>
-1.93829

>  <SCORE.INTRA.DIHEDRAL>
-1.96368

>  <SCORE.INTRA.DIHEDRAL.0>
3.67053

>  <SCORE.INTRA.POLAR>
0

>  <SCORE.INTRA.POLAR.0>
0

>  <SCORE.INTRA.REPUL>
0

>  <SCORE.INTRA.REPUL.0>
0

>  <SCORE.INTRA.SOLV>
-1.73933

>  <SCORE.INTRA.SOLV.lig_0>
-32.0553

>  <SCORE.INTRA.VDW>
-0.0867851

>  <SCORE.INTRA.VDW.0>
-0.571921

>  <SCORE.INTRA.norm>
-0.193829

>  <SCORE.RESTR>
0

>  <SCORE.RESTR.CAVITY>
0

>  <SCORE.RESTR.norm>
0

>  <SCORE.SYSTEM>
0

>  <SCORE.SYSTEM.CONST>
0

>  <SCORE.SYSTEM.DIHEDRAL>
0

>  <SCORE.SYSTEM.SOLV>
0

>  <SCORE.SYSTEM.norm>
0

>  <SCORE.heavy>
10

>  <SCORE.norm>
-0.635066

>  <RMSD>
11.598

$$$$
ligand
 OpenBabel11021811473D
libRbt.so/2013.1/901 2013/11/27
 10  9  0  0  0  0  0  0  0  0999 V2000
   26.7048   14.0256    8.4954 N   0  0  0  0  0  0  0  0  0  0  0  0
   26.5916   14.9952    9.6261 C   0  0  2  0  0  0  0  0  0  0  0  0
   27.9517   15.5504   10.0272 C   0  0  0  0  0  0  0  0  0  0  0  0
   28.9812   15.1805    9.4731 O   0  0  0  0  0  0  0  0  0  0  0  0
   25.8861   14.3575   10.8256 C   0  0  0  0  0  0  0  0  0  0  0  0
   24.4146   14.0667   10.5856 C   0  0  0  0  0  0  0  0  0  0  0  0
   23.7381   13.5193   11.8362 C   0  0  0  0  0  0  0  0  0  0  0  0
   22.2865   13.1693   11.5524 C   0  0  0  0  0  0  0  0  0  0  0  0
   21.4408   14.3825   11.2666 N   0  0  0  0  0  0  0  0  0  0  0  0
   28.0767   16.4059   10.8929 O   0  0  0  0  0  0  0  0  0  0  0  0
  2  1  1  6  0  0  0
  2  3  1  0  0  0  0
  2  5  1  0  0  0  0
  3  4  1  0  0  0  0
  3 10  1  0  0  0  0
  5  6  1  0  0  0  0
  6  7  1  0  0  0  0
  7  8  1  0  0  0  0
  8  9  1  0  0  0  0
M  END
>  <CHROM.1>
-1.70564282,-68.42234436,-176.24366720,-177.09599699,-67.34526478,25.64881040
14.58258349,10.46266746,0.05984090,-0.38260433,-2.17002269

>  <Name>
ligand

>  <RI>
0

>  <Rbt.Current_Directory>
/home/itssahil/PROJECTS/Mol_Feturizer/New_Systems/rnas/3DIZ

>  <Rbt.Executable>
rbdock ($Id: //depot/dev/client3/rdock/2013.1/src/exe/rbdock.cxx#4 $)

>  <Rbt.Library>
libRbt.so (2013.1, Build901 2013/11/27)

>  <Rbt.Parameter_File>
/export/apps/rDock/src/rDock_2013.1_src/data/scripts/dock_solv.prm

>  <Rbt.Receptor>
prm/blind_docking_60.prm

>  <SCORE>
-6.51738

>  <SCORE.INTER>
-5.62973

>  <SCORE.INTER.CONST>
1

>  <SCORE.INTER.POLAR>
0

>  <SCORE.INTER.ROT>
5

>  <SCORE.INTER.SOLV>
7.77426

>  <SCORE.INTER.VDW>
-13.2779

>  <SCORE.INTER.norm>
-0.562973

>  <SCORE.INTRA>
-0.887653

>  <SCORE.INTRA.DIHEDRAL>
-1.5681

>  <SCORE.INTRA.DIHEDRAL.0>
3.67053

>  <SCORE.INTRA.POLAR>
0

>  <SCORE.INTRA.POLAR.0>
0

>  <SCORE.INTRA.REPUL>
0

>  <SCORE.INTRA.REPUL.0>
0

>  <SCORE.INTRA.SOLV>
-0.0694496

>  <SCORE.INTRA.SOLV.lig_0>
-32.0553

>  <SCORE.INTRA.VDW>
-0.0688797

>  <SCORE.INTRA.VDW.0>
-0.571921

>  <SCORE.INTRA.norm>
-0.0887653

>  <SCORE.RESTR>
0

>  <SCORE.RESTR.CAVITY>
0

>  <SCORE.RESTR.norm>
0

>  <SCORE.SYSTEM>
0

>  <SCORE.SYSTEM.CONST>
0

>  <SCORE.SYSTEM.DIHEDRAL>
0

>  <SCORE.SYSTEM.SOLV>
0

>  <SCORE.SYSTEM.norm>
0

>  <SCORE.heavy>
10

>  <SCORE.norm>
-0.651738

>  <RMSD>
11.627

$$$$
ligand
 OpenBabel11021811473D
libRbt.so/2013.1/901 2013/11/27
 10  9  0  0  0  0  0  0  0  0999 V2000
   26.7917   14.1489    8.2213 N   0  0  0  0  0  0  0  0  0  0  0  0
   26.7496   15.1018    9.3710 C   0  0  2  0  0  0  0  0  0  0  0  0
   28.1403   15.6057    9.7331 C   0  0  0  0  0  0  0  0  0  0  0  0
   29.1411   15.1822    9.1650 O   0  0  0  0  0  0  0  0  0  0  0  0
   26.0655   14.4665   10.5840 C   0  0  0  0  0  0  0  0  0  0  0  0
   24.5919   14.1674   10.3675 C   0  0  0  0  0  0  0  0  0  0  0  0
   23.9155   13.7117   11.6545 C   0  0  0  0  0  0  0  0  0  0  0  0
   22.4443   13.4162   11.4126 C   0  0  0  0  0  0  0  0  0  0  0  0
   21.7359   12.9365   12.6523 N   0  0  0  0  0  0  0  0  0  0  0  0
   28.3199   16.4709   10.5794 O   0  0  0  0  0  0  0  0  0  0  0  0
  2  1  1  6  0  0  0
  2  3  1  0  0  0  0
  2  5  1  0  0  0  0
  3  4  1  0  0  0  0
  3 10  1  0  0  0  0
  5  6  1  0  0  0  0
  6  7  1  0  0  0  0
  7  8  1  0  0  0  0
  8  9  1  0  0  0  0
M  END
>  <CHROM.1>
-3.96729791,-65.69970481,-172.41337661,-179.89160183,178.93894697,25.83179884
14.53792168,10.37634467,0.19095076,-0.47912863,-2.00841175

>  <Name>
ligand

>  <RI>
0

>  <Rbt.Current_Directory>
/home/itssahil/PROJECTS/Mol_Feturizer/New_Systems/rnas/3DIZ

>  <Rbt.Executable>
rbdock ($Id: //depot/dev/client3/rdock/2013.1/src/exe/rbdock.cxx#4 $)

>  <Rbt.Library>
libRbt.so (2013.1, Build901 2013/11/27)

>  <Rbt.Parameter_File>
/export/apps/rDock/src/rDock_2013.1_src/data/scripts/dock_solv.prm

>  <Rbt.Receptor>
prm/blind_docking_100.prm

>  <SCORE>
-7.71948

>  <SCORE.INTER>
-6.24943

>  <SCORE.INTER.CONST>
1

>  <SCORE.INTER.POLAR>
0

>  <SCORE.INTER.ROT>
5

>  <SCORE.INTER.SOLV>
6.53991

>  <SCORE.INTER.VDW>
-13.2796

>  <SCORE.INTER.norm>
-0.624943

>  <SCORE.INTRA>
-1.47005

>  <SCORE.INTRA.DIHEDRAL>
-1.76824

>  <SCORE.INTRA.DIHEDRAL.0>
3.67053

>  <SCORE.INTRA.POLAR>
0

>  <SCORE.INTRA.POLAR.0>
0

>  <SCORE.INTRA.REPUL>
0

>  <SCORE.INTRA.REPUL.0>
0

>  <SCORE.INTRA.SOLV>
-0.909238

>  <SCORE.INTRA.SOLV.lig_0>
-32.0553

>  <SCORE.INTRA.VDW>
-0.131308

>  <SCORE.INTRA.VDW.0>
-0.571921

>  <SCORE.INTRA.norm>
-0.147005

>  <SCORE.RESTR>
0

>  <SCORE.RESTR.CAVITY>
0

>  <SCORE.RESTR.norm>
0

>  <SCORE.SYSTEM>
0

>  <SCORE.SYSTEM.CONST>
0

>  <SCORE.SYSTEM.DIHEDRAL>
0

>  <SCORE.SYSTEM.SOLV>
0

>  <SCORE.SYSTEM.norm>
0

>  <SCORE.heavy>
10

>  <SCORE.norm>
-0.771948

>  <RMSD>
11.676

$$$$
ligand
 OpenBabel11021811473D
libRbt.so/2013.1/901 2013/11/27
 10  9  0  0  0  0  0  0  0  0999 V2000
   26.5640   14.2224    8.3904 N   0  0  0  0  0  0  0  0  0  0  0  0
   26.5068   15.0920    9.6037 C   0  0  2  0  0  0  0  0  0  0  0  0
   27.8885   15.5969    9.9975 C   0  0  0  0  0  0  0  0  0  0  0  0
   28.0374   16.4074   10.9056 O   0  0  0  0  0  0  0  0  0  0  0  0
   25.8391   14.3603   10.7707 C   0  0  0  0  0  0  0  0  0  0  0  0
   24.3646   14.0711   10.5475 C   0  0  0  0  0  0  0  0  0  0  0  0
   23.7138   13.4754   11.7897 C   0  0  0  0  0  0  0  0  0  0  0  0
   22.2527   13.1494   11.5268 C   0  0  0  0  0  0  0  0  0  0  0  0
   21.4171   14.3787   11.2833 N   0  0  0  0  0  0  0  0  0  0  0  0
   28.9080   15.1984    9.4511 O   0  0  0  0  0  0  0  0  0  0  0  0
  2  1  1  6  0  0  0
  2  3  1  0  0  0  0
  2  5  1  0  0  0  0
  3  4  1  0  0  0  0
  3 10  1  0  0  0  0
  5  6  1  0  0  0  0
  6  7  1  0  0  0  0
  7  8  1  0  0  0  0
  8  9  1  0  0  0  0
M  END
>  <CHROM.1>
174.31196413,-66.78840628,-174.05363784,-178.00009807,-66.03648780,25.59111307
14.61119642,10.43186232,0.09101217,-0.38777985,-2.07326861

>  <Name>
ligand

>  <RI>
0

>  <Rbt.Current_Directory>
/home/itssahil/PROJECTS/Mol_Feturizer/New_Systems/rnas/3DIZ

>  <Rbt.Executable>
rbdock ($Id: //depot/dev/client3/rdock/2013.1/src/exe/rbdock.cxx#4 $)

>  <Rbt.Library>
libRbt.so (2013.1, Build901 2013/11/27)

>  <Rbt.Parameter_File>
/export/apps/rDock/src/rDock_2013.1_src/data/scripts/dock_solv.prm

>  <Rbt.Receptor>
prm/blind_docking_40.prm

>  <SCORE>
-6.5111

>  <SCORE.INTER>
-5.57121

>  <SCORE.INTER.CONST>
1

>  <SCORE.INTER.POLAR>
0

>  <SCORE.INTER.ROT>
5

>  <SCORE.INTER.SOLV>
7.52328

>  <SCORE.INTER.VDW>
-13.1552

>  <SCORE.INTER.norm>
-0.557121

>  <SCORE.INTRA>
-0.939882

>  <SCORE.INTRA.DIHEDRAL>
-1.69552

>  <SCORE.INTRA.DIHEDRAL.0>
3.67053

>  <SCORE.INTRA.POLAR>
0

>  <SCORE.INTRA.POLAR.0>
0

>  <SCORE.INTRA.REPUL>
0

>  <SCORE.INTRA.REPUL.0>
0

>  <SCORE.INTRA.SOLV>
-0.0414673

>  <SCORE.INTRA.SOLV.lig_0>
-32.0553

>  <SCORE.INTRA.VDW>
-0.0713907

>  <SCORE.INTRA.VDW.0>
-0.571921

>  <SCORE.INTRA.norm>
-0.0939882

>  <SCORE.RESTR>
0

>  <SCORE.RESTR.CAVITY>
0

>  <SCORE.RESTR.norm>
0

>  <SCORE.SYSTEM>
0

>  <SCORE.SYSTEM.CONST>
0

>  <SCORE.SYSTEM.DIHEDRAL>
0

>  <SCORE.SYSTEM.SOLV>
0

>  <SCORE.SYSTEM.norm>
0

>  <SCORE.heavy>
10

>  <SCORE.norm>
-0.65111

>  <RMSD>
11.676

$$$$
ligand
 OpenBabel11021811473D
libRbt.so/2013.1/901 2013/11/27
 10  9  0  0  0  0  0  0  0  0999 V2000
   26.6907   14.1630    8.2047 N   0  0  0  0  0  0  0  0  0  0  0  0
   26.6439   14.9309    9.4852 C   0  0  2  0  0  0  0  0  0  0  0  0
   27.9824   15.5879    9.7945 C   0  0  0  0  0  0  0  0  0  0  0  0
   28.0707   16.5104   10.5975 O   0  0  0  0  0  0  0  0  0  0  0  0
   26.1930   14.0373   10.6433 C   0  0  0  0  0  0  0  0  0  0  0  0
   24.8146   13.4301   10.4461 C   0  0  0  0  0  0  0  0  0  0  0  0
   23.7289   14.4985   10.4121 C   0  0  0  0  0  0  0  0  0  0  0  0
   22.3491   13.8616   10.3866 C   0  0  0  0  0  0  0  0  0  0  0  0
   22.0206   13.1337   11.6637 N   0  0  0  0  0  0  0  0  0  0  0  0
   29.0276   15.2095    9.2831 O   0  0  0  0  0  0  0  0  0  0  0  0
  2  1  1  6  0  0  0
  2  3  1  0  0  0  0
  2  5  1  0  0  0  0
  3  4  1  0  0  0  0
  3 10  1  0  0  0  0
  5  6  1  0  0  0  0
  6  7  1  0  0  0  0
  7  8  1  0  0  0  0
  8  9  1  0  0  0  0
M  END
>  <CHROM.1>
161.81023857,-59.62993078,-64.59973121,-173.02750753,66.87114864,25.79251921
14.55570763,10.09607609,-0.00203711,-0.39485360,-2.16511113

>  <Name>
ligand

>  <RI>
0

>  <Rbt.Current_Directory>
/home/itssahil/PROJECTS/Mol_Feturizer/New_Systems/rnas/3DIZ

>  <Rbt.Executable>
rbdock ($Id: //depot/dev/client3/rdock/2013.1/src/exe/rbdock.cxx#4 $)

>  <Rbt.Library>
libRbt.so (2013.1, Build901 2013/11/27)

>  <Rbt.Parameter_File>
/export/apps/rDock/src/rDock_2013.1_src/data/scripts/dock_solv.prm

>  <Rbt.Receptor>
prm/blind_docking_40.prm

>  <SCORE>
-6.06896

>  <SCORE.INTER>
-5.65374

>  <SCORE.INTER.CONST>
1

>  <SCORE.INTER.POLAR>
0

>  <SCORE.INTER.ROT>
5

>  <SCORE.INTER.SOLV>
6.96051

>  <SCORE.INTER.VDW>
-13.0227

>  <SCORE.INTER.norm>
-0.565374

>  <SCORE.INTRA>
-0.415224

>  <SCORE.INTRA.DIHEDRAL>
-1.75485

>  <SCORE.INTRA.DIHEDRAL.0>
3.67053

>  <SCORE.INTRA.POLAR>
0

>  <SCORE.INTRA.POLAR.0>
0

>  <SCORE.INTRA.REPUL>
0

>  <SCORE.INTRA.REPUL.0>
0

>  <SCORE.INTRA.SOLV>
0.661143

>  <SCORE.INTRA.SOLV.lig_0>
-32.0553

>  <SCORE.INTRA.VDW>
0.131629

>  <SCORE.INTRA.VDW.0>
-0.571921

>  <SCORE.INTRA.norm>
-0.0415224

>  <SCORE.RESTR>
0

>  <SCORE.RESTR.CAVITY>
0

>  <SCORE.RESTR.norm>
0

>  <SCORE.SYSTEM>
0

>  <SCORE.SYSTEM.CONST>
0

>  <SCORE.SYSTEM.DIHEDRAL>
0

>  <SCORE.SYSTEM.SOLV>
0

>  <SCORE.SYSTEM.norm>
0

>  <SCORE.heavy>
10

>  <SCORE.norm>
-0.606896

>  <RMSD>
11.896

$$$$
ligand
 OpenBabel11021811473D
libRbt.so/2013.1/901 2013/11/27
 10  9  0  0  0  0  0  0  0  0999 V2000
   28.2509   15.0780    9.1439 N   0  0  0  0  0  0  0  0  0  0  0  0
   26.8524   15.0257    9.6663 C   0  0  2  0  0  0  0  0  0  0  0  0
   26.7961   14.4098   11.0579 C   0  0  0  0  0  0  0  0  0  0  0  0
   27.3981   13.3750   11.3232 O   0  0  0  0  0  0  0  0  0  0  0  0
   25.9343   14.2748    8.6986 C   0  0  0  0  0  0  0  0  0  0  0  0
   24.4558   14.5300    8.9365 C   0  0  0  0  0  0  0  0  0  0  0  0
   23.9520   13.8036   10.1774 C   0  0  0  0  0  0  0  0  0  0  0  0
   22.4834   14.1104   10.4205 C   0  0  0  0  0  0  0  0  0  0  0  0
   21.9268   13.3815   11.6153 N   0  0  0  0  0  0  0  0  0  0  0  0
   26.1774   14.9302   11.9762 O   0  0  0  0  0  0  0  0  0  0  0  0
  2  1  1  6  0  0  0
  2  3  1  0  0  0  0
  2  5  1  0  0  0  0
  3  4  1  0  0  0  0
  3 10  1  0  0  0  0
  5  6  1  0  0  0  0
  6  7  1  0  0  0  0
  7  8  1  0  0  0  0
  8  9  1  0  0  0  0
M  END
>  <CHROM.1>
-46.50216384,-162.67651993,-74.23363833,178.13277880,178.28573256,25.43114626
14.28108562,10.33297446,0.16692288,-0.13374367,-1.37586561

>  <Name>
ligand

>  <RI>
0

>  <Rbt.Current_Directory>
/home/itssahil/PROJECTS/Mol_Feturizer/New_Systems/rnas/3DIZ

>  <Rbt.Executable>
rbdock ($Id: //depot/dev/client3/rdock/2013.1/src/exe/rbdock.cxx#4 $)

>  <Rbt.Library>
libRbt.so (2013.1, Build901 2013/11/27)

>  <Rbt.Parameter_File>
/export/apps/rDock/src/rDock_2013.1_src/data/scripts/dock_solv.prm

>  <Rbt.Receptor>
prm/blind_docking_40.prm

>  <SCORE>
-5.40737

>  <SCORE.INTER>
-4.2943

>  <SCORE.INTER.CONST>
1

>  <SCORE.INTER.POLAR>
0

>  <SCORE.INTER.ROT>
5

>  <SCORE.INTER.SOLV>
8.80167

>  <SCORE.INTER.VDW>
-12.7301

>  <SCORE.INTER.norm>
-0.42943

>  <SCORE.INTRA>
-1.11307

>  <SCORE.INTRA.DIHEDRAL>
-0.224755

>  <SCORE.INTRA.DIHEDRAL.0>
3.67053

>  <SCORE.INTRA.POLAR>
0

>  <SCORE.INTRA.POLAR.0>
0

>  <SCORE.INTRA.REPUL>
0

>  <SCORE.INTRA.REPUL.0>
0

>  <SCORE.INTRA.SOLV>
-1.59667

>  <SCORE.INTRA.SOLV.lig_0>
-32.0553

>  <SCORE.INTRA.VDW>
-0.202357

>  <SCORE.INTRA.VDW.0>
-0.571921

>  <SCORE.INTRA.norm>
-0.111307

>  <SCORE.RESTR>
0

>  <SCORE.RESTR.CAVITY>
0

>  <SCORE.RESTR.norm>
0

>  <SCORE.SYSTEM>
0

>  <SCORE.SYSTEM.CONST>
0

>  <SCORE.SYSTEM.DIHEDRAL>
0

>  <SCORE.SYSTEM.SOLV>
0

>  <SCORE.SYSTEM.norm>
0

>  <SCORE.heavy>
10

>  <SCORE.norm>
-0.540737

>  <RMSD>
11.909

$$$$
ligand
 OpenBabel11021811473D
libRbt.so/2013.1/901 2013/11/27
 10  9  0  0  0  0  0  0  0  0999 V2000
   28.4000   15.1714    9.2224 N   0  0  0  0  0  0  0  0  0  0  0  0
   26.9808   15.1531    9.6884 C   0  0  2  0  0  0  0  0  0  0  0  0
   26.8450   14.4774   11.0463 C   0  0  0  0  0  0  0  0  0  0  0  0
   27.3813   13.3997   11.2800 O   0  0  0  0  0  0  0  0  0  0  0  0
   26.0729   14.4855    8.6524 C   0  0  0  0  0  0  0  0  0  0  0  0
   24.5971   14.7876    8.8479 C   0  0  0  0  0  0  0  0  0  0  0  0
   24.0178   14.0212   10.0305 C   0  0  0  0  0  0  0  0  0  0  0  0
   22.5598   14.3911   10.2483 C   0  0  0  0  0  0  0  0  0  0  0  0
   21.9533   13.6911   11.4361 N   0  0  0  0  0  0  0  0  0  0  0  0
   26.2248   14.9881   11.9691 O   0  0  0  0  0  0  0  0  0  0  0  0
  2  1  1  6  0  0  0
  2  3  1  0  0  0  0
  2  5  1  0  0  0  0
  3  4  1  0  0  0  0
  3 10  1  0  0  0  0
  5  6  1  0  0  0  0
  6  7  1  0  0  0  0
  7  8  1  0  0  0  0
  8  9  1  0  0  0  0
M  END
>  <CHROM.1>
-47.40407279,-162.82056142,-74.38813455,177.21236577,-178.15866084,25.51000212
14.44401506,10.27322327,0.12685459,-0.09667860,-1.34288726

>  <Name>
ligand

>  <RI>
0

>  <Rbt.Current_Directory>
/home/itssahil/PROJECTS/Mol_Feturizer/New_Systems/rnas/3DIZ

>  <Rbt.Executable>
rbdock ($Id: //depot/dev/client3/rdock/2013.1/src/exe/rbdock.cxx#4 $)

>  <Rbt.Library>
libRbt.so (2013.1, Build901 2013/11/27)

>  <Rbt.Parameter_File>
/export/apps/rDock/src/rDock_2013.1_src/data/scripts/dock_solv.prm

>  <Rbt.Receptor>
prm/blind_docking_60.prm

>  <SCORE>
-5.43827

>  <SCORE.INTER>
-4.31741

>  <SCORE.INTER.CONST>
1

>  <SCORE.INTER.POLAR>
0

>  <SCORE.INTER.ROT>
5

>  <SCORE.INTER.SOLV>
9.4222

>  <SCORE.INTER.VDW>
-12.9523

>  <SCORE.INTER.norm>
-0.431741

>  <SCORE.INTRA>
-1.12086

>  <SCORE.INTRA.DIHEDRAL>
-0.207501

>  <SCORE.INTRA.DIHEDRAL.0>
3.67053

>  <SCORE.INTRA.POLAR>
0

>  <SCORE.INTRA.POLAR.0>
0

>  <SCORE.INTRA.REPUL>
0

>  <SCORE.INTRA.REPUL.0>
0

>  <SCORE.INTRA.SOLV>
-1.59767

>  <SCORE.INTRA.SOLV.lig_0>
-32.0553

>  <SCORE.INTRA.VDW>
-0.21827

>  <SCORE.INTRA.VDW.0>
-0.571921

>  <SCORE.INTRA.norm>
-0.112086

>  <SCORE.RESTR>
0

>  <SCORE.RESTR.CAVITY>
0

>  <SCORE.RESTR.norm>
0

>  <SCORE.SYSTEM>
0

>  <SCORE.SYSTEM.CONST>
0

>  <SCORE.SYSTEM.DIHEDRAL>
0

>  <SCORE.SYSTEM.SOLV>
0

>  <SCORE.SYSTEM.norm>
0

>  <SCORE.heavy>
10

>  <SCORE.norm>
-0.543827

>  <RMSD>
11.909

$$$$
ligand
 OpenBabel11021811473D
libRbt.so/2013.1/901 2013/11/27
 10  9  0  0  0  0  0  0  0  0999 V2000
   26.4762   14.3452    8.1031 N   0  0  0  0  0  0  0  0  0  0  0  0
   26.5474   14.9217    9.4794 C   0  0  2  0  0  0  0  0  0  0  0  0
   27.9093   15.5440    9.7571 C   0  0  0  0  0  0  0  0  0  0  0  0
   28.9034   15.2163    9.1185 O   0  0  0  0  0  0  0  0  0  0  0  0
   26.2036   13.8663   10.5335 C   0  0  0  0  0  0  0  0  0  0  0  0
   24.8023   13.2967   10.3937 C   0  0  0  0  0  0  0  0  0  0  0  0
   23.7488   14.2556   10.9342 C   0  0  0  0  0  0  0  0  0  0  0  0
   22.3632   13.6375   10.8446 C   0  0  0  0  0  0  0  0  0  0  0  0
   21.3051   14.4836   11.5029 N   0  0  0  0  0  0  0  0  0  0  0  0
   28.0678   16.4141   10.6026 O   0  0  0  0  0  0  0  0  0  0  0  0
  2  1  1  6  0  0  0
  2  3  1  0  0  0  0
  2  5  1  0  0  0  0
  3  4  1  0  0  0  0
  3 10  1  0  0  0  0
  5  6  1  0  0  0  0
  6  7  1  0  0  0  0
  7  8  1  0  0  0  0
  8  9  1  0  0  0  0
M  END
>  <CHROM.1>
-21.93843904,-60.77977141,-77.58651766,-177.30027294,173.75990449,25.67390174
14.61635177,10.12950727,0.02757115,-0.35375489,-2.31756705

>  <Name>
ligand

>  <RI>
0

>  <Rbt.Current_Directory>
/home/itssahil/PROJECTS/Mol_Feturizer/New_Systems/rnas/3DIZ

>  <Rbt.Executable>
rbdock ($Id: //depot/dev/client3/rdock/2013.1/src/exe/rbdock.cxx#4 $)

>  <Rbt.Library>
libRbt.so (2013.1, Build901 2013/11/27)

>  <Rbt.Parameter_File>
/export/apps/rDock/src/rDock_2013.1_src/data/scripts/dock_solv.prm

>  <Rbt.Receptor>
prm/blind_docking_80.prm

>  <SCORE>
-6.0928

>  <SCORE.INTER>
-5.35245

>  <SCORE.INTER.CONST>
1

>  <SCORE.INTER.POLAR>
0

>  <SCORE.INTER.ROT>
5

>  <SCORE.INTER.SOLV>
7.5197

>  <SCORE.INTER.VDW>
-13.0082

>  <SCORE.INTER.norm>
-0.535245

>  <SCORE.INTRA>
-0.740347

>  <SCORE.INTRA.DIHEDRAL>
-0.721424

>  <SCORE.INTRA.DIHEDRAL.0>
3.67053

>  <SCORE.INTRA.POLAR>
0

>  <SCORE.INTRA.POLAR.0>
0

>  <SCORE.INTRA.REPUL>
0

>  <SCORE.INTRA.REPUL.0>
0

>  <SCORE.INTRA.SOLV>
-0.428811

>  <SCORE.INTRA.SOLV.lig_0>
-32.0553

>  <SCORE.INTRA.VDW>
-0.165229

>  <SCORE.INTRA.VDW.0>
-0.571921

>  <SCORE.INTRA.norm>
-0.0740347

>  <SCORE.RESTR>
0

>  <SCORE.RESTR.CAVITY>
0

>  <SCORE.RESTR.norm>
0

>  <SCORE.SYSTEM>
0

>  <SCORE.SYSTEM.CONST>
0

>  <SCORE.SYSTEM.DIHEDRAL>
0

>  <SCORE.SYSTEM.SOLV>
0

>  <SCORE.SYSTEM.norm>
0

>  <SCORE.heavy>
10

>  <SCORE.norm>
-0.60928

>  <RMSD>
11.926

$$$$
ligand
 OpenBabel11021811473D
libRbt.so/2013.1/901 2013/11/27
 10  9  0  0  0  0  0  0  0  0999 V2000
   26.4535   14.3439    8.0860 N   0  0  0  0  0  0  0  0  0  0  0  0
   26.5386   14.9082    9.4665 C   0  0  2  0  0  0  0  0  0  0  0  0
   27.8994   15.5382    9.7320 C   0  0  0  0  0  0  0  0  0  0  0  0
   28.0540   16.3763   10.6136 O   0  0  0  0  0  0  0  0  0  0  0  0
   26.2165   13.8407   10.5152 C   0  0  0  0  0  0  0  0  0  0  0  0
   24.8281   13.2414   10.3709 C   0  0  0  0  0  0  0  0  0  0  0  0
   23.7571   14.1571   10.9503 C   0  0  0  0  0  0  0  0  0  0  0  0
   22.3907   13.4947   10.8844 C   0  0  0  0  0  0  0  0  0  0  0  0
   21.3197   14.3009   11.5712 N   0  0  0  0  0  0  0  0  0  0  0  0
   28.8992   15.2184    9.1036 O   0  0  0  0  0  0  0  0  0  0  0  0
  2  1  1  6  0  0  0
  2  3  1  0  0  0  0
  2  5  1  0  0  0  0
  3  4  1  0  0  0  0
  3 10  1  0  0  0  0
  5  6  1  0  0  0  0
  6  7  1  0  0  0  0
  7  8  1  0  0  0  0
  8  9  1  0  0  0  0
M  END
>  <CHROM.1>
158.41602145,-59.58327739,-79.21229379,-175.96425810,174.18397770,25.67681632
14.56031702,10.13229470,0.03321988,-0.37478822,-2.27896305

>  <Name>
ligand

>  <RI>
0

>  <Rbt.Current_Directory>
/home/itssahil/PROJECTS/Mol_Feturizer/New_Systems/rnas/3DIZ

>  <Rbt.Executable>
rbdock ($Id: //depot/dev/client3/rdock/2013.1/src/exe/rbdock.cxx#4 $)

>  <Rbt.Library>
libRbt.so (2013.1, Build901 2013/11/27)

>  <Rbt.Parameter_File>
/export/apps/rDock/src/rDock_2013.1_src/data/scripts/dock_solv.prm

>  <Rbt.Receptor>
prm/blind_docking_40.prm

>  <SCORE>
-6.03333

>  <SCORE.INTER>
-5.34118

>  <SCORE.INTER.CONST>
1

>  <SCORE.INTER.POLAR>
0

>  <SCORE.INTER.ROT>
5

>  <SCORE.INTER.SOLV>
7.09779

>  <SCORE.INTER.VDW>
-12.86

>  <SCORE.INTER.norm>
-0.534118

>  <SCORE.INTRA>
-0.692153

>  <SCORE.INTRA.DIHEDRAL>
-0.609147

>  <SCORE.INTRA.DIHEDRAL.0>
3.67053

>  <SCORE.INTRA.POLAR>
0

>  <SCORE.INTRA.POLAR.0>
0

>  <SCORE.INTRA.REPUL>
0

>  <SCORE.INTRA.REPUL.0>
0

>  <SCORE.INTRA.SOLV>
-0.436882

>  <SCORE.INTRA.SOLV.lig_0>
-32.0553

>  <SCORE.INTRA.VDW>
-0.169139

>  <SCORE.INTRA.VDW.0>
-0.571921

>  <SCORE.INTRA.norm>
-0.0692153

>  <SCORE.RESTR>
0

>  <SCORE.RESTR.CAVITY>
0

>  <SCORE.RESTR.norm>
0

>  <SCORE.SYSTEM>
0

>  <SCORE.SYSTEM.CONST>
0

>  <SCORE.SYSTEM.DIHEDRAL>
0

>  <SCORE.SYSTEM.SOLV>
0

>  <SCORE.SYSTEM.norm>
0

>  <SCORE.heavy>
10

>  <SCORE.norm>
-0.603333

>  <RMSD>
11.930

$$$$
ligand
 OpenBabel11021811473D
libRbt.so/2013.1/901 2013/11/27
 10  9  0  0  0  0  0  0  0  0999 V2000
   28.1594   14.6475   12.4189 N   0  0  0  0  0  0  0  0  0  0  0  0
   27.8127   14.3211   11.0030 C   0  0  2  0  0  0  0  0  0  0  0  0
   28.2774   15.4109   10.0461 C   0  0  0  0  0  0  0  0  0  0  0  0
   28.0167   16.5919   10.2482 O   0  0  0  0  0  0  0  0  0  0  0  0
   26.3111   14.0650   10.8520 C   0  0  0  0  0  0  0  0  0  0  0  0
   25.9242   13.4726    9.5079 C   0  0  0  0  0  0  0  0  0  0  0  0
   25.8090   14.5456    8.4323 C   0  0  0  0  0  0  0  0  0  0  0  0
   25.5876   13.9160    7.0668 C   0  0  0  0  0  0  0  0  0  0  0  0
   26.8043   13.1887    6.5573 N   0  0  0  0  0  0  0  0  0  0  0  0
   28.9522   15.1641    9.0558 O   0  0  0  0  0  0  0  0  0  0  0  0
  2  1  1  1  0  0  0
  2  3  1  0  0  0  0
  2  5  1  0  0  0  0
  3  4  1  0  0  0  0
  3 10  1  0  0  0  0
  5  6  1  0  0  0  0
  6  7  1  0  0  0  0
  7  8  1  0  0  0  0
  8  9  1  0  0  0  0
M  END
>  <CHROM.1>
-50.09277215,-168.97629165,-81.71184771,173.15909028,-69.73560498,27.18173705
14.55908820,9.50443070,0.97970522,0.66123860,1.59360573

>  <Name>
ligand

>  <RI>
0

>  <Rbt.Current_Directory>
/home/itssahil/PROJECTS/Mol_Feturizer/New_Systems/rnas/3DIZ

>  <Rbt.Executable>
rbdock ($Id: //depot/dev/client3/rdock/2013.1/src/exe/rbdock.cxx#4 $)

>  <Rbt.Library>
libRbt.so (2013.1, Build901 2013/11/27)

>  <Rbt.Parameter_File>
/export/apps/rDock/src/rDock_2013.1_src/data/scripts/dock_solv.prm

>  <Rbt.Receptor>
prm/blind_docking_80.prm

>  <SCORE>
-6.43398

>  <SCORE.INTER>
-5.99989

>  <SCORE.INTER.CONST>
1

>  <SCORE.INTER.POLAR>
0

>  <SCORE.INTER.ROT>
5

>  <SCORE.INTER.SOLV>
12.1798

>  <SCORE.INTER.VDW>
-14.9932

>  <SCORE.INTER.norm>
-0.599989

>  <SCORE.INTRA>
-0.434088

>  <SCORE.INTRA.DIHEDRAL>
0.618681

>  <SCORE.INTRA.DIHEDRAL.0>
3.67053

>  <SCORE.INTRA.POLAR>
0

>  <SCORE.INTRA.POLAR.0>
0

>  <SCORE.INTRA.REPUL>
0

>  <SCORE.INTRA.REPUL.0>
0

>  <SCORE.INTRA.SOLV>
-0.651073

>  <SCORE.INTRA.SOLV.lig_0>
-32.0553

>  <SCORE.INTRA.VDW>
-0.417892

>  <SCORE.INTRA.VDW.0>
-0.571921

>  <SCORE.INTRA.norm>
-0.0434088

>  <SCORE.RESTR>
0

>  <SCORE.RESTR.CAVITY>
0

>  <SCORE.RESTR.norm>
0

>  <SCORE.SYSTEM>
0

>  <SCORE.SYSTEM.CONST>
0

>  <SCORE.SYSTEM.DIHEDRAL>
0

>  <SCORE.SYSTEM.SOLV>
0

>  <SCORE.SYSTEM.norm>
0

>  <SCORE.heavy>
10

>  <SCORE.norm>
-0.643398

>  <RMSD>
12.051

$$$$
ligand
 OpenBabel11021811473D
libRbt.so/2013.1/901 2013/11/27
 10  9  0  0  0  0  0  0  0  0999 V2000
   25.4799   14.5564    8.3965 N   0  0  0  0  0  0  0  0  0  0  0  0
   24.9358   14.3182    9.7671 C   0  0  2  0  0  0  0  0  0  0  0  0
   26.0497   14.1081   10.7841 C   0  0  0  0  0  0  0  0  0  0  0  0
   26.8951   13.2328   10.6336 O   0  0  0  0  0  0  0  0  0  0  0  0
   23.9615   13.1375    9.7719 C   0  0  0  0  0  0  0  0  0  0  0  0
   23.2699   12.9212   11.1070 C   0  0  0  0  0  0  0  0  0  0  0  0
   22.3420   14.0788   11.4540 C   0  0  0  0  0  0  0  0  0  0  0  0
   21.6725   13.8462   12.7985 C   0  0  0  0  0  0  0  0  0  0  0  0
   20.7445   12.6598   12.7887 N   0  0  0  0  0  0  0  0  0  0  0  0
   26.1695   14.8161   11.7747 O   0  0  0  0  0  0  0  0  0  0  0  0
  2  1  1  6  0  0  0
  2  3  1  0  0  0  0
  2  5  1  0  0  0  0
  3  4  1  0  0  0  0
  3 10  1  0  0  0  0
  5  6  1  0  0  0  0
  6  7  1  0  0  0  0
  7  8  1  0  0  0  0
  8  9  1  0  0  0  0
M  END
>  <CHROM.1>
-56.18101672,-174.54410744,65.98413029,-179.45735429,-65.25073826,24.18617853
13.76593209,10.94577016,0.44721716,-0.18738903,-1.59244343

>  <Name>
ligand

>  <RI>
0

>  <Rbt.Current_Directory>
/home/itssahil/PROJECTS/Mol_Feturizer/New_Systems/rnas/3DIZ

>  <Rbt.Executable>
rbdock ($Id: //depot/dev/client3/rdock/2013.1/src/exe/rbdock.cxx#4 $)

>  <Rbt.Library>
libRbt.so (2013.1, Build901 2013/11/27)

>  <Rbt.Parameter_File>
/export/apps/rDock/src/rDock_2013.1_src/data/scripts/dock_solv.prm

>  <Rbt.Receptor>
prm/blind_docking_40.prm

>  <SCORE>
-4.67311

>  <SCORE.INTER>
-3.48211

>  <SCORE.INTER.CONST>
1

>  <SCORE.INTER.POLAR>
0

>  <SCORE.INTER.ROT>
5

>  <SCORE.INTER.SOLV>
5.66528

>  <SCORE.INTER.VDW>
-11.1432

>  <SCORE.INTER.norm>
-0.348211

>  <SCORE.INTRA>
-1.191

>  <SCORE.INTRA.DIHEDRAL>
-1.80282

>  <SCORE.INTRA.DIHEDRAL.0>
3.67053

>  <SCORE.INTRA.POLAR>
0

>  <SCORE.INTRA.POLAR.0>
0

>  <SCORE.INTRA.REPUL>
0

>  <SCORE.INTRA.REPUL.0>
0

>  <SCORE.INTRA.SOLV>
-0.560833

>  <SCORE.INTRA.SOLV.lig_0>
-32.0553

>  <SCORE.INTRA.VDW>
-0.00917757

>  <SCORE.INTRA.VDW.0>
-0.571921

>  <SCORE.INTRA.norm>
-0.1191

>  <SCORE.RESTR>
0

>  <SCORE.RESTR.CAVITY>
0

>  <SCORE.RESTR.norm>
0

>  <SCORE.SYSTEM>
0

>  <SCORE.SYSTEM.CONST>
0

>  <SCORE.SYSTEM.DIHEDRAL>
0

>  <SCORE.SYSTEM.SOLV>
0

>  <SCORE.SYSTEM.norm>
0

>  <SCORE.heavy>
10

>  <SCORE.norm>
-0.467311

>  <RMSD>
12.114

$$$$
ligand
 OpenBabel11021811473D
libRbt.so/2013.1/901 2013/11/27
 10  9  0  0  0  0  0  0  0  0999 V2000
   26.4736   14.0006   11.0405 N   0  0  0  0  0  0  0  0  0  0  0  0
   26.8678   14.4882    9.6846 C   0  0  2  0  0  0  0  0  0  0  0  0
   28.0024   15.5011    9.7608 C   0  0  0  0  0  0  0  0  0  0  0  0
   27.9899   16.4137   10.5798 O   0  0  0  0  0  0  0  0  0  0  0  0
   25.6636   15.0711    8.9409 C   0  0  0  0  0  0  0  0  0  0  0  0
   24.6683   14.0232    8.4731 C   0  0  0  0  0  0  0  0  0  0  0  0
   23.9003   13.4161    9.6406 C   0  0  0  0  0  0  0  0  0  0  0  0
   22.8638   14.3943   10.1687 C   0  0  0  0  0  0  0  0  0  0  0  0
   22.1027   13.8536   11.3507 N   0  0  0  0  0  0  0  0  0  0  0  0
   28.9850   15.4347    9.0348 O   0  0  0  0  0  0  0  0  0  0  0  0
  2  1  1  1  0  0  0
  2  3  1  0  0  0  0
  2  5  1  0  0  0  0
  3  4  1  0  0  0  0
  3 10  1  0  0  0  0
  5  6  1  0  0  0  0
  6  7  1  0  0  0  0
  7  8  1  0  0  0  0
  8  9  1  0  0  0  0
M  END
>  <CHROM.1>
-45.33986677,-72.11640408,71.06432645,74.34144982,-178.40479011,25.78850764
14.68442581,9.86821861,-0.03403091,0.32393896,1.34164631

>  <Name>
ligand

>  <RI>
0

>  <Rbt.Current_Directory>
/home/itssahil/PROJECTS/Mol_Feturizer/New_Systems/rnas/3DIZ

>  <Rbt.Executable>
rbdock ($Id: //depot/dev/client3/rdock/2013.1/src/exe/rbdock.cxx#4 $)

>  <Rbt.Library>
libRbt.so (2013.1, Build901 2013/11/27)

>  <Rbt.Parameter_File>
/export/apps/rDock/src/rDock_2013.1_src/data/scripts/dock_solv.prm

>  <Rbt.Receptor>
prm/blind_docking_100.prm

>  <SCORE>
-5.76142

>  <SCORE.INTER>
-6.51232

>  <SCORE.INTER.CONST>
1

>  <SCORE.INTER.POLAR>
0

>  <SCORE.INTER.ROT>
5

>  <SCORE.INTER.SOLV>
7.77699

>  <SCORE.INTER.VDW>
-13.8672

>  <SCORE.INTER.norm>
-0.651232

>  <SCORE.INTRA>
0.750894

>  <SCORE.INTRA.DIHEDRAL>
-0.211745

>  <SCORE.INTRA.DIHEDRAL.0>
3.67053

>  <SCORE.INTRA.POLAR>
0

>  <SCORE.INTRA.POLAR.0>
0

>  <SCORE.INTRA.REPUL>
0

>  <SCORE.INTRA.REPUL.0>
0

>  <SCORE.INTRA.SOLV>
1.06625

>  <SCORE.INTRA.SOLV.lig_0>
-32.0553

>  <SCORE.INTRA.VDW>
0.32364

>  <SCORE.INTRA.VDW.0>
-0.571921

>  <SCORE.INTRA.norm>
0.0750894

>  <SCORE.RESTR>
0

>  <SCORE.RESTR.CAVITY>
0

>  <SCORE.RESTR.norm>
0

>  <SCORE.SYSTEM>
0

>  <SCORE.SYSTEM.CONST>
0

>  <SCORE.SYSTEM.DIHEDRAL>
0

>  <SCORE.SYSTEM.SOLV>
0

>  <SCORE.SYSTEM.norm>
0

>  <SCORE.heavy>
10

>  <SCORE.norm>
-0.576142

>  <RMSD>
12.117

$$$$
ligand
 OpenBabel11021811473D
libRbt.so/2013.1/901 2013/11/27
 10  9  0  0  0  0  0  0  0  0999 V2000
   25.8542   23.9702   17.5876 N   0  0  0  0  0  0  0  0  0  0  0  0
   25.0986   24.7908   18.5812 C   0  0  2  0  0  0  0  0  0  0  0  0
   24.3478   23.9158   19.5761 C   0  0  0  0  0  0  0  0  0  0  0  0
   23.5521   24.3964   20.3758 O   0  0  0  0  0  0  0  0  0  0  0  0
   24.1456   25.7608   17.8784 C   0  0  0  0  0  0  0  0  0  0  0  0
   24.8526   26.8195   17.0496 C   0  0  0  0  0  0  0  0  0  0  0  0
   25.7840   27.6722   17.9023 C   0  0  0  0  0  0  0  0  0  0  0  0
   26.4558   28.7427   17.0580 C   0  0  0  0  0  0  0  0  0  0  0  0
   27.4432   29.5671   17.8417 N   0  0  0  0  0  0  0  0  0  0  0  0
   24.4798   22.6998   19.6037 O   0  0  0  0  0  0  0  0  0  0  0  0
  2  1  1  6  0  0  0
  2  3  1  0  0  0  0
  2  5  1  0  0  0  0
  3  4  1  0  0  0  0
  3 10  1  0  0  0  0
  5  6  1  0  0  0  0
  6  7  1  0  0  0  0
  7  8  1  0  0  0  0
  8  9  1  0  0  0  0
M  END
>  <CHROM.1>
-171.76489764,-65.14094810,-59.53295234,-178.74571382,-176.96747804,25.18076029
25.80420099,18.37232224,-2.28326124,0.95679411,0.23494671

>  <Name>
ligand

>  <RI>
0

>  <Rbt.Current_Directory>
/home/itssahil/PROJECTS/Mol_Feturizer/New_Systems/rnas/3DIZ

>  <Rbt.Executable>
rbdock ($Id: //depot/dev/client3/rdock/2013.1/src/exe/rbdock.cxx#4 $)

>  <Rbt.Library>
libRbt.so (2013.1, Build901 2013/11/27)

>  <Rbt.Parameter_File>
/export/apps/rDock/src/rDock_2013.1_src/data/scripts/dock_solv.prm

>  <Rbt.Receptor>
prm/blind_docking_60.prm

>  <SCORE>
-2.70014

>  <SCORE.INTER>
-1.94907

>  <SCORE.INTER.CONST>
1

>  <SCORE.INTER.POLAR>
0

>  <SCORE.INTER.ROT>
5

>  <SCORE.INTER.SOLV>
4.57569

>  <SCORE.INTER.VDW>
-9.75794

>  <SCORE.INTER.norm>
-0.194907

>  <SCORE.INTRA>
-0.751076

>  <SCORE.INTRA.DIHEDRAL>
-1.98982

>  <SCORE.INTRA.DIHEDRAL.0>
3.67053

>  <SCORE.INTRA.POLAR>
0

>  <SCORE.INTRA.POLAR.0>
0

>  <SCORE.INTRA.REPUL>
0

>  <SCORE.INTRA.REPUL.0>
0

>  <SCORE.INTRA.SOLV>
-0.301388

>  <SCORE.INTRA.SOLV.lig_0>
-32.0553

>  <SCORE.INTRA.VDW>
0.394531

>  <SCORE.INTRA.VDW.0>
-0.571921

>  <SCORE.INTRA.norm>
-0.0751076

>  <SCORE.RESTR>
0

>  <SCORE.RESTR.CAVITY>
0

>  <SCORE.RESTR.norm>
0

>  <SCORE.SYSTEM>
0

>  <SCORE.SYSTEM.CONST>
0

>  <SCORE.SYSTEM.DIHEDRAL>
0

>  <SCORE.SYSTEM.SOLV>
0

>  <SCORE.SYSTEM.norm>
0

>  <SCORE.heavy>
10

>  <SCORE.norm>
-0.270014

>  <RMSD>
12.231

$$$$
ligand
 OpenBabel11021811473D
libRbt.so/2013.1/901 2013/11/27
 10  9  0  0  0  0  0  0  0  0999 V2000
   25.5631   24.0407   17.3487 N   0  0  0  0  0  0  0  0  0  0  0  0
   24.5240   25.0071   17.8152 C   0  0  2  0  0  0  0  0  0  0  0  0
   24.5854   26.3154   17.0381 C   0  0  0  0  0  0  0  0  0  0  0  0
   25.5557   26.6016   16.3451 O   0  0  0  0  0  0  0  0  0  0  0  0
   24.6468   25.2590   19.3201 C   0  0  0  0  0  0  0  0  0  0  0  0
   25.9534   25.9200   19.7245 C   0  0  0  0  0  0  0  0  0  0  0  0
   26.0469   26.1045   21.2341 C   0  0  0  0  0  0  0  0  0  0  0  0
   27.2889   26.8994   21.6023 C   0  0  0  0  0  0  0  0  0  0  0  0
   27.2360   28.3221   21.1105 N   0  0  0  0  0  0  0  0  0  0  0  0
   23.6648   27.1212   17.0452 O   0  0  0  0  0  0  0  0  0  0  0  0
  2  1  1  6  0  0  0
  2  3  1  0  0  0  0
  2  5  1  0  0  0  0
  3  4  1  0  0  0  0
  3 10  1  0  0  0  0
  5  6  1  0  0  0  0
  6  7  1  0  0  0  0
  7  8  1  0  0  0  0
  8  9  1  0  0  0  0
M  END
>  <CHROM.1>
-14.66541841,63.79435540,-178.02049252,-173.89808174,66.22957109,25.50136193
26.18472645,18.83125342,3.12519599,-1.11037152,-0.28953427

>  <Name>
ligand

>  <RI>
0

>  <Rbt.Current_Directory>
/home/itssahil/PROJECTS/Mol_Feturizer/New_Systems/rnas/3DIZ

>  <Rbt.Executable>
rbdock ($Id: //depot/dev/client3/rdock/2013.1/src/exe/rbdock.cxx#4 $)

>  <Rbt.Library>
libRbt.so (2013.1, Build901 2013/11/27)

>  <Rbt.Parameter_File>
/export/apps/rDock/src/rDock_2013.1_src/data/scripts/dock_solv.prm

>  <Rbt.Receptor>
prm/blind_docking_60.prm

>  <SCORE>
-3.67161

>  <SCORE.INTER>
-2.79232

>  <SCORE.INTER.CONST>
1

>  <SCORE.INTER.POLAR>
0

>  <SCORE.INTER.ROT>
5

>  <SCORE.INTER.SOLV>
5.29129

>  <SCORE.INTER.VDW>
-10.5586

>  <SCORE.INTER.norm>
-0.279232

>  <SCORE.INTRA>
-0.879287

>  <SCORE.INTRA.DIHEDRAL>
-1.75731

>  <SCORE.INTRA.DIHEDRAL.0>
3.67053

>  <SCORE.INTRA.POLAR>
0

>  <SCORE.INTRA.POLAR.0>
0

>  <SCORE.INTRA.REPUL>
0

>  <SCORE.INTRA.REPUL.0>
0

>  <SCORE.INTRA.SOLV>
0.0794954

>  <SCORE.INTRA.SOLV.lig_0>
-32.0553

>  <SCORE.INTRA.VDW>
-0.0403786

>  <SCORE.INTRA.VDW.0>
-0.571921

>  <SCORE.INTRA.norm>
-0.0879287

>  <SCORE.RESTR>
0

>  <SCORE.RESTR.CAVITY>
0

>  <SCORE.RESTR.norm>
0

>  <SCORE.SYSTEM>
0

>  <SCORE.SYSTEM.CONST>
0

>  <SCORE.SYSTEM.DIHEDRAL>
0

>  <SCORE.SYSTEM.SOLV>
0

>  <SCORE.SYSTEM.norm>
0

>  <SCORE.heavy>
10

>  <SCORE.norm>
-0.367161

>  <RMSD>
12.261

$$$$
ligand
 OpenBabel11021811473D
libRbt.so/2013.1/901 2013/11/27
 10  9  0  0  0  0  0  0  0  0999 V2000
   26.3662   13.1840    8.2512 N   0  0  0  0  0  0  0  0  0  0  0  0
   26.0894   14.5914    8.6682 C   0  0  2  0  0  0  0  0  0  0  0  0
   27.0343   15.0453    9.7729 C   0  0  0  0  0  0  0  0  0  0  0  0
   27.2238   14.3607   10.7724 O   0  0  0  0  0  0  0  0  0  0  0  0
   24.6290   14.7589    9.0950 C   0  0  0  0  0  0  0  0  0  0  0  0
   24.2414   13.9102   10.2939 C   0  0  0  0  0  0  0  0  0  0  0  0
   22.8005   14.1630   10.7198 C   0  0  0  0  0  0  0  0  0  0  0  0
   22.4461   13.3273   11.9388 C   0  0  0  0  0  0  0  0  0  0  0  0
   21.0171   13.5141   12.3768 N   0  0  0  0  0  0  0  0  0  0  0  0
   27.6657   16.0909    9.7015 O   0  0  0  0  0  0  0  0  0  0  0  0
  2  1  1  1  0  0  0
  2  3  1  0  0  0  0
  2  5  1  0  0  0  0
  3  4  1  0  0  0  0
  3 10  1  0  0  0  0
  5  6  1  0  0  0  0
  6  7  1  0  0  0  0
  7  8  1  0  0  0  0
  8  9  1  0  0  0  0
M  END
>  <CHROM.1>
-49.16401456,61.90032391,177.23726039,-178.71332239,-178.43074618,24.98355100
14.30804246,10.17735407,0.30846597,-0.37305697,-1.91234164

>  <Name>
ligand

>  <RI>
0

>  <Rbt.Current_Directory>
/home/itssahil/PROJECTS/Mol_Feturizer/New_Systems/rnas/3DIZ

>  <Rbt.Executable>
rbdock ($Id: //depot/dev/client3/rdock/2013.1/src/exe/rbdock.cxx#4 $)

>  <Rbt.Library>
libRbt.so (2013.1, Build901 2013/11/27)

>  <Rbt.Parameter_File>
/export/apps/rDock/src/rDock_2013.1_src/data/scripts/dock_solv.prm

>  <Rbt.Receptor>
prm/blind_docking_40.prm

>  <SCORE>
-5.46119

>  <SCORE.INTER>
-3.88494

>  <SCORE.INTER.CONST>
1

>  <SCORE.INTER.POLAR>
0

>  <SCORE.INTER.ROT>
5

>  <SCORE.INTER.SOLV>
5.84019

>  <SCORE.INTER.VDW>
-11.47

>  <SCORE.INTER.norm>
-0.388494

>  <SCORE.INTRA>
-1.57624

>  <SCORE.INTRA.DIHEDRAL>
-2.08147

>  <SCORE.INTRA.DIHEDRAL.0>
3.67053

>  <SCORE.INTRA.POLAR>
0

>  <SCORE.INTRA.POLAR.0>
0

>  <SCORE.INTRA.REPUL>
0

>  <SCORE.INTRA.REPUL.0>
0

>  <SCORE.INTRA.SOLV>
-0.858189

>  <SCORE.INTRA.SOLV.lig_0>
-32.0553

>  <SCORE.INTRA.VDW>
-0.106416

>  <SCORE.INTRA.VDW.0>
-0.571921

>  <SCORE.INTRA.norm>
-0.157624

>  <SCORE.RESTR>
0

>  <SCORE.RESTR.CAVITY>
0

>  <SCORE.RESTR.norm>
0

>  <SCORE.SYSTEM>
0

>  <SCORE.SYSTEM.CONST>
0

>  <SCORE.SYSTEM.DIHEDRAL>
0

>  <SCORE.SYSTEM.SOLV>
0

>  <SCORE.SYSTEM.norm>
0

>  <SCORE.heavy>
10

>  <SCORE.norm>
-0.546119

>  <RMSD>
12.287

$$$$
ligand
 OpenBabel11021811473D
libRbt.so/2013.1/901 2013/11/27
 10  9  0  0  0  0  0  0  0  0999 V2000
   26.3550   13.1995    8.2189 N   0  0  0  0  0  0  0  0  0  0  0  0
   26.0808   14.6002    8.6596 C   0  0  2  0  0  0  0  0  0  0  0  0
   27.0247   15.0327    9.7736 C   0  0  0  0  0  0  0  0  0  0  0  0
   27.2397   14.3141   10.7436 O   0  0  0  0  0  0  0  0  0  0  0  0
   24.6200   14.7638    9.0868 C   0  0  0  0  0  0  0  0  0  0  0  0
   24.2298   13.8997   10.2737 C   0  0  0  0  0  0  0  0  0  0  0  0
   22.7768   14.1194   10.6759 C   0  0  0  0  0  0  0  0  0  0  0  0
   22.4296   13.2971   11.9062 C   0  0  0  0  0  0  0  0  0  0  0  0
   21.0030   13.4882   12.3500 N   0  0  0  0  0  0  0  0  0  0  0  0
   27.6306   16.0952    9.7384 O   0  0  0  0  0  0  0  0  0  0  0  0
  2  1  1  1  0  0  0
  2  3  1  0  0  0  0
  2  5  1  0  0  0  0
  3  4  1  0  0  0  0
  3 10  1  0  0  0  0
  5  6  1  0  0  0  0
  6  7  1  0  0  0  0
  7  8  1  0  0  0  0
  8  9  1  0  0  0  0
M  END
>  <CHROM.1>
-47.09979920,62.12951580,178.87142943,-177.19098704,179.58995539,24.97118902
14.29404620,10.16123360,0.30602021,-0.37022218,-1.90005870

>  <Name>
ligand

>  <RI>
0

>  <Rbt.Current_Directory>
/home/itssahil/PROJECTS/Mol_Feturizer/New_Systems/rnas/3DIZ

>  <Rbt.Executable>
rbdock ($Id: //depot/dev/client3/rdock/2013.1/src/exe/rbdock.cxx#4 $)

>  <Rbt.Library>
libRbt.so (2013.1, Build901 2013/11/27)

>  <Rbt.Parameter_File>
/export/apps/rDock/src/rDock_2013.1_src/data/scripts/dock_solv.prm

>  <Rbt.Receptor>
prm/blind_docking_60.prm

>  <SCORE>
-5.47831

>  <SCORE.INTER>
-3.8878

>  <SCORE.INTER.CONST>
1

>  <SCORE.INTER.POLAR>
0

>  <SCORE.INTER.ROT>
5

>  <SCORE.INTER.SOLV>
5.77657

>  <SCORE.INTER.VDW>
-11.4507

>  <SCORE.INTER.norm>
-0.38878

>  <SCORE.INTRA>
-1.59051

>  <SCORE.INTRA.DIHEDRAL>
-2.08184

>  <SCORE.INTRA.DIHEDRAL.0>
3.67053

>  <SCORE.INTRA.POLAR>
0

>  <SCORE.INTRA.POLAR.0>
0

>  <SCORE.INTRA.REPUL>
0

>  <SCORE.INTRA.REPUL.0>
0

>  <SCORE.INTRA.SOLV>
-0.852881

>  <SCORE.INTRA.SOLV.lig_0>
-32.0553

>  <SCORE.INTRA.VDW>
-0.12315

>  <SCORE.INTRA.VDW.0>
-0.571921

>  <SCORE.INTRA.norm>
-0.159051

>  <SCORE.RESTR>
0

>  <SCORE.RESTR.CAVITY>
0

>  <SCORE.RESTR.norm>
0

>  <SCORE.SYSTEM>
0

>  <SCORE.SYSTEM.CONST>
0

>  <SCORE.SYSTEM.DIHEDRAL>
0

>  <SCORE.SYSTEM.SOLV>
0

>  <SCORE.SYSTEM.norm>
0

>  <SCORE.heavy>
10

>  <SCORE.norm>
-0.547831

>  <RMSD>
12.308

$$$$
ligand
 OpenBabel11021811473D
libRbt.so/2013.1/901 2013/11/27
 10  9  0  0  0  0  0  0  0  0999 V2000
   28.6492   15.8623    9.6191 N   0  0  0  0  0  0  0  0  0  0  0  0
   27.4048   15.4921   10.3579 C   0  0  2  0  0  0  0  0  0  0  0  0
   27.6715   14.4161   11.4020 C   0  0  0  0  0  0  0  0  0  0  0  0
   28.7971   13.9633   11.5794 O   0  0  0  0  0  0  0  0  0  0  0  0
   26.3033   15.0532    9.3898 C   0  0  0  0  0  0  0  0  0  0  0  0
   26.7331   13.9550    8.4322 C   0  0  0  0  0  0  0  0  0  0  0  0
   25.6894   13.7129    7.3489 C   0  0  0  0  0  0  0  0  0  0  0  0
   26.1932   12.6996    6.3343 C   0  0  0  0  0  0  0  0  0  0  0  0
   27.4344   13.1622    5.6173 N   0  0  0  0  0  0  0  0  0  0  0  0
   26.7883   13.9786   12.1270 O   0  0  0  0  0  0  0  0  0  0  0  0
  2  1  1  6  0  0  0
  2  3  1  0  0  0  0
  2  5  1  0  0  0  0
  3  4  1  0  0  0  0
  3 10  1  0  0  0  0
  5  6  1  0  0  0  0
  6  7  1  0  0  0  0
  7  8  1  0  0  0  0
  8  9  1  0  0  0  0
M  END
>  <CHROM.1>
0.95866607,53.19246594,-170.69009902,174.99780435,-61.52515497,27.17479391
14.21055695,9.25555954,-1.28617249,-0.55816610,-1.67332941

>  <Name>
ligand

>  <RI>
0

>  <Rbt.Current_Directory>
/home/itssahil/PROJECTS/Mol_Feturizer/New_Systems/rnas/3DIZ

>  <Rbt.Executable>
rbdock ($Id: //depot/dev/client3/rdock/2013.1/src/exe/rbdock.cxx#4 $)

>  <Rbt.Library>
libRbt.so (2013.1, Build901 2013/11/27)

>  <Rbt.Parameter_File>
/export/apps/rDock/src/rDock_2013.1_src/data/scripts/dock_solv.prm

>  <Rbt.Receptor>
prm/blind_docking_80.prm

>  <SCORE>
-5.3673

>  <SCORE.INTER>
-4.92613

>  <SCORE.INTER.CONST>
1

>  <SCORE.INTER.POLAR>
0

>  <SCORE.INTER.ROT>
5

>  <SCORE.INTER.SOLV>
10.2506

>  <SCORE.INTER.VDW>
-13.6343

>  <SCORE.INTER.norm>
-0.492613

>  <SCORE.INTRA>
-0.441169

>  <SCORE.INTRA.DIHEDRAL>
-1.50081

>  <SCORE.INTRA.DIHEDRAL.0>
3.67053

>  <SCORE.INTRA.POLAR>
0

>  <SCORE.INTRA.POLAR.0>
0

>  <SCORE.INTRA.REPUL>
0

>  <SCORE.INTRA.REPUL.0>
0

>  <SCORE.INTRA.SOLV>
0.311793

>  <SCORE.INTRA.SOLV.lig_0>
-32.0553

>  <SCORE.INTRA.VDW>
0.153337

>  <SCORE.INTRA.VDW.0>
-0.571921

>  <SCORE.INTRA.norm>
-0.0441169

>  <SCORE.RESTR>
0

>  <SCORE.RESTR.CAVITY>
0

>  <SCORE.RESTR.norm>
0

>  <SCORE.SYSTEM>
0

>  <SCORE.SYSTEM.CONST>
0

>  <SCORE.SYSTEM.DIHEDRAL>
0

>  <SCORE.SYSTEM.SOLV>
0

>  <SCORE.SYSTEM.norm>
0

>  <SCORE.heavy>
10

>  <SCORE.norm>
-0.53673

>  <RMSD>
12.414

$$$$
ligand
 OpenBabel11021811473D
libRbt.so/2013.1/901 2013/11/27
 10  9  0  0  0  0  0  0  0  0999 V2000
   28.4082   15.7393   10.8240 N   0  0  0  0  0  0  0  0  0  0  0  0
   27.0378   15.3165   10.4059 C   0  0  2  0  0  0  0  0  0  0  0  0
   26.3666   14.4582   11.4697 C   0  0  0  0  0  0  0  0  0  0  0  0
   27.0138   13.9348   12.3701 O   0  0  0  0  0  0  0  0  0  0  0  0
   27.0764   14.5882    9.0600 C   0  0  0  0  0  0  0  0  0  0  0  0
   25.7025   14.2350    8.5167 C   0  0  0  0  0  0  0  0  0  0  0  0
   25.7687   13.8039    7.0568 C   0  0  0  0  0  0  0  0  0  0  0  0
   26.5655   12.5178    6.9119 C   0  0  0  0  0  0  0  0  0  0  0  0
   26.7664   12.1167    5.4740 N   0  0  0  0  0  0  0  0  0  0  0  0
   25.1568   14.2768   11.4927 O   0  0  0  0  0  0  0  0  0  0  0  0
  2  1  1  1  0  0  0
  2  3  1  0  0  0  0
  2  5  1  0  0  0  0
  3  4  1  0  0  0  0
  3 10  1  0  0  0  0
  5  6  1  0  0  0  0
  6  7  1  0  0  0  0
  7  8  1  0  0  0  0
  8  9  1  0  0  0  0
M  END
>  <CHROM.1>
-16.52420233,-175.02896933,167.16850763,64.53664390,-174.78905761,26.57188116
14.08514783,9.39280238,-1.48812482,-0.52116002,-1.87952153

>  <Name>
ligand

>  <RI>
0

>  <Rbt.Current_Directory>
/home/itssahil/PROJECTS/Mol_Feturizer/New_Systems/rnas/3DIZ

>  <Rbt.Executable>
rbdock ($Id: //depot/dev/client3/rdock/2013.1/src/exe/rbdock.cxx#4 $)

>  <Rbt.Library>
libRbt.so (2013.1, Build901 2013/11/27)

>  <Rbt.Parameter_File>
/export/apps/rDock/src/rDock_2013.1_src/data/scripts/dock_solv.prm

>  <Rbt.Receptor>
prm/blind_docking_80.prm

>  <SCORE>
-3.95187

>  <SCORE.INTER>
-3.47022

>  <SCORE.INTER.CONST>
1

>  <SCORE.INTER.POLAR>
0

>  <SCORE.INTER.ROT>
5

>  <SCORE.INTER.SOLV>
11.4172

>  <SCORE.INTER.VDW>
-13.0526

>  <SCORE.INTER.norm>
-0.347022

>  <SCORE.INTRA>
-0.481647

>  <SCORE.INTRA.DIHEDRAL>
-1.17961

>  <SCORE.INTRA.DIHEDRAL.0>
3.67053

>  <SCORE.INTRA.POLAR>
0

>  <SCORE.INTRA.POLAR.0>
0

>  <SCORE.INTRA.REPUL>
0

>  <SCORE.INTRA.REPUL.0>
0

>  <SCORE.INTRA.SOLV>
-1.41599

>  <SCORE.INTRA.SOLV.lig_0>
-32.0553

>  <SCORE.INTRA.VDW>
0.816151

>  <SCORE.INTRA.VDW.0>
-0.571921

>  <SCORE.INTRA.norm>
-0.0481647

>  <SCORE.RESTR>
0

>  <SCORE.RESTR.CAVITY>
0

>  <SCORE.RESTR.norm>
0

>  <SCORE.SYSTEM>
0

>  <SCORE.SYSTEM.CONST>
0

>  <SCORE.SYSTEM.DIHEDRAL>
0

>  <SCORE.SYSTEM.SOLV>
0

>  <SCORE.SYSTEM.norm>
0

>  <SCORE.heavy>
10

>  <SCORE.norm>
-0.395187

>  <RMSD>
12.576

$$$$
ligand
 OpenBabel11021811473D
libRbt.so/2013.1/901 2013/11/27
 10  9  0  0  0  0  0  0  0  0999 V2000
   23.7711   13.8821    8.5061 N   0  0  0  0  0  0  0  0  0  0  0  0
   24.5889   13.4542    9.6806 C   0  0  2  0  0  0  0  0  0  0  0  0
   23.7129   13.0986   10.8745 C   0  0  0  0  0  0  0  0  0  0  0  0
   23.1200   13.9625   11.5114 O   0  0  0  0  0  0  0  0  0  0  0  0
   25.6133   14.5282   10.0550 C   0  0  0  0  0  0  0  0  0  0  0  0
   26.7597   14.0093   10.9061 C   0  0  0  0  0  0  0  0  0  0  0  0
   27.6637   15.1398   11.3817 C   0  0  0  0  0  0  0  0  0  0  0  0
   28.2453   15.8966   10.1989 C   0  0  0  0  0  0  0  0  0  0  0  0
   29.1072   15.0287    9.3199 N   0  0  0  0  0  0  0  0  0  0  0  0
   23.5374   11.9418   11.2323 O   0  0  0  0  0  0  0  0  0  0  0  0
  2  1  1  6  0  0  0
  2  3  1  0  0  0  0
  2  5  1  0  0  0  0
  3  4  1  0  0  0  0
  3 10  1  0  0  0  0
  5  6  1  0  0  0  0
  6  7  1  0  0  0  0
  7  8  1  0  0  0  0
  8  9  1  0  0  0  0
M  END
>  <CHROM.1>
-71.63888835,-160.84270981,-173.58165763,-58.99085466,-61.88212415,25.58231075
14.08093947,10.39281562,2.98551239,0.40673659,1.72543567

>  <Name>
ligand

>  <RI>
0

>  <Rbt.Current_Directory>
/home/itssahil/PROJECTS/Mol_Feturizer/New_Systems/rnas/3DIZ

>  <Rbt.Executable>
rbdock ($Id: //depot/dev/client3/rdock/2013.1/src/exe/rbdock.cxx#4 $)

>  <Rbt.Library>
libRbt.so (2013.1, Build901 2013/11/27)

>  <Rbt.Parameter_File>
/export/apps/rDock/src/rDock_2013.1_src/data/scripts/dock_solv.prm

>  <Rbt.Receptor>
prm/blind_docking_60.prm

>  <SCORE>
-3.8682

>  <SCORE.INTER>
-4.40242

>  <SCORE.INTER.CONST>
1

>  <SCORE.INTER.POLAR>
0

>  <SCORE.INTER.ROT>
5

>  <SCORE.INTER.SOLV>
13.0553

>  <SCORE.INTER.VDW>
-14.22

>  <SCORE.INTER.norm>
-0.440242

>  <SCORE.INTRA>
0.534221

>  <SCORE.INTRA.DIHEDRAL>
-0.725006

>  <SCORE.INTRA.DIHEDRAL.0>
3.67053

>  <SCORE.INTRA.POLAR>
0

>  <SCORE.INTRA.POLAR.0>
0

>  <SCORE.INTRA.REPUL>
0

>  <SCORE.INTRA.REPUL.0>
0

>  <SCORE.INTRA.SOLV>
-0.103349

>  <SCORE.INTRA.SOLV.lig_0>
-32.0553

>  <SCORE.INTRA.VDW>
0.948398

>  <SCORE.INTRA.VDW.0>
-0.571921

>  <SCORE.INTRA.norm>
0.0534221

>  <SCORE.RESTR>
0

>  <SCORE.RESTR.CAVITY>
0

>  <SCORE.RESTR.norm>
0

>  <SCORE.SYSTEM>
0

>  <SCORE.SYSTEM.CONST>
0

>  <SCORE.SYSTEM.DIHEDRAL>
0

>  <SCORE.SYSTEM.SOLV>
0

>  <SCORE.SYSTEM.norm>
0

>  <SCORE.heavy>
10

>  <SCORE.norm>
-0.38682

>  <RMSD>
12.623

$$$$
ligand
 OpenBabel11021811473D
libRbt.so/2013.1/901 2013/11/27
 10  9  0  0  0  0  0  0  0  0999 V2000
   25.2786   14.4452   11.1373 N   0  0  0  0  0  0  0  0  0  0  0  0
   26.6203   14.0822   10.5900 C   0  0  2  0  0  0  0  0  0  0  0  0
   27.7324   14.8825   11.2545 C   0  0  0  0  0  0  0  0  0  0  0  0
   28.6307   14.3300   11.8802 O   0  0  0  0  0  0  0  0  0  0  0  0
   26.6562   14.2547    9.0694 C   0  0  0  0  0  0  0  0  0  0  0  0
   25.6111   13.4316    8.3360 C   0  0  0  0  0  0  0  0  0  0  0  0
   25.8152   13.4790    6.8269 C   0  0  0  0  0  0  0  0  0  0  0  0
   27.0608   12.7044    6.4285 C   0  0  0  0  0  0  0  0  0  0  0  0
   27.3166   12.7374    4.9445 N   0  0  0  0  0  0  0  0  0  0  0  0
   27.7976   16.1014   11.1705 O   0  0  0  0  0  0  0  0  0  0  0  0
  2  1  1  1  0  0  0
  2  3  1  0  0  0  0
  2  5  1  0  0  0  0
  3  4  1  0  0  0  0
  3 10  1  0  0  0  0
  5  6  1  0  0  0  0
  6  7  1  0  0  0  0
  7  8  1  0  0  0  0
  8  9  1  0  0  0  0
M  END
>  <CHROM.1>
119.31947674,-57.98392342,-171.75760157,70.39570428,-179.21867343,26.87928075
14.06546090,9.19008968,1.42559621,0.09396614,1.22802698

>  <Name>
ligand

>  <RI>
0

>  <Rbt.Current_Directory>
/home/itssahil/PROJECTS/Mol_Feturizer/New_Systems/rnas/3DIZ

>  <Rbt.Executable>
rbdock ($Id: //depot/dev/client3/rdock/2013.1/src/exe/rbdock.cxx#4 $)

>  <Rbt.Library>
libRbt.so (2013.1, Build901 2013/11/27)

>  <Rbt.Parameter_File>
/export/apps/rDock/src/rDock_2013.1_src/data/scripts/dock_solv.prm

>  <Rbt.Receptor>
prm/blind_docking_80.prm

>  <SCORE>
-5.64439

>  <SCORE.INTER>
-5.01988

>  <SCORE.INTER.CONST>
1

>  <SCORE.INTER.POLAR>
0

>  <SCORE.INTER.ROT>
5

>  <SCORE.INTER.SOLV>
7.45948

>  <SCORE.INTER.VDW>
-12.7664

>  <SCORE.INTER.norm>
-0.501988

>  <SCORE.INTRA>
-0.624513

>  <SCORE.INTRA.DIHEDRAL>
-1.42462

>  <SCORE.INTRA.DIHEDRAL.0>
3.67053

>  <SCORE.INTRA.POLAR>
0

>  <SCORE.INTRA.POLAR.0>
0

>  <SCORE.INTRA.REPUL>
0

>  <SCORE.INTRA.REPUL.0>
0

>  <SCORE.INTRA.SOLV>
-0.618743

>  <SCORE.INTRA.SOLV.lig_0>
-32.0553

>  <SCORE.INTRA.VDW>
0.39717

>  <SCORE.INTRA.VDW.0>
-0.571921

>  <SCORE.INTRA.norm>
-0.0624513

>  <SCORE.RESTR>
0

>  <SCORE.RESTR.CAVITY>
0

>  <SCORE.RESTR.norm>
0

>  <SCORE.SYSTEM>
0

>  <SCORE.SYSTEM.CONST>
0

>  <SCORE.SYSTEM.DIHEDRAL>
0

>  <SCORE.SYSTEM.SOLV>
0

>  <SCORE.SYSTEM.norm>
0

>  <SCORE.heavy>
10

>  <SCORE.norm>
-0.564439

>  <RMSD>
12.662

$$$$
ligand
 OpenBabel11021811473D
libRbt.so/2013.1/901 2013/11/27
 10  9  0  0  0  0  0  0  0  0999 V2000
   25.1517   14.3078   11.0635 N   0  0  0  0  0  0  0  0  0  0  0  0
   26.5516   14.0749   10.5973 C   0  0  2  0  0  0  0  0  0  0  0  0
   27.5406   14.9828   11.3162 C   0  0  0  0  0  0  0  0  0  0  0  0
   28.2242   14.5719   12.2476 O   0  0  0  0  0  0  0  0  0  0  0  0
   26.6585   14.2434    9.0796 C   0  0  0  0  0  0  0  0  0  0  0  0
   25.7438   13.3178    8.2960 C   0  0  0  0  0  0  0  0  0  0  0  0
   26.0474   13.3582    6.8034 C   0  0  0  0  0  0  0  0  0  0  0  0
   27.3628   12.6582    6.5036 C   0  0  0  0  0  0  0  0  0  0  0  0
   27.7088   12.6732    5.0377 N   0  0  0  0  0  0  0  0  0  0  0  0
   27.7194   16.1460   10.9815 O   0  0  0  0  0  0  0  0  0  0  0  0
  2  1  1  1  0  0  0
  2  3  1  0  0  0  0
  2  5  1  0  0  0  0
  3  4  1  0  0  0  0
  3 10  1  0  0  0  0
  5  6  1  0  0  0  0
  6  7  1  0  0  0  0
  7  8  1  0  0  0  0
  8  9  1  0  0  0  0
M  END
>  <CHROM.1>
100.58618783,-58.06216817,-170.65210082,71.95686208,-179.91343434,26.89451071
14.05678620,9.22030509,1.51358043,0.22762542,1.20976710

>  <Name>
ligand

>  <RI>
0

>  <Rbt.Current_Directory>
/home/itssahil/PROJECTS/Mol_Feturizer/New_Systems/rnas/3DIZ

>  <Rbt.Executable>
rbdock ($Id: //depot/dev/client3/rdock/2013.1/src/exe/rbdock.cxx#4 $)

>  <Rbt.Library>
libRbt.so (2013.1, Build901 2013/11/27)

>  <Rbt.Parameter_File>
/export/apps/rDock/src/rDock_2013.1_src/data/scripts/dock_solv.prm

>  <Rbt.Receptor>
prm/blind_docking_80.prm

>  <SCORE>
-5.49054

>  <SCORE.INTER>
-5.11983

>  <SCORE.INTER.CONST>
1

>  <SCORE.INTER.POLAR>
0

>  <SCORE.INTER.ROT>
5

>  <SCORE.INTER.SOLV>
6.62361

>  <SCORE.INTER.VDW>
-12.5544

>  <SCORE.INTER.norm>
-0.511983

>  <SCORE.INTRA>
-0.370705

>  <SCORE.INTRA.DIHEDRAL>
-1.1635

>  <SCORE.INTRA.DIHEDRAL.0>
3.67053

>  <SCORE.INTRA.POLAR>
0

>  <SCORE.INTRA.POLAR.0>
0

>  <SCORE.INTRA.REPUL>
0

>  <SCORE.INTRA.REPUL.0>
0

>  <SCORE.INTRA.SOLV>
-0.642417

>  <SCORE.INTRA.SOLV.lig_0>
-32.0553

>  <SCORE.INTRA.VDW>
0.532254

>  <SCORE.INTRA.VDW.0>
-0.571921

>  <SCORE.INTRA.norm>
-0.0370705

>  <SCORE.RESTR>
0

>  <SCORE.RESTR.CAVITY>
0

>  <SCORE.RESTR.norm>
0

>  <SCORE.SYSTEM>
0

>  <SCORE.SYSTEM.CONST>
0

>  <SCORE.SYSTEM.DIHEDRAL>
0

>  <SCORE.SYSTEM.SOLV>
0

>  <SCORE.SYSTEM.norm>
0

>  <SCORE.heavy>
10

>  <SCORE.norm>
-0.549054

>  <RMSD>
12.669

$$$$
ligand
 OpenBabel11021811473D
libRbt.so/2013.1/901 2013/11/27
 10  9  0  0  0  0  0  0  0  0999 V2000
   24.3472   14.7460    8.5563 N   0  0  0  0  0  0  0  0  0  0  0  0
   24.5785   13.4345    9.2331 C   0  0  2  0  0  0  0  0  0  0  0  0
   23.4516   13.0955   10.1995 C   0  0  0  0  0  0  0  0  0  0  0  0
   22.4174   13.7536   10.2308 O   0  0  0  0  0  0  0  0  0  0  0  0
   25.9332   13.4176    9.9455 C   0  0  0  0  0  0  0  0  0  0  0  0
   26.0447   14.4318   11.0710 C   0  0  0  0  0  0  0  0  0  0  0  0
   27.4458   14.4566   11.6691 C   0  0  0  0  0  0  0  0  0  0  0  0
   28.4462   15.0168   10.6714 C   0  0  0  0  0  0  0  0  0  0  0  0
   28.0989   16.4112   10.2200 N   0  0  0  0  0  0  0  0  0  0  0  0
   23.5125   12.1409   10.9624 O   0  0  0  0  0  0  0  0  0  0  0  0
  2  1  1  1  0  0  0
  2  3  1  0  0  0  0
  2  5  1  0  0  0  0
  3  4  1  0  0  0  0
  3 10  1  0  0  0  0
  5  6  1  0  0  0  0
  6  7  1  0  0  0  0
  7  8  1  0  0  0  0
  8  9  1  0  0  0  0
M  END
>  <CHROM.1>
9.77647579,63.37961131,-175.20313617,68.22529313,58.48150560,25.39281666
14.07695706,10.29366740,2.94932499,0.40264865,2.30493231

>  <Name>
ligand

>  <RI>
0

>  <Rbt.Current_Directory>
/home/itssahil/PROJECTS/Mol_Feturizer/New_Systems/rnas/3DIZ

>  <Rbt.Executable>
rbdock ($Id: //depot/dev/client3/rdock/2013.1/src/exe/rbdock.cxx#4 $)

>  <Rbt.Library>
libRbt.so (2013.1, Build901 2013/11/27)

>  <Rbt.Parameter_File>
/export/apps/rDock/src/rDock_2013.1_src/data/scripts/dock_solv.prm

>  <Rbt.Receptor>
prm/blind_docking_100.prm

>  <SCORE>
-4.55608

>  <SCORE.INTER>
-4.92147

>  <SCORE.INTER.CONST>
1

>  <SCORE.INTER.POLAR>
0

>  <SCORE.INTER.ROT>
5

>  <SCORE.INTER.SOLV>
14.7239

>  <SCORE.INTER.VDW>
-15.1223

>  <SCORE.INTER.norm>
-0.492147

>  <SCORE.INTRA>
0.365386

>  <SCORE.INTRA.DIHEDRAL>
-1.7726

>  <SCORE.INTRA.DIHEDRAL.0>
3.67053

>  <SCORE.INTRA.POLAR>
0

>  <SCORE.INTRA.POLAR.0>
0

>  <SCORE.INTRA.REPUL>
0

>  <SCORE.INTRA.REPUL.0>
0

>  <SCORE.INTRA.SOLV>
0.774905

>  <SCORE.INTRA.SOLV.lig_0>
-32.0553

>  <SCORE.INTRA.VDW>
0.864234

>  <SCORE.INTRA.VDW.0>
-0.571921

>  <SCORE.INTRA.norm>
0.0365386

>  <SCORE.RESTR>
0

>  <SCORE.RESTR.CAVITY>
0

>  <SCORE.RESTR.norm>
0

>  <SCORE.SYSTEM>
0

>  <SCORE.SYSTEM.CONST>
0

>  <SCORE.SYSTEM.DIHEDRAL>
0

>  <SCORE.SYSTEM.SOLV>
0

>  <SCORE.SYSTEM.norm>
0

>  <SCORE.heavy>
10

>  <SCORE.norm>
-0.455608

>  <RMSD>
12.779

$$$$
ligand
 OpenBabel11021811473D
libRbt.so/2013.1/901 2013/11/27
 10  9  0  0  0  0  0  0  0  0999 V2000
   27.0668   14.6034    9.7906 N   0  0  0  0  0  0  0  0  0  0  0  0
   25.7026   14.0369    9.5683 C   0  0  2  0  0  0  0  0  0  0  0  0
   24.9888   14.7292    8.4150 C   0  0  0  0  0  0  0  0  0  0  0  0
   25.0376   15.9461    8.2720 O   0  0  0  0  0  0  0  0  0  0  0  0
   24.8662   14.1050   10.8486 C   0  0  0  0  0  0  0  0  0  0  0  0
   23.4656   13.5375   10.6945 C   0  0  0  0  0  0  0  0  0  0  0  0
   22.6326   13.7459   11.9532 C   0  0  0  0  0  0  0  0  0  0  0  0
   21.1957   13.3060   11.7255 C   0  0  0  0  0  0  0  0  0  0  0  0
   20.3184   13.5394   12.9274 N   0  0  0  0  0  0  0  0  0  0  0  0
   24.3637   14.1062    7.5676 O   0  0  0  0  0  0  0  0  0  0  0  0
  2  1  1  1  0  0  0
  2  3  1  0  0  0  0
  2  5  1  0  0  0  0
  3  4  1  0  0  0  0
  3 10  1  0  0  0  0
  5  6  1  0  0  0  0
  6  7  1  0  0  0  0
  7  8  1  0  0  0  0
  8  9  1  0  0  0  0
M  END
>  <CHROM.1>
-42.27962022,-179.71600225,-174.67889114,173.94986587,-177.90201428,23.95741149
14.18249207,10.14234887,-0.71447028,0.08912963,1.81880654

>  <Name>
ligand

>  <RI>
0

>  <Rbt.Current_Directory>
/home/itssahil/PROJECTS/Mol_Feturizer/New_Systems/rnas/3DIZ

>  <Rbt.Executable>
rbdock ($Id: //depot/dev/client3/rdock/2013.1/src/exe/rbdock.cxx#4 $)

>  <Rbt.Library>
libRbt.so (2013.1, Build901 2013/11/27)

>  <Rbt.Parameter_File>
/export/apps/rDock/src/rDock_2013.1_src/data/scripts/dock_solv.prm

>  <Rbt.Receptor>
prm/blind_docking_80.prm

>  <SCORE>
-5.5833

>  <SCORE.INTER>
-3.63615

>  <SCORE.INTER.CONST>
1

>  <SCORE.INTER.POLAR>
0

>  <SCORE.INTER.ROT>
5

>  <SCORE.INTER.SOLV>
4.70421

>  <SCORE.INTER.VDW>
-10.9255

>  <SCORE.INTER.norm>
-0.363615

>  <SCORE.INTRA>
-1.94715

>  <SCORE.INTRA.DIHEDRAL>
-1.83568

>  <SCORE.INTRA.DIHEDRAL.0>
3.67053

>  <SCORE.INTRA.POLAR>
0

>  <SCORE.INTRA.POLAR.0>
0

>  <SCORE.INTRA.REPUL>
0

>  <SCORE.INTRA.REPUL.0>
0

>  <SCORE.INTRA.SOLV>
-1.71165

>  <SCORE.INTRA.SOLV.lig_0>
-32.0553

>  <SCORE.INTRA.VDW>
-0.173482

>  <SCORE.INTRA.VDW.0>
-0.571921

>  <SCORE.INTRA.norm>
-0.194715

>  <SCORE.RESTR>
0

>  <SCORE.RESTR.CAVITY>
0

>  <SCORE.RESTR.norm>
0

>  <SCORE.SYSTEM>
0

>  <SCORE.SYSTEM.CONST>
0

>  <SCORE.SYSTEM.DIHEDRAL>
0

>  <SCORE.SYSTEM.SOLV>
0

>  <SCORE.SYSTEM.norm>
0

>  <SCORE.heavy>
10

>  <SCORE.norm>
-0.55833

>  <RMSD>
12.932

$$$$
ligand
 OpenBabel11021811473D
libRbt.so/2013.1/901 2013/11/27
 10  9  0  0  0  0  0  0  0  0999 V2000
   26.6799   13.9476   10.8943 N   0  0  0  0  0  0  0  0  0  0  0  0
   27.0026   14.5562    9.5688 C   0  0  2  0  0  0  0  0  0  0  0  0
   28.1138   15.5913    9.6824 C   0  0  0  0  0  0  0  0  0  0  0  0
   28.0653   16.4919   10.5131 O   0  0  0  0  0  0  0  0  0  0  0  0
   25.7530   15.1641    8.9267 C   0  0  0  0  0  0  0  0  0  0  0  0
   24.8029   14.1329    8.3424 C   0  0  0  0  0  0  0  0  0  0  0  0
   25.2624   13.6590    6.9691 C   0  0  0  0  0  0  0  0  0  0  0  0
   26.4945   12.7772    7.0895 C   0  0  0  0  0  0  0  0  0  0  0  0
   27.0275   12.3366    5.7514 N   0  0  0  0  0  0  0  0  0  0  0  0
   29.1125   15.5552    8.9764 O   0  0  0  0  0  0  0  0  0  0  0  0
  2  1  1  1  0  0  0
  2  3  1  0  0  0  0
  2  5  1  0  0  0  0
  3  4  1  0  0  0  0
  3 10  1  0  0  0  0
  5  6  1  0  0  0  0
  6  7  1  0  0  0  0
  7  8  1  0  0  0  0
  8  9  1  0  0  0  0
M  END
>  <CHROM.1>
-50.73865327,-75.48728679,-80.51664959,71.61675101,-177.23443156,26.86103941
14.44868197,8.68069019,1.12887338,0.23981454,1.00774967

>  <Name>
ligand

>  <RI>
0

>  <Rbt.Current_Directory>
/home/itssahil/PROJECTS/Mol_Feturizer/New_Systems/rnas/3DIZ

>  <Rbt.Executable>
rbdock ($Id: //depot/dev/client3/rdock/2013.1/src/exe/rbdock.cxx#4 $)

>  <Rbt.Library>
libRbt.so (2013.1, Build901 2013/11/27)

>  <Rbt.Parameter_File>
/export/apps/rDock/src/rDock_2013.1_src/data/scripts/dock_solv.prm

>  <Rbt.Receptor>
prm/blind_docking_60.prm

>  <SCORE>
-5.08688

>  <SCORE.INTER>
-6.03488

>  <SCORE.INTER.CONST>
1

>  <SCORE.INTER.POLAR>
0

>  <SCORE.INTER.ROT>
5

>  <SCORE.INTER.SOLV>
7.848

>  <SCORE.INTER.VDW>
-13.5726

>  <SCORE.INTER.norm>
-0.603488

>  <SCORE.INTRA>
0.947992

>  <SCORE.INTRA.DIHEDRAL>
0.962754

>  <SCORE.INTRA.DIHEDRAL.0>
3.67053

>  <SCORE.INTRA.POLAR>
0

>  <SCORE.INTRA.POLAR.0>
0

>  <SCORE.INTRA.REPUL>
0

>  <SCORE.INTRA.REPUL.0>
0

>  <SCORE.INTRA.SOLV>
0.181438

>  <SCORE.INTRA.SOLV.lig_0>
-32.0553

>  <SCORE.INTRA.VDW>
0.375896

>  <SCORE.INTRA.VDW.0>
-0.571921

>  <SCORE.INTRA.norm>
0.0947992

>  <SCORE.RESTR>
0

>  <SCORE.RESTR.CAVITY>
0

>  <SCORE.RESTR.norm>
0

>  <SCORE.SYSTEM>
0

>  <SCORE.SYSTEM.CONST>
0

>  <SCORE.SYSTEM.DIHEDRAL>
0

>  <SCORE.SYSTEM.SOLV>
0

>  <SCORE.SYSTEM.norm>
0

>  <SCORE.heavy>
10

>  <SCORE.norm>
-0.508688

>  <RMSD>
12.945

$$$$
ligand
 OpenBabel11021811473D
libRbt.so/2013.1/901 2013/11/27
 10  9  0  0  0  0  0  0  0  0999 V2000
   23.1349   13.0899   11.6019 N   0  0  0  0  0  0  0  0  0  0  0  0
   23.9972   14.0084   10.7993 C   0  0  2  0  0  0  0  0  0  0  0  0
   23.2024   14.7136    9.7083 C   0  0  0  0  0  0  0  0  0  0  0  0
   21.9762   14.7163    9.7119 O   0  0  0  0  0  0  0  0  0  0  0  0
   25.1928   13.2585   10.2065 C   0  0  0  0  0  0  0  0  0  0  0  0
   26.2934   14.1711    9.6934 C   0  0  0  0  0  0  0  0  0  0  0  0
   27.0557   14.8306   10.8360 C   0  0  0  0  0  0  0  0  0  0  0  0
   28.0786   15.8186   10.2998 C   0  0  0  0  0  0  0  0  0  0  0  0
   29.0693   15.1792    9.3625 N   0  0  0  0  0  0  0  0  0  0  0  0
   23.7455   15.3303    8.8018 O   0  0  0  0  0  0  0  0  0  0  0  0
  2  1  1  6  0  0  0
  2  3  1  0  0  0  0
  2  5  1  0  0  0  0
  3  4  1  0  0  0  0
  3 10  1  0  0  0  0
  5  6  1  0  0  0  0
  6  7  1  0  0  0  0
  7  8  1  0  0  0  0
  8  9  1  0  0  0  0
M  END
>  <CHROM.1>
14.22258097,-164.86000801,72.19185344,-175.64204008,-57.95355072,25.14623615
14.52677124,10.07905179,-2.99983622,-0.09872732,-0.80982492

>  <Name>
ligand

>  <RI>
0

>  <Rbt.Current_Directory>
/home/itssahil/PROJECTS/Mol_Feturizer/New_Systems/rnas/3DIZ

>  <Rbt.Executable>
rbdock ($Id: //depot/dev/client3/rdock/2013.1/src/exe/rbdock.cxx#4 $)

>  <Rbt.Library>
libRbt.so (2013.1, Build901 2013/11/27)

>  <Rbt.Parameter_File>
/export/apps/rDock/src/rDock_2013.1_src/data/scripts/dock_solv.prm

>  <Rbt.Receptor>
prm/blind_docking_40.prm

>  <SCORE>
-4.89587

>  <SCORE.INTER>
-4.83481

>  <SCORE.INTER.CONST>
1

>  <SCORE.INTER.POLAR>
0

>  <SCORE.INTER.ROT>
5

>  <SCORE.INTER.SOLV>
12.549

>  <SCORE.INTER.VDW>
-14.3395

>  <SCORE.INTER.norm>
-0.483481

>  <SCORE.INTRA>
-0.0610556

>  <SCORE.INTRA.DIHEDRAL>
-0.681611

>  <SCORE.INTRA.DIHEDRAL.0>
3.67053

>  <SCORE.INTRA.POLAR>
0

>  <SCORE.INTRA.POLAR.0>
0

>  <SCORE.INTRA.REPUL>
0

>  <SCORE.INTRA.REPUL.0>
0

>  <SCORE.INTRA.SOLV>
-0.414728

>  <SCORE.INTRA.SOLV.lig_0>
-32.0553

>  <SCORE.INTRA.VDW>
0.487114

>  <SCORE.INTRA.VDW.0>
-0.571921

>  <SCORE.INTRA.norm>
-0.00610556

>  <SCORE.RESTR>
0

>  <SCORE.RESTR.CAVITY>
0

>  <SCORE.RESTR.norm>
0

>  <SCORE.SYSTEM>
0

>  <SCORE.SYSTEM.CONST>
0

>  <SCORE.SYSTEM.DIHEDRAL>
0

>  <SCORE.SYSTEM.SOLV>
0

>  <SCORE.SYSTEM.norm>
0

>  <SCORE.heavy>
10

>  <SCORE.norm>
-0.489587

>  <RMSD>
12.994

$$$$
ligand
 OpenBabel11021811473D
libRbt.so/2013.1/901 2013/11/27
 10  9  0  0  0  0  0  0  0  0999 V2000
   28.0904   14.8733    9.9720 N   0  0  0  0  0  0  0  0  0  0  0  0
   26.6176   14.6517   10.0868 C   0  0  2  0  0  0  0  0  0  0  0  0
   26.2096   14.3230   11.5167 C   0  0  0  0  0  0  0  0  0  0  0  0
   27.0284   14.3182   12.4295 O   0  0  0  0  0  0  0  0  0  0  0  0
   26.1513   13.5599    9.1206 C   0  0  0  0  0  0  0  0  0  0  0  0
   26.4862   13.8464    7.6669 C   0  0  0  0  0  0  0  0  0  0  0  0
   26.0505   12.7069    6.7541 C   0  0  0  0  0  0  0  0  0  0  0  0
   26.4530   12.9869    5.3155 C   0  0  0  0  0  0  0  0  0  0  0  0
   27.9467   13.0477    5.1306 N   0  0  0  0  0  0  0  0  0  0  0  0
   25.0505   14.0798   11.8240 O   0  0  0  0  0  0  0  0  0  0  0  0
  2  1  1  1  0  0  0
  2  3  1  0  0  0  0
  2  5  1  0  0  0  0
  3  4  1  0  0  0  0
  3 10  1  0  0  0  0
  5  6  1  0  0  0  0
  6  7  1  0  0  0  0
  7  8  1  0  0  0  0
  8  9  1  0  0  0  0
M  END
>  <CHROM.1>
3.13237470,-57.22024749,177.77056786,-177.38734276,64.11175397,26.59775452
13.83668776,9.02589907,-1.66880360,-0.35092541,-1.82135077

>  <Name>
ligand

>  <RI>
0

>  <Rbt.Current_Directory>
/home/itssahil/PROJECTS/Mol_Feturizer/New_Systems/rnas/3DIZ

>  <Rbt.Executable>
rbdock ($Id: //depot/dev/client3/rdock/2013.1/src/exe/rbdock.cxx#4 $)

>  <Rbt.Library>
libRbt.so (2013.1, Build901 2013/11/27)

>  <Rbt.Parameter_File>
/export/apps/rDock/src/rDock_2013.1_src/data/scripts/dock_solv.prm

>  <Rbt.Receptor>
prm/blind_docking_80.prm

>  <SCORE>
-4.4523

>  <SCORE.INTER>
-3.63207

>  <SCORE.INTER.CONST>
1

>  <SCORE.INTER.POLAR>
0

>  <SCORE.INTER.ROT>
5

>  <SCORE.INTER.SOLV>
6.79784

>  <SCORE.INTER.VDW>
-11.6207

>  <SCORE.INTER.norm>
-0.363207

>  <SCORE.INTRA>
-0.820224

>  <SCORE.INTRA.DIHEDRAL>
-2.03619

>  <SCORE.INTRA.DIHEDRAL.0>
3.67053

>  <SCORE.INTRA.POLAR>
0

>  <SCORE.INTRA.POLAR.0>
0

>  <SCORE.INTRA.REPUL>
0

>  <SCORE.INTRA.REPUL.0>
0

>  <SCORE.INTRA.SOLV>
0.179485

>  <SCORE.INTRA.SOLV.lig_0>
-32.0553

>  <SCORE.INTRA.VDW>
0.108127

>  <SCORE.INTRA.VDW.0>
-0.571921

>  <SCORE.INTRA.norm>
-0.0820224

>  <SCORE.RESTR>
0

>  <SCORE.RESTR.CAVITY>
0

>  <SCORE.RESTR.norm>
0

>  <SCORE.SYSTEM>
0

>  <SCORE.SYSTEM.CONST>
0

>  <SCORE.SYSTEM.DIHEDRAL>
0

>  <SCORE.SYSTEM.SOLV>
0

>  <SCORE.SYSTEM.norm>
0

>  <SCORE.heavy>
10

>  <SCORE.norm>
-0.44523

>  <RMSD>
13.018

$$$$
ligand
 OpenBabel11021811473D
libRbt.so/2013.1/901 2013/11/27
 10  9  0  0  0  0  0  0  0  0999 V2000
   27.0342   14.9648    9.8208 N   0  0  0  0  0  0  0  0  0  0  0  0
   25.8192   14.2960    9.2659 C   0  0  2  0  0  0  0  0  0  0  0  0
   25.3033   15.0108    8.0241 C   0  0  0  0  0  0  0  0  0  0  0  0
   25.2457   14.4437    6.9385 O   0  0  0  0  0  0  0  0  0  0  0  0
   24.7223   14.1848   10.3278 C   0  0  0  0  0  0  0  0  0  0  0  0
   23.5305   13.3506    9.8905 C   0  0  0  0  0  0  0  0  0  0  0  0
   22.4161   13.3736   10.9293 C   0  0  0  0  0  0  0  0  0  0  0  0
   22.8416   12.6389   12.1899 C   0  0  0  0  0  0  0  0  0  0  0  0
   21.7463   12.5718   13.2218 N   0  0  0  0  0  0  0  0  0  0  0  0
   24.8977   16.1646    8.0577 O   0  0  0  0  0  0  0  0  0  0  0  0
  2  1  1  1  0  0  0
  2  3  1  0  0  0  0
  2  5  1  0  0  0  0
  3  4  1  0  0  0  0
  3 10  1  0  0  0  0
  5  6  1  0  0  0  0
  6  7  1  0  0  0  0
  7  8  1  0  0  0  0
  8  9  1  0  0  0  0
M  END
>  <CHROM.1>
118.79943967,-172.21450749,-174.88549379,-68.15509678,-177.01445293,24.35172123
14.11931681,9.83055049,-0.93429921,0.28855040,1.87040466

>  <Name>
ligand

>  <RI>
0

>  <Rbt.Current_Directory>
/home/itssahil/PROJECTS/Mol_Feturizer/New_Systems/rnas/3DIZ

>  <Rbt.Executable>
rbdock ($Id: //depot/dev/client3/rdock/2013.1/src/exe/rbdock.cxx#4 $)

>  <Rbt.Library>
libRbt.so (2013.1, Build901 2013/11/27)

>  <Rbt.Parameter_File>
/export/apps/rDock/src/rDock_2013.1_src/data/scripts/dock_solv.prm

>  <Rbt.Receptor>
prm/blind_docking_100.prm

>  <SCORE>
-5.69275

>  <SCORE.INTER>
-4.59182

>  <SCORE.INTER.CONST>
1

>  <SCORE.INTER.POLAR>
0

>  <SCORE.INTER.ROT>
5

>  <SCORE.INTER.SOLV>
7.54948

>  <SCORE.INTER.VDW>
-12.511

>  <SCORE.INTER.norm>
-0.459182

>  <SCORE.INTRA>
-1.10093

>  <SCORE.INTRA.DIHEDRAL>
-1.52345

>  <SCORE.INTRA.DIHEDRAL.0>
3.67053

>  <SCORE.INTRA.POLAR>
0

>  <SCORE.INTRA.POLAR.0>
0

>  <SCORE.INTRA.REPUL>
0

>  <SCORE.INTRA.REPUL.0>
0

>  <SCORE.INTRA.SOLV>
-1.51838

>  <SCORE.INTRA.SOLV.lig_0>
-32.0553

>  <SCORE.INTRA.VDW>
0.419984

>  <SCORE.INTRA.VDW.0>
-0.571921

>  <SCORE.INTRA.norm>
-0.110093

>  <SCORE.RESTR>
0

>  <SCORE.RESTR.CAVITY>
0

>  <SCORE.RESTR.norm>
0

>  <SCORE.SYSTEM>
0

>  <SCORE.SYSTEM.CONST>
0

>  <SCORE.SYSTEM.DIHEDRAL>
0

>  <SCORE.SYSTEM.SOLV>
0

>  <SCORE.SYSTEM.norm>
0

>  <SCORE.heavy>
10

>  <SCORE.norm>
-0.569275

>  <RMSD>
13.033

$$$$
ligand
 OpenBabel11021811473D
libRbt.so/2013.1/901 2013/11/27
 10  9  0  0  0  0  0  0  0  0999 V2000
   26.3820   13.0496    8.6987 N   0  0  0  0  0  0  0  0  0  0  0  0
   25.2843   13.9444    8.2235 C   0  0  2  0  0  0  0  0  0  0  0  0
   25.5827   15.4070    8.5249 C   0  0  0  0  0  0  0  0  0  0  0  0
   24.9065   16.3092    8.0430 O   0  0  0  0  0  0  0  0  0  0  0  0
   23.9391   13.5263    8.8227 C   0  0  0  0  0  0  0  0  0  0  0  0
   23.8911   13.6148   10.3384 C   0  0  0  0  0  0  0  0  0  0  0  0
   22.5053   13.2833   10.8777 C   0  0  0  0  0  0  0  0  0  0  0  0
   22.4985   13.3141   12.3973 C   0  0  0  0  0  0  0  0  0  0  0  0
   21.1467   12.9945   12.9796 N   0  0  0  0  0  0  0  0  0  0  0  0
   26.4845   15.7459    9.2792 O   0  0  0  0  0  0  0  0  0  0  0  0
  2  1  1  1  0  0  0
  2  3  1  0  0  0  0
  2  5  1  0  0  0  0
  3  4  1  0  0  0  0
  3 10  1  0  0  0  0
  5  6  1  0  0  0  0
  6  7  1  0  0  0  0
  7  8  1  0  0  0  0
  8  9  1  0  0  0  0
M  END
>  <CHROM.1>
169.04286204,61.86387220,176.00062211,177.31866687,179.89622781,24.27613373
14.15543075,9.81570848,-0.40751008,-0.75159946,3.06170541

>  <Name>
ligand

>  <RI>
0

>  <Rbt.Current_Directory>
/home/itssahil/PROJECTS/Mol_Feturizer/New_Systems/rnas/3DIZ

>  <Rbt.Executable>
rbdock ($Id: //depot/dev/client3/rdock/2013.1/src/exe/rbdock.cxx#4 $)

>  <Rbt.Library>
libRbt.so (2013.1, Build901 2013/11/27)

>  <Rbt.Parameter_File>
/export/apps/rDock/src/rDock_2013.1_src/data/scripts/dock_solv.prm

>  <Rbt.Receptor>
prm/blind_docking_40.prm

>  <SCORE>
-4.86291

>  <SCORE.INTER>
-3.27944

>  <SCORE.INTER.CONST>
1

>  <SCORE.INTER.POLAR>
0

>  <SCORE.INTER.ROT>
5

>  <SCORE.INTER.SOLV>
7.34923

>  <SCORE.INTER.VDW>
-11.5694

>  <SCORE.INTER.norm>
-0.327944

>  <SCORE.INTRA>
-1.58348

>  <SCORE.INTRA.DIHEDRAL>
-2.09939

>  <SCORE.INTRA.DIHEDRAL.0>
3.67053

>  <SCORE.INTRA.POLAR>
0

>  <SCORE.INTRA.POLAR.0>
0

>  <SCORE.INTRA.REPUL>
0

>  <SCORE.INTRA.REPUL.0>
0

>  <SCORE.INTRA.SOLV>
-0.86107

>  <SCORE.INTRA.SOLV.lig_0>
-32.0553

>  <SCORE.INTRA.VDW>
-0.103246

>  <SCORE.INTRA.VDW.0>
-0.571921

>  <SCORE.INTRA.norm>
-0.158348

>  <SCORE.RESTR>
0

>  <SCORE.RESTR.CAVITY>
0

>  <SCORE.RESTR.norm>
0

>  <SCORE.SYSTEM>
0

>  <SCORE.SYSTEM.CONST>
0

>  <SCORE.SYSTEM.DIHEDRAL>
0

>  <SCORE.SYSTEM.SOLV>
0

>  <SCORE.SYSTEM.norm>
0

>  <SCORE.heavy>
10

>  <SCORE.norm>
-0.486291

>  <RMSD>
13.049

$$$$
ligand
 OpenBabel11021811473D
libRbt.so/2013.1/901 2013/11/27
 10  9  0  0  0  0  0  0  0  0999 V2000
   22.4389   11.6217   12.9881 N   0  0  0  0  0  0  0  0  0  0  0  0
   22.8755   12.9424   12.4434 C   0  0  2  0  0  0  0  0  0  0  0  0
   21.8462   14.0305   12.7183 C   0  0  0  0  0  0  0  0  0  0  0  0
   21.7404   14.5442   13.8267 O   0  0  0  0  0  0  0  0  0  0  0  0
   23.1800   12.8437   10.9465 C   0  0  0  0  0  0  0  0  0  0  0  0
   23.8090   14.0989   10.3666 C   0  0  0  0  0  0  0  0  0  0  0  0
   24.0393   13.9711    8.8659 C   0  0  0  0  0  0  0  0  0  0  0  0
   24.7591   15.1962    8.3265 C   0  0  0  0  0  0  0  0  0  0  0  0
   26.1257   15.3817    8.9322 N   0  0  0  0  0  0  0  0  0  0  0  0
   21.1036   14.4603   11.8461 O   0  0  0  0  0  0  0  0  0  0  0  0
  2  1  1  6  0  0  0
  2  3  1  0  0  0  0
  2  5  1  0  0  0  0
  3  4  1  0  0  0  0
  3 10  1  0  0  0  0
  5  6  1  0  0  0  0
  6  7  1  0  0  0  0
  7  8  1  0  0  0  0
  8  9  1  0  0  0  0
M  END
>  <CHROM.1>
77.16734466,-172.12412436,-177.65875872,-175.92839671,61.94353616,23.16348143
13.93094221,11.14175170,-2.62941828,0.84234305,-0.32538927

>  <Name>
ligand

>  <RI>
0

>  <Rbt.Current_Directory>
/home/itssahil/PROJECTS/Mol_Feturizer/New_Systems/rnas/3DIZ

>  <Rbt.Executable>
rbdock ($Id: //depot/dev/client3/rdock/2013.1/src/exe/rbdock.cxx#4 $)

>  <Rbt.Library>
libRbt.so (2013.1, Build901 2013/11/27)

>  <Rbt.Parameter_File>
/export/apps/rDock/src/rDock_2013.1_src/data/scripts/dock_solv.prm

>  <Rbt.Receptor>
prm/blind_docking_60.prm

>  <SCORE>
-2.98974

>  <SCORE.INTER>
-2.1634

>  <SCORE.INTER.CONST>
1

>  <SCORE.INTER.POLAR>
0

>  <SCORE.INTER.ROT>
5

>  <SCORE.INTER.SOLV>
11.3329

>  <SCORE.INTER.VDW>
-12.1532

>  <SCORE.INTER.norm>
-0.21634

>  <SCORE.INTRA>
-0.826338

>  <SCORE.INTRA.DIHEDRAL>
-1.79311

>  <SCORE.INTRA.DIHEDRAL.0>
3.67053

>  <SCORE.INTRA.POLAR>
0

>  <SCORE.INTRA.POLAR.0>
0

>  <SCORE.INTRA.REPUL>
0

>  <SCORE.INTRA.REPUL.0>
0

>  <SCORE.INTRA.SOLV>
-0.7605

>  <SCORE.INTRA.SOLV.lig_0>
-32.0553

>  <SCORE.INTRA.VDW>
0.450466

>  <SCORE.INTRA.VDW.0>
-0.571921

>  <SCORE.INTRA.norm>
-0.0826338

>  <SCORE.RESTR>
0

>  <SCORE.RESTR.CAVITY>
0

>  <SCORE.RESTR.norm>
0

>  <SCORE.SYSTEM>
0

>  <SCORE.SYSTEM.CONST>
0

>  <SCORE.SYSTEM.DIHEDRAL>
0

>  <SCORE.SYSTEM.SOLV>
0

>  <SCORE.SYSTEM.norm>
0

>  <SCORE.heavy>
10

>  <SCORE.norm>
-0.298974

>  <RMSD>
13.050

$$$$
ligand
 OpenBabel11021811473D
libRbt.so/2013.1/901 2013/11/27
 10  9  0  0  0  0  0  0  0  0999 V2000
   23.7560   12.9943   10.6335 N   0  0  0  0  0  0  0  0  0  0  0  0
   24.4409   14.0720    9.8584 C   0  0  2  0  0  0  0  0  0  0  0  0
   24.0658   14.0269    8.3832 C   0  0  0  0  0  0  0  0  0  0  0  0
   23.7680   15.0452    7.7684 O   0  0  0  0  0  0  0  0  0  0  0  0
   25.9590   13.9959   10.0390 C   0  0  0  0  0  0  0  0  0  0  0  0
   26.4324   14.4194   11.4189 C   0  0  0  0  0  0  0  0  0  0  0  0
   27.9520   14.5035   11.4910 C   0  0  0  0  0  0  0  0  0  0  0  0
   28.4716   15.6167   10.5961 C   0  0  0  0  0  0  0  0  0  0  0  0
   28.3938   15.2704    9.1322 N   0  0  0  0  0  0  0  0  0  0  0  0
   24.0731   12.9857    7.7406 O   0  0  0  0  0  0  0  0  0  0  0  0
  2  1  1  1  0  0  0
  2  3  1  0  0  0  0
  2  5  1  0  0  0  0
  3  4  1  0  0  0  0
  3 10  1  0  0  0  0
  5  6  1  0  0  0  0
  6  7  1  0  0  0  0
  7  8  1  0  0  0  0
  8  9  1  0  0  0  0
M  END
>  <CHROM.1>
134.48406343,-71.50072108,-172.45580486,65.91795378,-73.38036301,25.71355944
14.29066479,9.66932993,2.78507097,-0.41877540,-1.25408109

>  <Name>
ligand

>  <RI>
0

>  <Rbt.Current_Directory>
/home/itssahil/PROJECTS/Mol_Feturizer/New_Systems/rnas/3DIZ

>  <Rbt.Executable>
rbdock ($Id: //depot/dev/client3/rdock/2013.1/src/exe/rbdock.cxx#4 $)

>  <Rbt.Library>
libRbt.so (2013.1, Build901 2013/11/27)

>  <Rbt.Parameter_File>
/export/apps/rDock/src/rDock_2013.1_src/data/scripts/dock_solv.prm

>  <Rbt.Receptor>
prm/blind_docking_40.prm

>  <SCORE>
-5.11451

>  <SCORE.INTER>
-6.13519

>  <SCORE.INTER.CONST>
1

>  <SCORE.INTER.POLAR>
0

>  <SCORE.INTER.ROT>
5

>  <SCORE.INTER.SOLV>
11.6038

>  <SCORE.INTER.VDW>
-14.8914

>  <SCORE.INTER.norm>
-0.613519

>  <SCORE.INTRA>
1.02068

>  <SCORE.INTRA.DIHEDRAL>
-0.644623

>  <SCORE.INTRA.DIHEDRAL.0>
3.67053

>  <SCORE.INTRA.POLAR>
0

>  <SCORE.INTRA.POLAR.0>
0

>  <SCORE.INTRA.REPUL>
0

>  <SCORE.INTRA.REPUL.0>
0

>  <SCORE.INTRA.SOLV>
1.34949

>  <SCORE.INTRA.SOLV.lig_0>
-32.0553

>  <SCORE.INTRA.VDW>
0.668243

>  <SCORE.INTRA.VDW.0>
-0.571921

>  <SCORE.INTRA.norm>
0.102068

>  <SCORE.RESTR>
0

>  <SCORE.RESTR.CAVITY>
0

>  <SCORE.RESTR.norm>
0

>  <SCORE.SYSTEM>
0

>  <SCORE.SYSTEM.CONST>
0

>  <SCORE.SYSTEM.DIHEDRAL>
0

>  <SCORE.SYSTEM.SOLV>
0

>  <SCORE.SYSTEM.norm>
0

>  <SCORE.heavy>
10

>  <SCORE.norm>
-0.511451

>  <RMSD>
13.127

$$$$
ligand
 OpenBabel11021811473D
libRbt.so/2013.1/901 2013/11/27
 10  9  0  0  0  0  0  0  0  0999 V2000
   26.8683   14.4016    8.8473 N   0  0  0  0  0  0  0  0  0  0  0  0
   25.3881   14.2034    8.8797 C   0  0  2  0  0  0  0  0  0  0  0  0
   24.6528   15.3580    8.2124 C   0  0  0  0  0  0  0  0  0  0  0  0
   25.1380   16.4832    8.1670 O   0  0  0  0  0  0  0  0  0  0  0  0
   24.8945   13.9972   10.3139 C   0  0  0  0  0  0  0  0  0  0  0  0
   23.4159   13.6624   10.4094 C   0  0  0  0  0  0  0  0  0  0  0  0
   22.9641   13.5180   11.8573 C   0  0  0  0  0  0  0  0  0  0  0  0
   21.4721   13.2370   11.9291 C   0  0  0  0  0  0  0  0  0  0  0  0
   20.9671   13.1332   13.3444 N   0  0  0  0  0  0  0  0  0  0  0  0
   23.5665   15.2114    7.6688 O   0  0  0  0  0  0  0  0  0  0  0  0
  2  1  1  1  0  0  0
  2  3  1  0  0  0  0
  2  5  1  0  0  0  0
  3  4  1  0  0  0  0
  3 10  1  0  0  0  0
  5  6  1  0  0  0  0
  6  7  1  0  0  0  0
  7  8  1  0  0  0  0
  8  9  1  0  0  0  0
M  END
>  <CHROM.1>
-27.08932658,-174.68449311,-177.89019687,177.79822392,-178.00557443,23.92379035
14.34939159,9.93816478,-0.89192158,-0.17030527,2.16200555

>  <Name>
ligand

>  <RI>
0

>  <Rbt.Current_Directory>
/home/itssahil/PROJECTS/Mol_Feturizer/New_Systems/rnas/3DIZ

>  <Rbt.Executable>
rbdock ($Id: //depot/dev/client3/rdock/2013.1/src/exe/rbdock.cxx#4 $)

>  <Rbt.Library>
libRbt.so (2013.1, Build901 2013/11/27)

>  <Rbt.Parameter_File>
/export/apps/rDock/src/rDock_2013.1_src/data/scripts/dock_solv.prm

>  <Rbt.Receptor>
prm/blind_docking_40.prm

>  <SCORE>
-6.40066

>  <SCORE.INTER>
-4.39879

>  <SCORE.INTER.CONST>
1

>  <SCORE.INTER.POLAR>
0

>  <SCORE.INTER.ROT>
5

>  <SCORE.INTER.SOLV>
6.09737

>  <SCORE.INTER.VDW>
-11.8983

>  <SCORE.INTER.norm>
-0.439879

>  <SCORE.INTRA>
-2.00188

>  <SCORE.INTRA.DIHEDRAL>
-1.95416

>  <SCORE.INTRA.DIHEDRAL.0>
3.67053

>  <SCORE.INTRA.POLAR>
0

>  <SCORE.INTRA.POLAR.0>
0

>  <SCORE.INTRA.REPUL>
0

>  <SCORE.INTRA.REPUL.0>
0

>  <SCORE.INTRA.SOLV>
-1.7036

>  <SCORE.INTRA.SOLV.lig_0>
-32.0553

>  <SCORE.INTRA.VDW>
-0.172999

>  <SCORE.INTRA.VDW.0>
-0.571921

>  <SCORE.INTRA.norm>
-0.200188

>  <SCORE.RESTR>
0

>  <SCORE.RESTR.CAVITY>
0

>  <SCORE.RESTR.norm>
0

>  <SCORE.SYSTEM>
0

>  <SCORE.SYSTEM.CONST>
0

>  <SCORE.SYSTEM.DIHEDRAL>
0

>  <SCORE.SYSTEM.SOLV>
0

>  <SCORE.SYSTEM.norm>
0

>  <SCORE.heavy>
10

>  <SCORE.norm>
-0.640066

>  <RMSD>
13.127

$$$$
ligand
 OpenBabel11021811473D
libRbt.so/2013.1/901 2013/11/27
 10  9  0  0  0  0  0  0  0  0999 V2000
   26.8746   14.3549    8.8180 N   0  0  0  0  0  0  0  0  0  0  0  0
   25.3887   14.2067    8.8559 C   0  0  2  0  0  0  0  0  0  0  0  0
   24.6901   15.3882    8.1962 C   0  0  0  0  0  0  0  0  0  0  0  0
   23.6116   15.2564    7.6278 O   0  0  0  0  0  0  0  0  0  0  0  0
   24.8944   14.0115   10.2914 C   0  0  0  0  0  0  0  0  0  0  0  0
   23.4094   13.7075   10.3905 C   0  0  0  0  0  0  0  0  0  0  0  0
   22.9540   13.5932   11.8400 C   0  0  0  0  0  0  0  0  0  0  0  0
   21.4673   13.2859   11.9135 C   0  0  0  0  0  0  0  0  0  0  0  0
   20.9658   13.1738   13.3294 N   0  0  0  0  0  0  0  0  0  0  0  0
   25.1538   16.5200    8.2281 O   0  0  0  0  0  0  0  0  0  0  0  0
  2  1  1  1  0  0  0
  2  3  1  0  0  0  0
  2  5  1  0  0  0  0
  3  4  1  0  0  0  0
  3 10  1  0  0  0  0
  5  6  1  0  0  0  0
  6  7  1  0  0  0  0
  7  8  1  0  0  0  0
  8  9  1  0  0  0  0
M  END
>  <CHROM.1>
149.23718743,-173.88229521,-177.06489136,-179.86993692,-179.54970350,23.93229184
14.37918397,9.92510453,-0.88280908,-0.19205935,2.17364022

>  <Name>
ligand

>  <RI>
0

>  <Rbt.Current_Directory>
/home/itssahil/PROJECTS/Mol_Feturizer/New_Systems/rnas/3DIZ

>  <Rbt.Executable>
rbdock ($Id: //depot/dev/client3/rdock/2013.1/src/exe/rbdock.cxx#4 $)

>  <Rbt.Library>
libRbt.so (2013.1, Build901 2013/11/27)

>  <Rbt.Parameter_File>
/export/apps/rDock/src/rDock_2013.1_src/data/scripts/dock_solv.prm

>  <Rbt.Receptor>
prm/blind_docking_40.prm

>  <SCORE>
-6.41747

>  <SCORE.INTER>
-4.31018

>  <SCORE.INTER.CONST>
1

>  <SCORE.INTER.POLAR>
0

>  <SCORE.INTER.ROT>
5

>  <SCORE.INTER.SOLV>
6.04855

>  <SCORE.INTER.VDW>
-11.823

>  <SCORE.INTER.norm>
-0.431018

>  <SCORE.INTRA>
-2.1073

>  <SCORE.INTRA.DIHEDRAL>
-2.05986

>  <SCORE.INTRA.DIHEDRAL.0>
3.67053

>  <SCORE.INTRA.POLAR>
0

>  <SCORE.INTRA.POLAR.0>
0

>  <SCORE.INTRA.REPUL>
0

>  <SCORE.INTRA.REPUL.0>
0

>  <SCORE.INTRA.SOLV>
-1.71891

>  <SCORE.INTRA.SOLV.lig_0>
-32.0553

>  <SCORE.INTRA.VDW>
-0.217916

>  <SCORE.INTRA.VDW.0>
-0.571921

>  <SCORE.INTRA.norm>
-0.21073

>  <SCORE.RESTR>
0

>  <SCORE.RESTR.CAVITY>
0

>  <SCORE.RESTR.norm>
0

>  <SCORE.SYSTEM>
0

>  <SCORE.SYSTEM.CONST>
0

>  <SCORE.SYSTEM.DIHEDRAL>
0

>  <SCORE.SYSTEM.SOLV>
0

>  <SCORE.SYSTEM.norm>
0

>  <SCORE.heavy>
10

>  <SCORE.norm>
-0.641747

>  <RMSD>
13.129

$$$$
ligand
 OpenBabel11021811473D
libRbt.so/2013.1/901 2013/11/27
 10  9  0  0  0  0  0  0  0  0999 V2000
   23.7495   12.9980   10.6403 N   0  0  0  0  0  0  0  0  0  0  0  0
   24.4380   14.0710    9.8618 C   0  0  2  0  0  0  0  0  0  0  0  0
   24.0581   14.0262    8.3878 C   0  0  0  0  0  0  0  0  0  0  0  0
   23.7439   15.0425    7.7780 O   0  0  0  0  0  0  0  0  0  0  0  0
   25.9562   13.9867   10.0378 C   0  0  0  0  0  0  0  0  0  0  0  0
   26.4370   14.4172   11.4129 C   0  0  0  0  0  0  0  0  0  0  0  0
   27.9572   14.4957   11.4783 C   0  0  0  0  0  0  0  0  0  0  0  0
   28.4776   15.6001   10.5730 C   0  0  0  0  0  0  0  0  0  0  0  0
   28.4187   15.2322    9.1136 N   0  0  0  0  0  0  0  0  0  0  0  0
   24.0774   12.9876    7.7412 O   0  0  0  0  0  0  0  0  0  0  0  0
  2  1  1  1  0  0  0
  2  3  1  0  0  0  0
  2  5  1  0  0  0  0
  3  4  1  0  0  0  0
  3 10  1  0  0  0  0
  5  6  1  0  0  0  0
  6  7  1  0  0  0  0
  7  8  1  0  0  0  0
  8  9  1  0  0  0  0
M  END
>  <CHROM.1>
133.33311451,-71.85392130,-172.31293947,65.87158278,-74.56085500,25.71349740
14.28344283,9.66573833,2.78619012,-0.40863992,-1.26198039

>  <Name>
ligand

>  <RI>
0

>  <Rbt.Current_Directory>
/home/itssahil/PROJECTS/Mol_Feturizer/New_Systems/rnas/3DIZ

>  <Rbt.Executable>
rbdock ($Id: //depot/dev/client3/rdock/2013.1/src/exe/rbdock.cxx#4 $)

>  <Rbt.Library>
libRbt.so (2013.1, Build901 2013/11/27)

>  <Rbt.Parameter_File>
/export/apps/rDock/src/rDock_2013.1_src/data/scripts/dock_solv.prm

>  <Rbt.Receptor>
prm/blind_docking_100.prm

>  <SCORE>
-5.12578

>  <SCORE.INTER>
-6.1637

>  <SCORE.INTER.CONST>
1

>  <SCORE.INTER.POLAR>
0

>  <SCORE.INTER.ROT>
5

>  <SCORE.INTER.SOLV>
11.6173

>  <SCORE.INTER.VDW>
-14.9149

>  <SCORE.INTER.norm>
-0.61637

>  <SCORE.INTRA>
1.03791

>  <SCORE.INTRA.DIHEDRAL>
-0.489887

>  <SCORE.INTRA.DIHEDRAL.0>
3.67053

>  <SCORE.INTRA.POLAR>
0

>  <SCORE.INTRA.POLAR.0>
0

>  <SCORE.INTRA.REPUL>
0

>  <SCORE.INTRA.REPUL.0>
0

>  <SCORE.INTRA.SOLV>
1.30615

>  <SCORE.INTRA.SOLV.lig_0>
-32.0553

>  <SCORE.INTRA.VDW>
0.629781

>  <SCORE.INTRA.VDW.0>
-0.571921

>  <SCORE.INTRA.norm>
0.103791

>  <SCORE.RESTR>
0

>  <SCORE.RESTR.CAVITY>
0

>  <SCORE.RESTR.norm>
0

>  <SCORE.SYSTEM>
0

>  <SCORE.SYSTEM.CONST>
0

>  <SCORE.SYSTEM.DIHEDRAL>
0

>  <SCORE.SYSTEM.SOLV>
0

>  <SCORE.SYSTEM.norm>
0

>  <SCORE.heavy>
10

>  <SCORE.norm>
-0.512578

>  <RMSD>
13.132

$$$$
ligand
 OpenBabel11021811473D
libRbt.so/2013.1/901 2013/11/27
 10  9  0  0  0  0  0  0  0  0999 V2000
   22.0750   14.0908    9.8136 N   0  0  0  0  0  0  0  0  0  0  0  0
   23.4725   14.6065    9.9254 C   0  0  2  0  0  0  0  0  0  0  0  0
   24.1000   14.8277    8.5556 C   0  0  0  0  0  0  0  0  0  0  0  0
   24.1942   13.9156    7.7415 O   0  0  0  0  0  0  0  0  0  0  0  0
   24.3348   13.6715   10.7771 C   0  0  0  0  0  0  0  0  0  0  0  0
   25.6310   14.3023   11.2559 C   0  0  0  0  0  0  0  0  0  0  0  0
   26.6046   14.5292   10.1060 C   0  0  0  0  0  0  0  0  0  0  0  0
   27.8542   15.2443   10.5932 C   0  0  0  0  0  0  0  0  0  0  0  0
   28.5929   14.4685   11.6520 N   0  0  0  0  0  0  0  0  0  0  0  0
   24.5087   15.9233    8.1953 O   0  0  0  0  0  0  0  0  0  0  0  0
  2  1  1  6  0  0  0
  2  3  1  0  0  0  0
  2  5  1  0  0  0  0
  3  4  1  0  0  0  0
  3 10  1  0  0  0  0
  5  6  1  0  0  0  0
  6  7  1  0  0  0  0
  7  8  1  0  0  0  0
  8  9  1  0  0  0  0
M  END
>  <CHROM.1>
-57.49506074,-163.89459210,-69.38878221,176.22824490,60.08397550,25.14148054
14.56394950,9.82659289,2.73886841,-0.21603722,-1.20354411

>  <Name>
ligand

>  <RI>
0

>  <Rbt.Current_Directory>
/home/itssahil/PROJECTS/Mol_Feturizer/New_Systems/rnas/3DIZ

>  <Rbt.Executable>
rbdock ($Id: //depot/dev/client3/rdock/2013.1/src/exe/rbdock.cxx#4 $)

>  <Rbt.Library>
libRbt.so (2013.1, Build901 2013/11/27)

>  <Rbt.Parameter_File>
/export/apps/rDock/src/rDock_2013.1_src/data/scripts/dock_solv.prm

>  <Rbt.Receptor>
prm/blind_docking_40.prm

>  <SCORE>
-4.75273

>  <SCORE.INTER>
-4.25475

>  <SCORE.INTER.CONST>
1

>  <SCORE.INTER.POLAR>
0

>  <SCORE.INTER.ROT>
5

>  <SCORE.INTER.SOLV>
13.8933

>  <SCORE.INTER.VDW>
-14.4009

>  <SCORE.INTER.norm>
-0.425475

>  <SCORE.INTRA>
-0.497989

>  <SCORE.INTRA.DIHEDRAL>
-0.811869

>  <SCORE.INTRA.DIHEDRAL.0>
3.67053

>  <SCORE.INTRA.POLAR>
0

>  <SCORE.INTRA.POLAR.0>
0

>  <SCORE.INTRA.REPUL>
0

>  <SCORE.INTRA.REPUL.0>
0

>  <SCORE.INTRA.SOLV>
-0.609706

>  <SCORE.INTRA.SOLV.lig_0>
-32.0553

>  <SCORE.INTRA.VDW>
0.212798

>  <SCORE.INTRA.VDW.0>
-0.571921

>  <SCORE.INTRA.norm>
-0.0497989

>  <SCORE.RESTR>
0

>  <SCORE.RESTR.CAVITY>
0

>  <SCORE.RESTR.norm>
0

>  <SCORE.SYSTEM>
0

>  <SCORE.SYSTEM.CONST>
0

>  <SCORE.SYSTEM.DIHEDRAL>
0

>  <SCORE.SYSTEM.SOLV>
0

>  <SCORE.SYSTEM.norm>
0

>  <SCORE.heavy>
10

>  <SCORE.norm>
-0.475273

>  <RMSD>
13.135

$$$$
ligand
 OpenBabel11021811473D
libRbt.so/2013.1/901 2013/11/27
 10  9  0  0  0  0  0  0  0  0999 V2000
   26.9350   14.3872    8.6678 N   0  0  0  0  0  0  0  0  0  0  0  0
   25.4552   14.1977    8.7437 C   0  0  2  0  0  0  0  0  0  0  0  0
   24.7065   15.3931    8.1695 C   0  0  0  0  0  0  0  0  0  0  0  0
   23.6048   15.2654    7.6464 O   0  0  0  0  0  0  0  0  0  0  0  0
   25.0125   13.9146   10.1814 C   0  0  0  0  0  0  0  0  0  0  0  0
   23.5302   13.6108   10.3159 C   0  0  0  0  0  0  0  0  0  0  0  0
   23.1277   13.4060   11.7710 C   0  0  0  0  0  0  0  0  0  0  0  0
   21.6264   13.2004   11.8894 C   0  0  0  0  0  0  0  0  0  0  0  0
   21.1732   13.0301   13.3157 N   0  0  0  0  0  0  0  0  0  0  0  0
   25.1519   16.5310    8.2297 O   0  0  0  0  0  0  0  0  0  0  0  0
  2  1  1  1  0  0  0
  2  3  1  0  0  0  0
  2  5  1  0  0  0  0
  3  4  1  0  0  0  0
  3 10  1  0  0  0  0
  5  6  1  0  0  0  0
  6  7  1  0  0  0  0
  7  8  1  0  0  0  0
  8  9  1  0  0  0  0
M  END
>  <CHROM.1>
150.34563029,-175.76665230,-177.12436010,176.03610292,-178.45206235,24.02222187
14.32362909,9.87092013,-0.90748314,-0.21487753,2.20822567

>  <Name>
ligand

>  <RI>
0

>  <Rbt.Current_Directory>
/home/itssahil/PROJECTS/Mol_Feturizer/New_Systems/rnas/3DIZ

>  <Rbt.Executable>
rbdock ($Id: //depot/dev/client3/rdock/2013.1/src/exe/rbdock.cxx#4 $)

>  <Rbt.Library>
libRbt.so (2013.1, Build901 2013/11/27)

>  <Rbt.Parameter_File>
/export/apps/rDock/src/rDock_2013.1_src/data/scripts/dock_solv.prm

>  <Rbt.Receptor>
prm/blind_docking_40.prm

>  <SCORE>
-6.38787

>  <SCORE.INTER>
-4.31358

>  <SCORE.INTER.CONST>
1

>  <SCORE.INTER.POLAR>
0

>  <SCORE.INTER.ROT>
5

>  <SCORE.INTER.SOLV>
6.40792

>  <SCORE.INTER.VDW>
-11.945

>  <SCORE.INTER.norm>
-0.431358

>  <SCORE.INTRA>
-2.07429

>  <SCORE.INTRA.DIHEDRAL>
-2.05958

>  <SCORE.INTRA.DIHEDRAL.0>
3.67053

>  <SCORE.INTRA.POLAR>
0

>  <SCORE.INTRA.POLAR.0>
0

>  <SCORE.INTRA.REPUL>
0

>  <SCORE.INTRA.REPUL.0>
0

>  <SCORE.INTRA.SOLV>
-1.71955

>  <SCORE.INTRA.SOLV.lig_0>
-32.0553

>  <SCORE.INTRA.VDW>
-0.184724

>  <SCORE.INTRA.VDW.0>
-0.571921

>  <SCORE.INTRA.norm>
-0.207429

>  <SCORE.RESTR>
0

>  <SCORE.RESTR.CAVITY>
0

>  <SCORE.RESTR.norm>
0

>  <SCORE.SYSTEM>
0

>  <SCORE.SYSTEM.CONST>
0

>  <SCORE.SYSTEM.DIHEDRAL>
0

>  <SCORE.SYSTEM.SOLV>
0

>  <SCORE.SYSTEM.norm>
0

>  <SCORE.heavy>
10

>  <SCORE.norm>
-0.638787

>  <RMSD>
13.140

$$$$
ligand
 OpenBabel11021811473D
libRbt.so/2013.1/901 2013/11/27
 10  9  0  0  0  0  0  0  0  0999 V2000
   23.7361   12.9945   10.6294 N   0  0  0  0  0  0  0  0  0  0  0  0
   24.4160   14.0740    9.8523 C   0  0  2  0  0  0  0  0  0  0  0  0
   24.0453   14.0210    8.3762 C   0  0  0  0  0  0  0  0  0  0  0  0
   23.7030   15.0287    7.7671 O   0  0  0  0  0  0  0  0  0  0  0  0
   25.9342   14.0086   10.0373 C   0  0  0  0  0  0  0  0  0  0  0  0
   26.4019   14.4508   11.4132 C   0  0  0  0  0  0  0  0  0  0  0  0
   27.9203   14.5550   11.4847 C   0  0  0  0  0  0  0  0  0  0  0  0
   28.4248   15.6740   10.5884 C   0  0  0  0  0  0  0  0  0  0  0  0
   28.3797   15.3135    9.1266 N   0  0  0  0  0  0  0  0  0  0  0  0
   24.1001   12.9851    7.7274 O   0  0  0  0  0  0  0  0  0  0  0  0
  2  1  1  1  0  0  0
  2  3  1  0  0  0  0
  2  5  1  0  0  0  0
  3  4  1  0  0  0  0
  3 10  1  0  0  0  0
  5  6  1  0  0  0  0
  6  7  1  0  0  0  0
  7  8  1  0  0  0  0
  8  9  1  0  0  0  0
M  END
>  <CHROM.1>
132.22352617,-71.96461437,-172.00493468,66.38921636,-74.66209244,25.68851917
14.30789127,9.66343246,2.78639132,-0.42610656,-1.26252521

>  <Name>
ligand

>  <RI>
0

>  <Rbt.Current_Directory>
/home/itssahil/PROJECTS/Mol_Feturizer/New_Systems/rnas/3DIZ

>  <Rbt.Executable>
rbdock ($Id: //depot/dev/client3/rdock/2013.1/src/exe/rbdock.cxx#4 $)

>  <Rbt.Library>
libRbt.so (2013.1, Build901 2013/11/27)

>  <Rbt.Parameter_File>
/export/apps/rDock/src/rDock_2013.1_src/data/scripts/dock_solv.prm

>  <Rbt.Receptor>
prm/blind_docking_40.prm

>  <SCORE>
-5.13982

>  <SCORE.INTER>
-6.16817

>  <SCORE.INTER.CONST>
1

>  <SCORE.INTER.POLAR>
0

>  <SCORE.INTER.ROT>
5

>  <SCORE.INTER.SOLV>
11.6253

>  <SCORE.INTER.VDW>
-14.9205

>  <SCORE.INTER.norm>
-0.616817

>  <SCORE.INTRA>
1.02835

>  <SCORE.INTRA.DIHEDRAL>
-0.420973

>  <SCORE.INTRA.DIHEDRAL.0>
3.67053

>  <SCORE.INTRA.POLAR>
0

>  <SCORE.INTRA.POLAR.0>
0

>  <SCORE.INTRA.REPUL>
0

>  <SCORE.INTRA.REPUL.0>
0

>  <SCORE.INTRA.SOLV>
1.29416

>  <SCORE.INTRA.SOLV.lig_0>
-32.0553

>  <SCORE.INTRA.VDW>
0.591755

>  <SCORE.INTRA.VDW.0>
-0.571921

>  <SCORE.INTRA.norm>
0.102835

>  <SCORE.RESTR>
0

>  <SCORE.RESTR.CAVITY>
0

>  <SCORE.RESTR.norm>
0

>  <SCORE.SYSTEM>
0

>  <SCORE.SYSTEM.CONST>
0

>  <SCORE.SYSTEM.DIHEDRAL>
0

>  <SCORE.SYSTEM.SOLV>
0

>  <SCORE.SYSTEM.norm>
0

>  <SCORE.heavy>
10

>  <SCORE.norm>
-0.513982

>  <RMSD>
13.140

$$$$
ligand
 OpenBabel11021811473D
libRbt.so/2013.1/901 2013/11/27
 10  9  0  0  0  0  0  0  0  0999 V2000
   23.7057   13.0681   10.6221 N   0  0  0  0  0  0  0  0  0  0  0  0
   24.4192   14.1223    9.8405 C   0  0  2  0  0  0  0  0  0  0  0  0
   24.0501   14.0721    8.3639 C   0  0  0  0  0  0  0  0  0  0  0  0
   23.7407   15.0863    7.7481 O   0  0  0  0  0  0  0  0  0  0  0  0
   25.9343   14.0126   10.0292 C   0  0  0  0  0  0  0  0  0  0  0  0
   26.4098   14.4283   11.4108 C   0  0  0  0  0  0  0  0  0  0  0  0
   27.9300   14.4994   11.4847 C   0  0  0  0  0  0  0  0  0  0  0  0
   28.4613   15.5967   10.5772 C   0  0  0  0  0  0  0  0  0  0  0  0
   28.3865   15.2317    9.1177 N   0  0  0  0  0  0  0  0  0  0  0  0
   24.0739   13.0311    7.7214 O   0  0  0  0  0  0  0  0  0  0  0  0
  2  1  1  1  0  0  0
  2  3  1  0  0  0  0
  2  5  1  0  0  0  0
  3  4  1  0  0  0  0
  3 10  1  0  0  0  0
  5  6  1  0  0  0  0
  6  7  1  0  0  0  0
  7  8  1  0  0  0  0
  8  9  1  0  0  0  0
M  END
>  <CHROM.1>
132.30010174,-71.08262204,-171.57524976,65.06112452,-73.54815025,25.69357448
14.31258404,9.65469496,2.77102346,-0.39901363,-1.26933494

>  <Name>
ligand

>  <RI>
0

>  <Rbt.Current_Directory>
/home/itssahil/PROJECTS/Mol_Feturizer/New_Systems/rnas/3DIZ

>  <Rbt.Executable>
rbdock ($Id: //depot/dev/client3/rdock/2013.1/src/exe/rbdock.cxx#4 $)

>  <Rbt.Library>
libRbt.so (2013.1, Build901 2013/11/27)

>  <Rbt.Parameter_File>
/export/apps/rDock/src/rDock_2013.1_src/data/scripts/dock_solv.prm

>  <Rbt.Receptor>
prm/blind_docking_100.prm

>  <SCORE>
-5.14475

>  <SCORE.INTER>
-6.23622

>  <SCORE.INTER.CONST>
1

>  <SCORE.INTER.POLAR>
0

>  <SCORE.INTER.ROT>
5

>  <SCORE.INTER.SOLV>
11.3928

>  <SCORE.INTER.VDW>
-14.8884

>  <SCORE.INTER.norm>
-0.623622

>  <SCORE.INTRA>
1.09147

>  <SCORE.INTRA.DIHEDRAL>
-0.64073

>  <SCORE.INTRA.DIHEDRAL.0>
3.67053

>  <SCORE.INTRA.POLAR>
0

>  <SCORE.INTRA.POLAR.0>
0

>  <SCORE.INTRA.REPUL>
0

>  <SCORE.INTRA.REPUL.0>
0

>  <SCORE.INTRA.SOLV>
1.36406

>  <SCORE.INTRA.SOLV.lig_0>
-32.0553

>  <SCORE.INTRA.VDW>
0.729803

>  <SCORE.INTRA.VDW.0>
-0.571921

>  <SCORE.INTRA.norm>
0.109147

>  <SCORE.RESTR>
0

>  <SCORE.RESTR.CAVITY>
0

>  <SCORE.RESTR.norm>
0

>  <SCORE.SYSTEM>
0

>  <SCORE.SYSTEM.CONST>
0

>  <SCORE.SYSTEM.DIHEDRAL>
0

>  <SCORE.SYSTEM.SOLV>
0

>  <SCORE.SYSTEM.norm>
0

>  <SCORE.heavy>
10

>  <SCORE.norm>
-0.514475

>  <RMSD>
13.142

$$$$
ligand
 OpenBabel11021811473D
libRbt.so/2013.1/901 2013/11/27
 10  9  0  0  0  0  0  0  0  0999 V2000
   21.3129   13.7549   12.9837 N   0  0  0  0  0  0  0  0  0  0  0  0
   21.9127   12.4940   12.4529 C   0  0  2  0  0  0  0  0  0  0  0  0
   22.1025   11.4571   13.5520 C   0  0  0  0  0  0  0  0  0  0  0  0
   22.0013   11.7564   14.7368 O   0  0  0  0  0  0  0  0  0  0  0  0
   23.2341   12.7766   11.7339 C   0  0  0  0  0  0  0  0  0  0  0  0
   23.0701   13.5422   10.4322 C   0  0  0  0  0  0  0  0  0  0  0  0
   24.3935   13.6793    9.6896 C   0  0  0  0  0  0  0  0  0  0  0  0
   24.1971   14.4121    8.3726 C   0  0  0  0  0  0  0  0  0  0  0  0
   25.4604   14.4892    7.5558 N   0  0  0  0  0  0  0  0  0  0  0  0
   22.3333   10.2811   13.3054 O   0  0  0  0  0  0  0  0  0  0  0  0
  2  1  1  1  0  0  0
  2  3  1  0  0  0  0
  2  5  1  0  0  0  0
  3  4  1  0  0  0  0
  3 10  1  0  0  0  0
  5  6  1  0  0  0  0
  6  7  1  0  0  0  0
  7  8  1  0  0  0  0
  8  9  1  0  0  0  0
M  END
>  <CHROM.1>
-12.64240487,-68.86685850,-174.44163058,178.32976652,-176.01664435,22.99897484
12.83507221,11.51632838,2.24489711,-0.84877468,2.57078073

>  <Name>
ligand

>  <RI>
0

>  <Rbt.Current_Directory>
/home/itssahil/PROJECTS/Mol_Feturizer/New_Systems/rnas/3DIZ

>  <Rbt.Executable>
rbdock ($Id: //depot/dev/client3/rdock/2013.1/src/exe/rbdock.cxx#4 $)

>  <Rbt.Library>
libRbt.so (2013.1, Build901 2013/11/27)

>  <Rbt.Parameter_File>
/export/apps/rDock/src/rDock_2013.1_src/data/scripts/dock_solv.prm

>  <Rbt.Receptor>
prm/blind_docking_100.prm

>  <SCORE>
-4.36136

>  <SCORE.INTER>
-2.86517

>  <SCORE.INTER.CONST>
1

>  <SCORE.INTER.POLAR>
0

>  <SCORE.INTER.ROT>
5

>  <SCORE.INTER.SOLV>
7.54364

>  <SCORE.INTER.VDW>
-11.358

>  <SCORE.INTER.norm>
-0.286517

>  <SCORE.INTRA>
-1.49619

>  <SCORE.INTRA.DIHEDRAL>
-1.60242

>  <SCORE.INTRA.DIHEDRAL.0>
3.67053

>  <SCORE.INTRA.POLAR>
0

>  <SCORE.INTRA.POLAR.0>
0

>  <SCORE.INTRA.REPUL>
0

>  <SCORE.INTRA.REPUL.0>
0

>  <SCORE.INTRA.SOLV>
-0.942713

>  <SCORE.INTRA.SOLV.lig_0>
-32.0553

>  <SCORE.INTRA.VDW>
-0.223621

>  <SCORE.INTRA.VDW.0>
-0.571921

>  <SCORE.INTRA.norm>
-0.149619

>  <SCORE.RESTR>
0

>  <SCORE.RESTR.CAVITY>
0

>  <SCORE.RESTR.norm>
0

>  <SCORE.SYSTEM>
0

>  <SCORE.SYSTEM.CONST>
0

>  <SCORE.SYSTEM.DIHEDRAL>
0

>  <SCORE.SYSTEM.SOLV>
0

>  <SCORE.SYSTEM.norm>
0

>  <SCORE.heavy>
10

>  <SCORE.norm>
-0.436136

>  <RMSD>
13.145

$$$$
ligand
 OpenBabel11021811473D
libRbt.so/2013.1/901 2013/11/27
 10  9  0  0  0  0  0  0  0  0999 V2000
   27.1135   15.0970    9.7495 N   0  0  0  0  0  0  0  0  0  0  0  0
   25.9498   14.3178    9.2299 C   0  0  2  0  0  0  0  0  0  0  0  0
   25.3219   14.9896    8.0159 C   0  0  0  0  0  0  0  0  0  0  0  0
   24.8122   16.1020    8.0940 O   0  0  0  0  0  0  0  0  0  0  0  0
   24.9084   14.0908   10.3285 C   0  0  0  0  0  0  0  0  0  0  0  0
   23.7538   13.2006    9.9018 C   0  0  0  0  0  0  0  0  0  0  0  0
   22.7067   13.0718   11.0011 C   0  0  0  0  0  0  0  0  0  0  0  0
   21.9058   14.3567   11.1336 C   0  0  0  0  0  0  0  0  0  0  0  0
   20.8586   14.2807   12.2135 N   0  0  0  0  0  0  0  0  0  0  0  0
   25.3235   14.4680    6.9092 O   0  0  0  0  0  0  0  0  0  0  0  0
  2  1  1  1  0  0  0
  2  3  1  0  0  0  0
  2  5  1  0  0  0  0
  3  4  1  0  0  0  0
  3 10  1  0  0  0  0
  5  6  1  0  0  0  0
  6  7  1  0  0  0  0
  7  8  1  0  0  0  0
  8  9  1  0  0  0  0
M  END
>  <CHROM.1>
-62.74502917,-174.94842232,-176.69354252,73.29099664,-179.79297065,24.26080494
14.41434151,9.62355821,-0.70938212,-0.02998267,1.92412791

>  <Name>
ligand

>  <RI>
0

>  <Rbt.Current_Directory>
/home/itssahil/PROJECTS/Mol_Feturizer/New_Systems/rnas/3DIZ

>  <Rbt.Executable>
rbdock ($Id: //depot/dev/client3/rdock/2013.1/src/exe/rbdock.cxx#4 $)

>  <Rbt.Library>
libRbt.so (2013.1, Build901 2013/11/27)

>  <Rbt.Parameter_File>
/export/apps/rDock/src/rDock_2013.1_src/data/scripts/dock_solv.prm

>  <Rbt.Receptor>
prm/blind_docking_40.prm

>  <SCORE>
-5.23708

>  <SCORE.INTER>
-4.04088

>  <SCORE.INTER.CONST>
1

>  <SCORE.INTER.POLAR>
0

>  <SCORE.INTER.ROT>
5

>  <SCORE.INTER.SOLV>
6.77441

>  <SCORE.INTER.VDW>
-11.8854

>  <SCORE.INTER.norm>
-0.404088

>  <SCORE.INTRA>
-1.1962

>  <SCORE.INTRA.DIHEDRAL>
-1.33591

>  <SCORE.INTRA.DIHEDRAL.0>
3.67053

>  <SCORE.INTRA.POLAR>
0

>  <SCORE.INTRA.POLAR.0>
0

>  <SCORE.INTRA.REPUL>
0

>  <SCORE.INTRA.REPUL.0>
0

>  <SCORE.INTRA.SOLV>
-1.51798

>  <SCORE.INTRA.SOLV.lig_0>
-32.0553

>  <SCORE.INTRA.VDW>
0.230746

>  <SCORE.INTRA.VDW.0>
-0.571921

>  <SCORE.INTRA.norm>
-0.11962

>  <SCORE.RESTR>
0

>  <SCORE.RESTR.CAVITY>
0

>  <SCORE.RESTR.norm>
0

>  <SCORE.SYSTEM>
0

>  <SCORE.SYSTEM.CONST>
0

>  <SCORE.SYSTEM.DIHEDRAL>
0

>  <SCORE.SYSTEM.SOLV>
0

>  <SCORE.SYSTEM.norm>
0

>  <SCORE.heavy>
10

>  <SCORE.norm>
-0.523708

>  <RMSD>
13.162

$$$$
ligand
 OpenBabel11021811473D
libRbt.so/2013.1/901 2013/11/27
 10  9  0  0  0  0  0  0  0  0999 V2000
   26.9457   14.3887    8.6011 N   0  0  0  0  0  0  0  0  0  0  0  0
   25.4644   14.2145    8.6840 C   0  0  2  0  0  0  0  0  0  0  0  0
   24.7253   15.4213    8.1213 C   0  0  0  0  0  0  0  0  0  0  0  0
   23.6154   15.3100    7.6120 O   0  0  0  0  0  0  0  0  0  0  0  0
   25.0265   13.9274   10.1224 C   0  0  0  0  0  0  0  0  0  0  0  0
   23.5407   13.6446   10.2641 C   0  0  0  0  0  0  0  0  0  0  0  0
   23.1450   13.4314   11.7200 C   0  0  0  0  0  0  0  0  0  0  0  0
   21.6443   13.2256   11.8442 C   0  0  0  0  0  0  0  0  0  0  0  0
   21.2043   12.9968   13.2665 N   0  0  0  0  0  0  0  0  0  0  0  0
   25.1875   16.5528    8.1775 O   0  0  0  0  0  0  0  0  0  0  0  0
  2  1  1  1  0  0  0
  2  3  1  0  0  0  0
  2  5  1  0  0  0  0
  3  4  1  0  0  0  0
  3 10  1  0  0  0  0
  5  6  1  0  0  0  0
  6  7  1  0  0  0  0
  7  8  1  0  0  0  0
  8  9  1  0  0  0  0
M  END
>  <CHROM.1>
150.87002443,-176.02384563,-177.27523776,176.91991463,179.44424440,24.03998441
14.34161902,9.81940459,-0.90875189,-0.22103427,2.21631721

>  <Name>
ligand

>  <RI>
0

>  <Rbt.Current_Directory>
/home/itssahil/PROJECTS/Mol_Feturizer/New_Systems/rnas/3DIZ

>  <Rbt.Executable>
rbdock ($Id: //depot/dev/client3/rdock/2013.1/src/exe/rbdock.cxx#4 $)

>  <Rbt.Library>
libRbt.so (2013.1, Build901 2013/11/27)

>  <Rbt.Parameter_File>
/export/apps/rDock/src/rDock_2013.1_src/data/scripts/dock_solv.prm

>  <Rbt.Receptor>
prm/blind_docking_40.prm

>  <SCORE>
-6.47544

>  <SCORE.INTER>
-4.39035

>  <SCORE.INTER.CONST>
1

>  <SCORE.INTER.POLAR>
0

>  <SCORE.INTER.ROT>
5

>  <SCORE.INTER.SOLV>
6.40801

>  <SCORE.INTER.VDW>
-11.9962

>  <SCORE.INTER.norm>
-0.439035

>  <SCORE.INTRA>
-2.0851

>  <SCORE.INTRA.DIHEDRAL>
-2.10474

>  <SCORE.INTRA.DIHEDRAL.0>
3.67053

>  <SCORE.INTRA.POLAR>
0

>  <SCORE.INTRA.POLAR.0>
0

>  <SCORE.INTRA.REPUL>
0

>  <SCORE.INTRA.REPUL.0>
0

>  <SCORE.INTRA.SOLV>
-1.71957

>  <SCORE.INTRA.SOLV.lig_0>
-32.0553

>  <SCORE.INTRA.VDW>
-0.172941

>  <SCORE.INTRA.VDW.0>
-0.571921

>  <SCORE.INTRA.norm>
-0.20851

>  <SCORE.RESTR>
0

>  <SCORE.RESTR.CAVITY>
0

>  <SCORE.RESTR.norm>
0

>  <SCORE.SYSTEM>
0

>  <SCORE.SYSTEM.CONST>
0

>  <SCORE.SYSTEM.DIHEDRAL>
0

>  <SCORE.SYSTEM.SOLV>
0

>  <SCORE.SYSTEM.norm>
0

>  <SCORE.heavy>
10

>  <SCORE.norm>
-0.647544

>  <RMSD>
13.171

$$$$
ligand
 OpenBabel11021811473D
libRbt.so/2013.1/901 2013/11/27
 10  9  0  0  0  0  0  0  0  0999 V2000
   25.8639   14.2180   10.0999 N   0  0  0  0  0  0  0  0  0  0  0  0
   24.7177   14.1989    9.1422 C   0  0  2  0  0  0  0  0  0  0  0  0
   24.9804   15.0895    7.9351 C   0  0  0  0  0  0  0  0  0  0  0  0
   24.9144   16.3112    8.0164 O   0  0  0  0  0  0  0  0  0  0  0  0
   23.4142   14.5950    9.8403 C   0  0  0  0  0  0  0  0  0  0  0  0
   23.0987   13.7566   11.0671 C   0  0  0  0  0  0  0  0  0  0  0  0
   21.7961   14.1923   11.7265 C   0  0  0  0  0  0  0  0  0  0  0  0
   21.6224   13.5120   13.0744 C   0  0  0  0  0  0  0  0  0  0  0  0
   21.4792   12.0171   12.9574 N   0  0  0  0  0  0  0  0  0  0  0  0
   25.2962   14.6327    6.8448 O   0  0  0  0  0  0  0  0  0  0  0  0
  2  1  1  1  0  0  0
  2  3  1  0  0  0  0
  2  5  1  0  0  0  0
  3  4  1  0  0  0  0
  3 10  1  0  0  0  0
  5  6  1  0  0  0  0
  6  7  1  0  0  0  0
  7  8  1  0  0  0  0
  8  9  1  0  0  0  0
M  END
>  <CHROM.1>
-74.97403443,-54.59448602,179.84107075,-170.15689306,-64.40631079,23.73193601
14.27515800,10.03331406,-0.88451969,-0.50181738,2.35023138

>  <Name>
ligand

>  <RI>
0

>  <Rbt.Current_Directory>
/home/itssahil/PROJECTS/Mol_Feturizer/New_Systems/rnas/3DIZ

>  <Rbt.Executable>
rbdock ($Id: //depot/dev/client3/rdock/2013.1/src/exe/rbdock.cxx#4 $)

>  <Rbt.Library>
libRbt.so (2013.1, Build901 2013/11/27)

>  <Rbt.Parameter_File>
/export/apps/rDock/src/rDock_2013.1_src/data/scripts/dock_solv.prm

>  <Rbt.Receptor>
prm/blind_docking_60.prm

>  <SCORE>
-4.75862

>  <SCORE.INTER>
-4.08196

>  <SCORE.INTER.CONST>
1

>  <SCORE.INTER.POLAR>
0

>  <SCORE.INTER.ROT>
5

>  <SCORE.INTER.SOLV>
6.41077

>  <SCORE.INTER.VDW>
-11.7916

>  <SCORE.INTER.norm>
-0.408196

>  <SCORE.INTRA>
-0.676662

>  <SCORE.INTRA.DIHEDRAL>
-1.64213

>  <SCORE.INTRA.DIHEDRAL.0>
3.67053

>  <SCORE.INTRA.POLAR>
0

>  <SCORE.INTRA.POLAR.0>
0

>  <SCORE.INTRA.REPUL>
0

>  <SCORE.INTRA.REPUL.0>
0

>  <SCORE.INTRA.SOLV>
0.118504

>  <SCORE.INTRA.SOLV.lig_0>
-32.0553

>  <SCORE.INTRA.VDW>
0.0851526

>  <SCORE.INTRA.VDW.0>
-0.571921

>  <SCORE.INTRA.norm>
-0.0676662

>  <SCORE.RESTR>
0

>  <SCORE.RESTR.CAVITY>
0

>  <SCORE.RESTR.norm>
0

>  <SCORE.SYSTEM>
0

>  <SCORE.SYSTEM.CONST>
0

>  <SCORE.SYSTEM.DIHEDRAL>
0

>  <SCORE.SYSTEM.SOLV>
0

>  <SCORE.SYSTEM.norm>
0

>  <SCORE.heavy>
10

>  <SCORE.norm>
-0.475862

>  <RMSD>
13.173

$$$$
ligand
 OpenBabel11021811473D
libRbt.so/2013.1/901 2013/11/27
 10  9  0  0  0  0  0  0  0  0999 V2000
   20.9564   14.2048   11.3509 N   0  0  0  0  0  0  0  0  0  0  0  0
   21.9152   13.1997   11.9005 C   0  0  2  0  0  0  0  0  0  0  0  0
   21.8690   13.1540   13.4220 C   0  0  0  0  0  0  0  0  0  0  0  0
   22.1520   12.1329   14.0391 O   0  0  0  0  0  0  0  0  0  0  0  0
   23.3376   13.4719   11.4048 C   0  0  0  0  0  0  0  0  0  0  0  0
   23.4918   13.3589    9.8978 C   0  0  0  0  0  0  0  0  0  0  0  0
   24.9280   13.6151    9.4585 C   0  0  0  0  0  0  0  0  0  0  0  0
   25.0519   13.5231    7.9465 C   0  0  0  0  0  0  0  0  0  0  0  0
   26.4655   13.7211    7.4655 N   0  0  0  0  0  0  0  0  0  0  0  0
   21.5789   14.1339   14.0948 O   0  0  0  0  0  0  0  0  0  0  0  0
  2  1  1  1  0  0  0
  2  3  1  0  0  0  0
  2  5  1  0  0  0  0
  3  4  1  0  0  0  0
  3 10  1  0  0  0  0
  5  6  1  0  0  0  0
  6  7  1  0  0  0  0
  7  8  1  0  0  0  0
  8  9  1  0  0  0  0
M  END
>  <CHROM.1>
152.15203643,-62.57795432,-179.03355308,-178.90772947,-177.96848572,23.16552227
13.44855049,11.14260092,2.25572368,-0.41031152,1.94546401

>  <Name>
ligand

>  <RI>
0

>  <Rbt.Current_Directory>
/home/itssahil/PROJECTS/Mol_Feturizer/New_Systems/rnas/3DIZ

>  <Rbt.Executable>
rbdock ($Id: //depot/dev/client3/rdock/2013.1/src/exe/rbdock.cxx#4 $)

>  <Rbt.Library>
libRbt.so (2013.1, Build901 2013/11/27)

>  <Rbt.Parameter_File>
/export/apps/rDock/src/rDock_2013.1_src/data/scripts/dock_solv.prm

>  <Rbt.Receptor>
prm/blind_docking_80.prm

>  <SCORE>
-4.8226

>  <SCORE.INTER>
-3.04355

>  <SCORE.INTER.CONST>
1

>  <SCORE.INTER.POLAR>
0

>  <SCORE.INTER.ROT>
5

>  <SCORE.INTER.SOLV>
7.00601

>  <SCORE.INTER.VDW>
-11.2977

>  <SCORE.INTER.norm>
-0.304355

>  <SCORE.INTRA>
-1.77905

>  <SCORE.INTRA.DIHEDRAL>
-2.17333

>  <SCORE.INTRA.DIHEDRAL.0>
3.67053

>  <SCORE.INTRA.POLAR>
0

>  <SCORE.INTRA.POLAR.0>
0

>  <SCORE.INTRA.REPUL>
0

>  <SCORE.INTRA.REPUL.0>
0

>  <SCORE.INTRA.SOLV>
-0.856027

>  <SCORE.INTRA.SOLV.lig_0>
-32.0553

>  <SCORE.INTRA.VDW>
-0.26437

>  <SCORE.INTRA.VDW.0>
-0.571921

>  <SCORE.INTRA.norm>
-0.177905

>  <SCORE.RESTR>
0

>  <SCORE.RESTR.CAVITY>
0

>  <SCORE.RESTR.norm>
0

>  <SCORE.SYSTEM>
0

>  <SCORE.SYSTEM.CONST>
0

>  <SCORE.SYSTEM.DIHEDRAL>
0

>  <SCORE.SYSTEM.SOLV>
0

>  <SCORE.SYSTEM.norm>
0

>  <SCORE.heavy>
10

>  <SCORE.norm>
-0.48226

>  <RMSD>
13.176

$$$$
ligand
 OpenBabel11021811473D
libRbt.so/2013.1/901 2013/11/27
 10  9  0  0  0  0  0  0  0  0999 V2000
   23.7038   12.9867    8.7307 N   0  0  0  0  0  0  0  0  0  0  0  0
   24.0953   14.3673    9.1457 C   0  0  2  0  0  0  0  0  0  0  0  0
   24.7768   15.1218    8.0119 C   0  0  0  0  0  0  0  0  0  0  0  0
   24.8667   16.3447    8.0219 O   0  0  0  0  0  0  0  0  0  0  0  0
   24.9842   14.3332   10.3914 C   0  0  0  0  0  0  0  0  0  0  0  0
   26.2859   13.5756   10.1929 C   0  0  0  0  0  0  0  0  0  0  0  0
   27.2881   13.8795   11.2996 C   0  0  0  0  0  0  0  0  0  0  0  0
   27.8352   15.2902   11.1564 C   0  0  0  0  0  0  0  0  0  0  0  0
   28.5767   15.4980    9.8619 N   0  0  0  0  0  0  0  0  0  0  0  0
   25.2882   14.5462    7.0611 O   0  0  0  0  0  0  0  0  0  0  0  0
  2  1  1  6  0  0  0
  2  3  1  0  0  0  0
  2  5  1  0  0  0  0
  3  4  1  0  0  0  0
  3 10  1  0  0  0  0
  5  6  1  0  0  0  0
  6  7  1  0  0  0  0
  7  8  1  0  0  0  0
  8  9  1  0  0  0  0
M  END
>  <CHROM.1>
161.20818261,60.83823991,164.55170052,-71.71885922,-61.67438364,25.77676758
14.61230054,9.35712365,2.67293519,-0.51345664,-0.88043648

>  <Name>
ligand

>  <RI>
0

>  <Rbt.Current_Directory>
/home/itssahil/PROJECTS/Mol_Feturizer/New_Systems/rnas/3DIZ

>  <Rbt.Executable>
rbdock ($Id: //depot/dev/client3/rdock/2013.1/src/exe/rbdock.cxx#4 $)

>  <Rbt.Library>
libRbt.so (2013.1, Build901 2013/11/27)

>  <Rbt.Parameter_File>
/export/apps/rDock/src/rDock_2013.1_src/data/scripts/dock_solv.prm

>  <Rbt.Receptor>
prm/blind_docking_80.prm

>  <SCORE>
-4.96501

>  <SCORE.INTER>
-5.1402

>  <SCORE.INTER.CONST>
1

>  <SCORE.INTER.POLAR>
0

>  <SCORE.INTER.ROT>
5

>  <SCORE.INTER.SOLV>
14.3072

>  <SCORE.INTER.VDW>
-15.1292

>  <SCORE.INTER.norm>
-0.51402

>  <SCORE.INTRA>
0.175191

>  <SCORE.INTRA.DIHEDRAL>
-0.704904

>  <SCORE.INTRA.DIHEDRAL.0>
3.67053

>  <SCORE.INTRA.POLAR>
0

>  <SCORE.INTRA.POLAR.0>
0

>  <SCORE.INTRA.REPUL>
0

>  <SCORE.INTRA.REPUL.0>
0

>  <SCORE.INTRA.SOLV>
0.550222

>  <SCORE.INTRA.SOLV.lig_0>
-32.0553

>  <SCORE.INTRA.VDW>
0.252532

>  <SCORE.INTRA.VDW.0>
-0.571921

>  <SCORE.INTRA.norm>
0.0175191

>  <SCORE.RESTR>
0

>  <SCORE.RESTR.CAVITY>
0

>  <SCORE.RESTR.norm>
0

>  <SCORE.SYSTEM>
0

>  <SCORE.SYSTEM.CONST>
0

>  <SCORE.SYSTEM.DIHEDRAL>
0

>  <SCORE.SYSTEM.SOLV>
0

>  <SCORE.SYSTEM.norm>
0

>  <SCORE.heavy>
10

>  <SCORE.norm>
-0.496501

>  <RMSD>
13.187

$$$$
ligand
 OpenBabel11021811473D
libRbt.so/2013.1/901 2013/11/27
 10  9  0  0  0  0  0  0  0  0999 V2000
   20.9566   14.2190   11.3520 N   0  0  0  0  0  0  0  0  0  0  0  0
   21.9269   13.2142   11.8816 C   0  0  2  0  0  0  0  0  0  0  0  0
   21.9020   13.1582   13.4032 C   0  0  0  0  0  0  0  0  0  0  0  0
   22.2056   12.1367   14.0098 O   0  0  0  0  0  0  0  0  0  0  0  0
   23.3412   13.4952   11.3680 C   0  0  0  0  0  0  0  0  0  0  0  0
   23.4856   13.3478    9.8630 C   0  0  0  0  0  0  0  0  0  0  0  0
   24.9192   13.5924    9.4087 C   0  0  0  0  0  0  0  0  0  0  0  0
   25.0323   13.4704    7.8980 C   0  0  0  0  0  0  0  0  0  0  0  0
   26.4379   13.6842    7.4007 N   0  0  0  0  0  0  0  0  0  0  0  0
   21.6094   14.1303   14.0862 O   0  0  0  0  0  0  0  0  0  0  0  0
  2  1  1  1  0  0  0
  2  3  1  0  0  0  0
  2  5  1  0  0  0  0
  3  4  1  0  0  0  0
  3 10  1  0  0  0  0
  5  6  1  0  0  0  0
  6  7  1  0  0  0  0
  7  8  1  0  0  0  0
  8  9  1  0  0  0  0
M  END
>  <CHROM.1>
152.61621516,-64.49470350,-178.11515653,-178.71784442,-179.14984236,23.17314133
13.44174898,11.11174370,2.24913713,-0.42110349,1.93947253

>  <Name>
ligand

>  <RI>
0

>  <Rbt.Current_Directory>
/home/itssahil/PROJECTS/Mol_Feturizer/New_Systems/rnas/3DIZ

>  <Rbt.Executable>
rbdock ($Id: //depot/dev/client3/rdock/2013.1/src/exe/rbdock.cxx#4 $)

>  <Rbt.Library>
libRbt.so (2013.1, Build901 2013/11/27)

>  <Rbt.Parameter_File>
/export/apps/rDock/src/rDock_2013.1_src/data/scripts/dock_solv.prm

>  <Rbt.Receptor>
prm/blind_docking_40.prm

>  <SCORE>
-4.78894

>  <SCORE.INTER>
-3.00907

>  <SCORE.INTER.CONST>
1

>  <SCORE.INTER.POLAR>
0

>  <SCORE.INTER.ROT>
5

>  <SCORE.INTER.SOLV>
7.09223

>  <SCORE.INTER.VDW>
-11.3035

>  <SCORE.INTER.norm>
-0.300907

>  <SCORE.INTRA>
-1.77987

>  <SCORE.INTRA.DIHEDRAL>
-2.11582

>  <SCORE.INTRA.DIHEDRAL.0>
3.67053

>  <SCORE.INTRA.POLAR>
0

>  <SCORE.INTRA.POLAR.0>
0

>  <SCORE.INTRA.REPUL>
0

>  <SCORE.INTRA.REPUL.0>
0

>  <SCORE.INTRA.SOLV>
-0.885302

>  <SCORE.INTRA.SOLV.lig_0>
-32.0553

>  <SCORE.INTRA.VDW>
-0.279307

>  <SCORE.INTRA.VDW.0>
-0.571921

>  <SCORE.INTRA.norm>
-0.177987

>  <SCORE.RESTR>
0

>  <SCORE.RESTR.CAVITY>
0

>  <SCORE.RESTR.norm>
0

>  <SCORE.SYSTEM>
0

>  <SCORE.SYSTEM.CONST>
0

>  <SCORE.SYSTEM.DIHEDRAL>
0

>  <SCORE.SYSTEM.SOLV>
0

>  <SCORE.SYSTEM.norm>
0

>  <SCORE.heavy>
10

>  <SCORE.norm>
-0.478894

>  <RMSD>
13.191

$$$$
ligand
 OpenBabel11021811473D
libRbt.so/2013.1/901 2013/11/27
 10  9  0  0  0  0  0  0  0  0999 V2000
   20.9565   14.2308   11.3467 N   0  0  0  0  0  0  0  0  0  0  0  0
   21.9200   13.2241   11.8849 C   0  0  2  0  0  0  0  0  0  0  0  0
   21.8925   13.1791   13.4069 C   0  0  0  0  0  0  0  0  0  0  0  0
   21.5716   14.1599   14.0691 O   0  0  0  0  0  0  0  0  0  0  0  0
   23.3367   13.4930   11.3715 C   0  0  0  0  0  0  0  0  0  0  0  0
   23.4768   13.3581    9.8649 C   0  0  0  0  0  0  0  0  0  0  0  0
   24.9086   13.6089    9.4084 C   0  0  0  0  0  0  0  0  0  0  0  0
   25.0198   13.4879    7.8974 C   0  0  0  0  0  0  0  0  0  0  0  0
   26.4284   13.6811    7.4003 N   0  0  0  0  0  0  0  0  0  0  0  0
   22.1581   12.1623   14.0335 O   0  0  0  0  0  0  0  0  0  0  0  0
  2  1  1  1  0  0  0
  2  3  1  0  0  0  0
  2  5  1  0  0  0  0
  3  4  1  0  0  0  0
  3 10  1  0  0  0  0
  5  6  1  0  0  0  0
  6  7  1  0  0  0  0
  7  8  1  0  0  0  0
  8  9  1  0  0  0  0
M  END
>  <CHROM.1>
-27.31114720,-63.46560740,-178.90373213,-179.20065144,-178.03337538,23.15747027
13.45573295,11.11299762,2.25261010,-0.42603926,1.94296427

>  <Name>
ligand

>  <RI>
0

>  <Rbt.Current_Directory>
/home/itssahil/PROJECTS/Mol_Feturizer/New_Systems/rnas/3DIZ

>  <Rbt.Executable>
rbdock ($Id: //depot/dev/client3/rdock/2013.1/src/exe/rbdock.cxx#4 $)

>  <Rbt.Library>
libRbt.so (2013.1, Build901 2013/11/27)

>  <Rbt.Parameter_File>
/export/apps/rDock/src/rDock_2013.1_src/data/scripts/dock_solv.prm

>  <Rbt.Receptor>
prm/blind_docking_40.prm

>  <SCORE>
-4.7699

>  <SCORE.INTER>
-3.06183

>  <SCORE.INTER.CONST>
1

>  <SCORE.INTER.POLAR>
0

>  <SCORE.INTER.ROT>
5

>  <SCORE.INTER.SOLV>
7.08869

>  <SCORE.INTER.VDW>
-11.3374

>  <SCORE.INTER.norm>
-0.306183

>  <SCORE.INTRA>
-1.70807

>  <SCORE.INTRA.DIHEDRAL>
-2.02947

>  <SCORE.INTRA.DIHEDRAL.0>
3.67053

>  <SCORE.INTRA.POLAR>
0

>  <SCORE.INTRA.POLAR.0>
0

>  <SCORE.INTRA.REPUL>
0

>  <SCORE.INTRA.REPUL.0>
0

>  <SCORE.INTRA.SOLV>
-0.854916

>  <SCORE.INTRA.SOLV.lig_0>
-32.0553

>  <SCORE.INTRA.VDW>
-0.265878

>  <SCORE.INTRA.VDW.0>
-0.571921

>  <SCORE.INTRA.norm>
-0.170807

>  <SCORE.RESTR>
0

>  <SCORE.RESTR.CAVITY>
0

>  <SCORE.RESTR.norm>
0

>  <SCORE.SYSTEM>
0

>  <SCORE.SYSTEM.CONST>
0

>  <SCORE.SYSTEM.DIHEDRAL>
0

>  <SCORE.SYSTEM.SOLV>
0

>  <SCORE.SYSTEM.norm>
0

>  <SCORE.heavy>
10

>  <SCORE.norm>
-0.47699

>  <RMSD>
13.197

$$$$
ligand
 OpenBabel11021811473D
libRbt.so/2013.1/901 2013/11/27
 10  9  0  0  0  0  0  0  0  0999 V2000
   20.9448   14.2197   11.3265 N   0  0  0  0  0  0  0  0  0  0  0  0
   21.9049   13.2226   11.8879 C   0  0  2  0  0  0  0  0  0  0  0  0
   21.8626   13.1985   13.4100 C   0  0  0  0  0  0  0  0  0  0  0  0
   21.5483   14.1923   14.0559 O   0  0  0  0  0  0  0  0  0  0  0  0
   23.3261   13.4875   11.3847 C   0  0  0  0  0  0  0  0  0  0  0  0
   23.4798   13.3384    9.8808 C   0  0  0  0  0  0  0  0  0  0  0  0
   24.9123   13.6009    9.4329 C   0  0  0  0  0  0  0  0  0  0  0  0
   25.0333   13.4819    7.9226 C   0  0  0  0  0  0  0  0  0  0  0  0
   26.4426   13.6909    7.4336 N   0  0  0  0  0  0  0  0  0  0  0  0
   22.1091   12.1870   14.0528 O   0  0  0  0  0  0  0  0  0  0  0  0
  2  1  1  1  0  0  0
  2  3  1  0  0  0  0
  2  5  1  0  0  0  0
  3  4  1  0  0  0  0
  3 10  1  0  0  0  0
  5  6  1  0  0  0  0
  6  7  1  0  0  0  0
  7  8  1  0  0  0  0
  8  9  1  0  0  0  0
M  END
>  <CHROM.1>
-28.17205853,-63.19487826,-179.53506320,-178.51291627,-178.21229289,23.14652688
13.45969056,11.12337377,2.25744134,-0.41594771,1.93620470

>  <Name>
ligand

>  <RI>
0

>  <Rbt.Current_Directory>
/home/itssahil/PROJECTS/Mol_Feturizer/New_Systems/rnas/3DIZ

>  <Rbt.Executable>
rbdock ($Id: //depot/dev/client3/rdock/2013.1/src/exe/rbdock.cxx#4 $)

>  <Rbt.Library>
libRbt.so (2013.1, Build901 2013/11/27)

>  <Rbt.Parameter_File>
/export/apps/rDock/src/rDock_2013.1_src/data/scripts/dock_solv.prm

>  <Rbt.Receptor>
prm/blind_docking_40.prm

>  <SCORE>
-4.73738

>  <SCORE.INTER>
-3.02736

>  <SCORE.INTER.CONST>
1

>  <SCORE.INTER.POLAR>
0

>  <SCORE.INTER.ROT>
5

>  <SCORE.INTER.SOLV>
7.07516

>  <SCORE.INTER.VDW>
-11.31

>  <SCORE.INTER.norm>
-0.302736

>  <SCORE.INTRA>
-1.71002

>  <SCORE.INTRA.DIHEDRAL>
-2.03713

>  <SCORE.INTRA.DIHEDRAL.0>
3.67053

>  <SCORE.INTRA.POLAR>
0

>  <SCORE.INTRA.POLAR.0>
0

>  <SCORE.INTRA.REPUL>
0

>  <SCORE.INTRA.REPUL.0>
0

>  <SCORE.INTRA.SOLV>
-0.84866

>  <SCORE.INTRA.SOLV.lig_0>
-32.0553

>  <SCORE.INTRA.VDW>
-0.267123

>  <SCORE.INTRA.VDW.0>
-0.571921

>  <SCORE.INTRA.norm>
-0.171002

>  <SCORE.RESTR>
0

>  <SCORE.RESTR.CAVITY>
0

>  <SCORE.RESTR.norm>
0

>  <SCORE.SYSTEM>
0

>  <SCORE.SYSTEM.CONST>
0

>  <SCORE.SYSTEM.DIHEDRAL>
0

>  <SCORE.SYSTEM.SOLV>
0

>  <SCORE.SYSTEM.norm>
0

>  <SCORE.heavy>
10

>  <SCORE.norm>
-0.473738

>  <RMSD>
13.197

$$$$
ligand
 OpenBabel11021811473D
libRbt.so/2013.1/901 2013/11/27
 10  9  0  0  0  0  0  0  0  0999 V2000
   20.9829   14.2681   11.3743 N   0  0  0  0  0  0  0  0  0  0  0  0
   21.9127   13.2189   11.8901 C   0  0  2  0  0  0  0  0  0  0  0  0
   21.8876   13.1458   13.4111 C   0  0  0  0  0  0  0  0  0  0  0  0
   21.6207   14.1290   14.0934 O   0  0  0  0  0  0  0  0  0  0  0  0
   23.3365   13.4490   11.3773 C   0  0  0  0  0  0  0  0  0  0  0  0
   23.4619   13.3696    9.8655 C   0  0  0  0  0  0  0  0  0  0  0  0
   24.9031   13.5613    9.4098 C   0  0  0  0  0  0  0  0  0  0  0  0
   24.9986   13.5096    7.8938 C   0  0  0  0  0  0  0  0  0  0  0  0
   26.4104   13.6710    7.3940 N   0  0  0  0  0  0  0  0  0  0  0  0
   22.1014   12.1045   14.0169 O   0  0  0  0  0  0  0  0  0  0  0  0
  2  1  1  1  0  0  0
  2  3  1  0  0  0  0
  2  5  1  0  0  0  0
  3  4  1  0  0  0  0
  3 10  1  0  0  0  0
  5  6  1  0  0  0  0
  6  7  1  0  0  0  0
  7  8  1  0  0  0  0
  8  9  1  0  0  0  0
M  END
>  <CHROM.1>
-28.35882008,-62.14696160,-178.19179596,-178.70297732,-179.02100493,23.15219212
13.43926508,11.11726383,2.25908326,-0.45395665,1.97059240

>  <Name>
ligand

>  <RI>
0

>  <Rbt.Current_Directory>
/home/itssahil/PROJECTS/Mol_Feturizer/New_Systems/rnas/3DIZ

>  <Rbt.Executable>
rbdock ($Id: //depot/dev/client3/rdock/2013.1/src/exe/rbdock.cxx#4 $)

>  <Rbt.Library>
libRbt.so (2013.1, Build901 2013/11/27)

>  <Rbt.Parameter_File>
/export/apps/rDock/src/rDock_2013.1_src/data/scripts/dock_solv.prm

>  <Rbt.Receptor>
prm/blind_docking_100.prm

>  <SCORE>
-4.74347

>  <SCORE.INTER>
-3.0352

>  <SCORE.INTER.CONST>
1

>  <SCORE.INTER.POLAR>
0

>  <SCORE.INTER.ROT>
5

>  <SCORE.INTER.SOLV>
7.11027

>  <SCORE.INTER.VDW>
-11.3269

>  <SCORE.INTER.norm>
-0.30352

>  <SCORE.INTRA>
-1.70827

>  <SCORE.INTRA.DIHEDRAL>
-2.05937

>  <SCORE.INTRA.DIHEDRAL.0>
3.67053

>  <SCORE.INTRA.POLAR>
0

>  <SCORE.INTRA.POLAR.0>
0

>  <SCORE.INTRA.REPUL>
0

>  <SCORE.INTRA.REPUL.0>
0

>  <SCORE.INTRA.SOLV>
-0.841747

>  <SCORE.INTRA.SOLV.lig_0>
-32.0553

>  <SCORE.INTRA.VDW>
-0.257711

>  <SCORE.INTRA.VDW.0>
-0.571921

>  <SCORE.INTRA.norm>
-0.170827

>  <SCORE.RESTR>
0

>  <SCORE.RESTR.CAVITY>
0

>  <SCORE.RESTR.norm>
0

>  <SCORE.SYSTEM>
0

>  <SCORE.SYSTEM.CONST>
0

>  <SCORE.SYSTEM.DIHEDRAL>
0

>  <SCORE.SYSTEM.SOLV>
0

>  <SCORE.SYSTEM.norm>
0

>  <SCORE.heavy>
10

>  <SCORE.norm>
-0.474347

>  <RMSD>
13.199

$$$$
ligand
 OpenBabel11021811473D
libRbt.so/2013.1/901 2013/11/27
 10  9  0  0  0  0  0  0  0  0999 V2000
   26.4536   13.9836   10.2885 N   0  0  0  0  0  0  0  0  0  0  0  0
   25.0468   13.7227    9.8595 C   0  0  2  0  0  0  0  0  0  0  0  0
   24.7167   14.4358    8.5550 C   0  0  0  0  0  0  0  0  0  0  0  0
   24.1471   13.8563    7.6367 O   0  0  0  0  0  0  0  0  0  0  0  0
   24.0574   14.1119   10.9607 C   0  0  0  0  0  0  0  0  0  0  0  0
   22.6113   13.7895   10.6251 C   0  0  0  0  0  0  0  0  0  0  0  0
   21.6531   14.3505   11.6685 C   0  0  0  0  0  0  0  0  0  0  0  0
   20.2139   14.0195   11.3093 C   0  0  0  0  0  0  0  0  0  0  0  0
   19.8718   12.5727   11.5515 N   0  0  0  0  0  0  0  0  0  0  0  0
   24.9753   15.6181    8.3753 O   0  0  0  0  0  0  0  0  0  0  0  0
  2  1  1  1  0  0  0
  2  3  1  0  0  0  0
  2  5  1  0  0  0  0
  3  4  1  0  0  0  0
  3 10  1  0  0  0  0
  5  6  1  0  0  0  0
  6  7  1  0  0  0  0
  7  8  1  0  0  0  0
  8  9  1  0  0  0  0
M  END
>  <CHROM.1>
133.20382973,-176.29630481,-172.86213568,179.81783255,74.04164280,23.37682247
14.06233776,10.04812961,-0.51709844,0.09834227,1.75597584

>  <Name>
ligand

>  <RI>
0

>  <Rbt.Current_Directory>
/home/itssahil/PROJECTS/Mol_Feturizer/New_Systems/rnas/3DIZ

>  <Rbt.Executable>
rbdock ($Id: //depot/dev/client3/rdock/2013.1/src/exe/rbdock.cxx#4 $)

>  <Rbt.Library>
libRbt.so (2013.1, Build901 2013/11/27)

>  <Rbt.Parameter_File>
/export/apps/rDock/src/rDock_2013.1_src/data/scripts/dock_solv.prm

>  <Rbt.Receptor>
prm/blind_docking_40.prm

>  <SCORE>
-3.46351

>  <SCORE.INTER>
-2.12968

>  <SCORE.INTER.CONST>
1

>  <SCORE.INTER.POLAR>
0

>  <SCORE.INTER.ROT>
5

>  <SCORE.INTER.SOLV>
7.80407

>  <SCORE.INTER.VDW>
-10.9545

>  <SCORE.INTER.norm>
-0.212968

>  <SCORE.INTRA>
-1.33383

>  <SCORE.INTRA.DIHEDRAL>
-1.23373

>  <SCORE.INTRA.DIHEDRAL.0>
3.67053

>  <SCORE.INTRA.POLAR>
0

>  <SCORE.INTRA.POLAR.0>
0

>  <SCORE.INTRA.REPUL>
0

>  <SCORE.INTRA.REPUL.0>
0

>  <SCORE.INTRA.SOLV>
-0.95446

>  <SCORE.INTRA.SOLV.lig_0>
-32.0553

>  <SCORE.INTRA.VDW>
-0.23974

>  <SCORE.INTRA.VDW.0>
-0.571921

>  <SCORE.INTRA.norm>
-0.133383

>  <SCORE.RESTR>
0

>  <SCORE.RESTR.CAVITY>
0

>  <SCORE.RESTR.norm>
0

>  <SCORE.SYSTEM>
0

>  <SCORE.SYSTEM.CONST>
0

>  <SCORE.SYSTEM.DIHEDRAL>
0

>  <SCORE.SYSTEM.SOLV>
0

>  <SCORE.SYSTEM.norm>
0

>  <SCORE.heavy>
10

>  <SCORE.norm>
-0.346351

>  <RMSD>
13.267

$$$$
ligand
 OpenBabel11021811473D
libRbt.so/2013.1/901 2013/11/27
 10  9  0  0  0  0  0  0  0  0999 V2000
   25.8533   14.1891   10.0913 N   0  0  0  0  0  0  0  0  0  0  0  0
   24.7349   14.2154    9.1014 C   0  0  2  0  0  0  0  0  0  0  0  0
   25.0270   15.1687    7.9503 C   0  0  0  0  0  0  0  0  0  0  0  0
   25.3167   14.7522    6.8340 O   0  0  0  0  0  0  0  0  0  0  0  0
   23.4100   14.5695    9.7814 C   0  0  0  0  0  0  0  0  0  0  0  0
   22.9925   13.5822   10.8578 C   0  0  0  0  0  0  0  0  0  0  0  0
   21.6619   13.9697   11.4911 C   0  0  0  0  0  0  0  0  0  0  0  0
   21.2986   13.0070   12.6096 C   0  0  0  0  0  0  0  0  0  0  0  0
   19.9767   13.3348   13.2528 N   0  0  0  0  0  0  0  0  0  0  0  0
   24.9577   16.3837    8.0768 O   0  0  0  0  0  0  0  0  0  0  0  0
  2  1  1  1  0  0  0
  2  3  1  0  0  0  0
  2  5  1  0  0  0  0
  3  4  1  0  0  0  0
  3 10  1  0  0  0  0
  5  6  1  0  0  0  0
  6  7  1  0  0  0  0
  7  8  1  0  0  0  0
  8  9  1  0  0  0  0
M  END
>  <CHROM.1>
106.74308031,-60.63756129,-179.32112779,-177.23976918,-179.00901420,23.53808831
14.34090977,9.96870231,-0.82678502,-0.26800183,2.18316761

>  <Name>
ligand

>  <RI>
0

>  <Rbt.Current_Directory>
/home/itssahil/PROJECTS/Mol_Feturizer/New_Systems/rnas/3DIZ

>  <Rbt.Executable>
rbdock ($Id: //depot/dev/client3/rdock/2013.1/src/exe/rbdock.cxx#4 $)

>  <Rbt.Library>
libRbt.so (2013.1, Build901 2013/11/27)

>  <Rbt.Parameter_File>
/export/apps/rDock/src/rDock_2013.1_src/data/scripts/dock_solv.prm

>  <Rbt.Receptor>
prm/blind_docking_100.prm

>  <SCORE>
-5.95959

>  <SCORE.INTER>
-4.39408

>  <SCORE.INTER.CONST>
1

>  <SCORE.INTER.POLAR>
0

>  <SCORE.INTER.ROT>
5

>  <SCORE.INTER.SOLV>
4.38082

>  <SCORE.INTER.VDW>
-11.323

>  <SCORE.INTER.norm>
-0.439408

>  <SCORE.INTRA>
-1.56551

>  <SCORE.INTRA.DIHEDRAL>
-2.08466

>  <SCORE.INTRA.DIHEDRAL.0>
3.67053

>  <SCORE.INTRA.POLAR>
0

>  <SCORE.INTRA.POLAR.0>
0

>  <SCORE.INTRA.REPUL>
0

>  <SCORE.INTRA.REPUL.0>
0

>  <SCORE.INTRA.SOLV>
-0.850631

>  <SCORE.INTRA.SOLV.lig_0>
-32.0553

>  <SCORE.INTRA.VDW>
-0.0978662

>  <SCORE.INTRA.VDW.0>
-0.571921

>  <SCORE.INTRA.norm>
-0.156551

>  <SCORE.RESTR>
0

>  <SCORE.RESTR.CAVITY>
0

>  <SCORE.RESTR.norm>
0

>  <SCORE.SYSTEM>
0

>  <SCORE.SYSTEM.CONST>
0

>  <SCORE.SYSTEM.DIHEDRAL>
0

>  <SCORE.SYSTEM.SOLV>
0

>  <SCORE.SYSTEM.norm>
0

>  <SCORE.heavy>
10

>  <SCORE.norm>
-0.595959

>  <RMSD>
13.305

$$$$
ligand
 OpenBabel11021811473D
libRbt.so/2013.1/901 2013/11/27
 10  9  0  0  0  0  0  0  0  0999 V2000
   25.8320   13.4482    7.3218 N   0  0  0  0  0  0  0  0  0  0  0  0
   24.8312   14.3265    7.9990 C   0  0  2  0  0  0  0  0  0  0  0  0
   25.4667   15.6145    8.5051 C   0  0  0  0  0  0  0  0  0  0  0  0
   25.0499   16.7131    8.1544 O   0  0  0  0  0  0  0  0  0  0  0  0
   24.1284   13.5803    9.1358 C   0  0  0  0  0  0  0  0  0  0  0  0
   23.0183   14.3792    9.7970 C   0  0  0  0  0  0  0  0  0  0  0  0
   22.3338   13.5837   10.9015 C   0  0  0  0  0  0  0  0  0  0  0  0
   21.1776   14.3724   11.4942 C   0  0  0  0  0  0  0  0  0  0  0  0
   20.4516   13.6163   12.5759 N   0  0  0  0  0  0  0  0  0  0  0  0
   26.3954   15.6136    9.3018 O   0  0  0  0  0  0  0  0  0  0  0  0
  2  1  1  1  0  0  0
  2  3  1  0  0  0  0
  2  5  1  0  0  0  0
  3  4  1  0  0  0  0
  3 10  1  0  0  0  0
  5  6  1  0  0  0  0
  6  7  1  0  0  0  0
  7  8  1  0  0  0  0
  8  9  1  0  0  0  0
M  END
>  <CHROM.1>
123.05889912,-175.38899265,178.88819355,-176.80193064,178.95530523,23.89082758
14.55672492,9.52176043,-0.02141941,-0.69999836,-2.82128660

>  <Name>
ligand

>  <RI>
0

>  <Rbt.Current_Directory>
/home/itssahil/PROJECTS/Mol_Feturizer/New_Systems/rnas/3DIZ

>  <Rbt.Executable>
rbdock ($Id: //depot/dev/client3/rdock/2013.1/src/exe/rbdock.cxx#4 $)

>  <Rbt.Library>
libRbt.so (2013.1, Build901 2013/11/27)

>  <Rbt.Parameter_File>
/export/apps/rDock/src/rDock_2013.1_src/data/scripts/dock_solv.prm

>  <Rbt.Receptor>
prm/blind_docking_40.prm

>  <SCORE>
-6.13628

>  <SCORE.INTER>
-4.00583

>  <SCORE.INTER.CONST>
1

>  <SCORE.INTER.POLAR>
0

>  <SCORE.INTER.ROT>
5

>  <SCORE.INTER.SOLV>
5.9469

>  <SCORE.INTER.VDW>
-11.5862

>  <SCORE.INTER.norm>
-0.400583

>  <SCORE.INTRA>
-2.13045

>  <SCORE.INTRA.DIHEDRAL>
-2.04802

>  <SCORE.INTRA.DIHEDRAL.0>
3.67053

>  <SCORE.INTRA.POLAR>
0

>  <SCORE.INTRA.POLAR.0>
0

>  <SCORE.INTRA.REPUL>
0

>  <SCORE.INTRA.REPUL.0>
0

>  <SCORE.INTRA.SOLV>
-1.73415

>  <SCORE.INTRA.SOLV.lig_0>
-32.0553

>  <SCORE.INTRA.VDW>
-0.239367

>  <SCORE.INTRA.VDW.0>
-0.571921

>  <SCORE.INTRA.norm>
-0.213045

>  <SCORE.RESTR>
0

>  <SCORE.RESTR.CAVITY>
0

>  <SCORE.RESTR.norm>
0

>  <SCORE.SYSTEM>
0

>  <SCORE.SYSTEM.CONST>
0

>  <SCORE.SYSTEM.DIHEDRAL>
0

>  <SCORE.SYSTEM.SOLV>
0

>  <SCORE.SYSTEM.norm>
0

>  <SCORE.heavy>
10

>  <SCORE.norm>
-0.613628

>  <RMSD>
13.387

$$$$
ligand
 OpenBabel11021811473D
libRbt.so/2013.1/901 2013/11/27
 10  9  0  0  0  0  0  0  0  0999 V2000
   26.2247   14.6303    9.6969 N   0  0  0  0  0  0  0  0  0  0  0  0
   25.1134   14.2321    8.7817 C   0  0  2  0  0  0  0  0  0  0  0  0
   25.2013   14.9556    7.4445 C   0  0  0  0  0  0  0  0  0  0  0  0
   25.6302   14.3949    6.4419 O   0  0  0  0  0  0  0  0  0  0  0  0
   23.7514   14.4648    9.4405 C   0  0  0  0  0  0  0  0  0  0  0  0
   23.5378   13.6523   10.7061 C   0  0  0  0  0  0  0  0  0  0  0  0
   22.1303   13.8340   11.2605 C   0  0  0  0  0  0  0  0  0  0  0  0
   21.9256   12.9765   12.4985 C   0  0  0  0  0  0  0  0  0  0  0  0
   20.5295   13.0808   13.0541 N   0  0  0  0  0  0  0  0  0  0  0  0
   24.8236   16.1107    7.3027 O   0  0  0  0  0  0  0  0  0  0  0  0
  2  1  1  1  0  0  0
  2  3  1  0  0  0  0
  2  5  1  0  0  0  0
  3  4  1  0  0  0  0
  3 10  1  0  0  0  0
  5  6  1  0  0  0  0
  6  7  1  0  0  0  0
  7  8  1  0  0  0  0
  8  9  1  0  0  0  0
M  END
>  <CHROM.1>
102.43391414,-61.55438855,-175.44333632,178.09977831,-177.78273127,23.89685386
14.25150571,9.62221980,-0.93099099,-0.07161306,1.96533277

>  <Name>
ligand

>  <RI>
0

>  <Rbt.Current_Directory>
/home/itssahil/PROJECTS/Mol_Feturizer/New_Systems/rnas/3DIZ

>  <Rbt.Executable>
rbdock ($Id: //depot/dev/client3/rdock/2013.1/src/exe/rbdock.cxx#4 $)

>  <Rbt.Library>
libRbt.so (2013.1, Build901 2013/11/27)

>  <Rbt.Parameter_File>
/export/apps/rDock/src/rDock_2013.1_src/data/scripts/dock_solv.prm

>  <Rbt.Receptor>
prm/blind_docking_80.prm

>  <SCORE>
-5.96045

>  <SCORE.INTER>
-4.47501

>  <SCORE.INTER.CONST>
1

>  <SCORE.INTER.POLAR>
0

>  <SCORE.INTER.ROT>
5

>  <SCORE.INTER.SOLV>
5.32759

>  <SCORE.INTER.VDW>
-11.6925

>  <SCORE.INTER.norm>
-0.447501

>  <SCORE.INTRA>
-1.48544

>  <SCORE.INTRA.DIHEDRAL>
-1.98307

>  <SCORE.INTRA.DIHEDRAL.0>
3.67053

>  <SCORE.INTRA.POLAR>
0

>  <SCORE.INTRA.POLAR.0>
0

>  <SCORE.INTRA.REPUL>
0

>  <SCORE.INTRA.REPUL.0>
0

>  <SCORE.INTRA.SOLV>
-0.880355

>  <SCORE.INTRA.SOLV.lig_0>
-32.0553

>  <SCORE.INTRA.VDW>
-0.0537262

>  <SCORE.INTRA.VDW.0>
-0.571921

>  <SCORE.INTRA.norm>
-0.148544

>  <SCORE.RESTR>
0

>  <SCORE.RESTR.CAVITY>
0

>  <SCORE.RESTR.norm>
0

>  <SCORE.SYSTEM>
0

>  <SCORE.SYSTEM.CONST>
0

>  <SCORE.SYSTEM.DIHEDRAL>
0

>  <SCORE.SYSTEM.SOLV>
0

>  <SCORE.SYSTEM.norm>
0

>  <SCORE.heavy>
10

>  <SCORE.norm>
-0.596045

>  <RMSD>
13.449

$$$$
ligand
 OpenBabel11021811473D
libRbt.so/2013.1/901 2013/11/27
 10  9  0  0  0  0  0  0  0  0999 V2000
   23.5433   13.8464   10.8409 N   0  0  0  0  0  0  0  0  0  0  0  0
   24.8160   13.4654   10.1580 C   0  0  2  0  0  0  0  0  0  0  0  0
   26.0346   13.9571   10.9277 C   0  0  0  0  0  0  0  0  0  0  0  0
   25.9575   14.8942   11.7147 O   0  0  0  0  0  0  0  0  0  0  0  0
   24.8378   13.9770    8.7154 C   0  0  0  0  0  0  0  0  0  0  0  0
   26.0102   13.4584    7.9005 C   0  0  0  0  0  0  0  0  0  0  0  0
   25.9647   13.9646    6.4642 C   0  0  0  0  0  0  0  0  0  0  0  0
   27.1954   13.5121    5.6957 C   0  0  0  0  0  0  0  0  0  0  0  0
   27.2298   12.0221    5.4778 N   0  0  0  0  0  0  0  0  0  0  0  0
   27.1313   13.4254   10.8202 O   0  0  0  0  0  0  0  0  0  0  0  0
  2  1  1  1  0  0  0
  2  3  1  0  0  0  0
  2  5  1  0  0  0  0
  3  4  1  0  0  0  0
  3 10  1  0  0  0  0
  5  6  1  0  0  0  0
  6  7  1  0  0  0  0
  7  8  1  0  0  0  0
  8  9  1  0  0  0  0
M  END
>  <CHROM.1>
-22.39614519,-171.71662121,178.40950304,176.10875134,67.55141708,25.89621436
13.66364237,8.90014013,1.84157001,-0.11674254,1.40168538

>  <Name>
ligand

>  <RI>
0

>  <Rbt.Current_Directory>
/home/itssahil/PROJECTS/Mol_Feturizer/New_Systems/rnas/3DIZ

>  <Rbt.Executable>
rbdock ($Id: //depot/dev/client3/rdock/2013.1/src/exe/rbdock.cxx#4 $)

>  <Rbt.Library>
libRbt.so (2013.1, Build901 2013/11/27)

>  <Rbt.Parameter_File>
/export/apps/rDock/src/rDock_2013.1_src/data/scripts/dock_solv.prm

>  <Rbt.Receptor>
prm/blind_docking_40.prm

>  <SCORE>
-4.26205

>  <SCORE.INTER>
-2.90768

>  <SCORE.INTER.CONST>
1

>  <SCORE.INTER.POLAR>
0

>  <SCORE.INTER.ROT>
5

>  <SCORE.INTER.SOLV>
7.30392

>  <SCORE.INTER.VDW>
-11.3064

>  <SCORE.INTER.norm>
-0.290768

>  <SCORE.INTRA>
-1.35436

>  <SCORE.INTRA.DIHEDRAL>
-1.57483

>  <SCORE.INTRA.DIHEDRAL.0>
3.67053

>  <SCORE.INTRA.POLAR>
0

>  <SCORE.INTRA.POLAR.0>
0

>  <SCORE.INTRA.REPUL>
0

>  <SCORE.INTRA.REPUL.0>
0

>  <SCORE.INTRA.SOLV>
-0.847143

>  <SCORE.INTRA.SOLV.lig_0>
-32.0553

>  <SCORE.INTRA.VDW>
-0.143377

>  <SCORE.INTRA.VDW.0>
-0.571921

>  <SCORE.INTRA.norm>
-0.135436

>  <SCORE.RESTR>
0

>  <SCORE.RESTR.CAVITY>
0

>  <SCORE.RESTR.norm>
0

>  <SCORE.SYSTEM>
0

>  <SCORE.SYSTEM.CONST>
0

>  <SCORE.SYSTEM.DIHEDRAL>
0

>  <SCORE.SYSTEM.SOLV>
0

>  <SCORE.SYSTEM.norm>
0

>  <SCORE.heavy>
10

>  <SCORE.norm>
-0.426205

>  <RMSD>
13.460

$$$$
ligand
 OpenBabel11021811473D
libRbt.so/2013.1/901 2013/11/27
 10  9  0  0  0  0  0  0  0  0999 V2000
   22.8500   12.2352   12.7626 N   0  0  0  0  0  0  0  0  0  0  0  0
   22.6754   13.4988   11.9853 C   0  0  2  0  0  0  0  0  0  0  0  0
   21.2038   13.8369   11.7873 C   0  0  0  0  0  0  0  0  0  0  0  0
   20.7682   14.9578   12.0266 O   0  0  0  0  0  0  0  0  0  0  0  0
   23.4037   13.4198   10.6412 C   0  0  0  0  0  0  0  0  0  0  0  0
   23.3094   14.6937    9.8191 C   0  0  0  0  0  0  0  0  0  0  0  0
   24.1032   14.5868    8.5229 C   0  0  0  0  0  0  0  0  0  0  0  0
   25.5917   14.7373    8.7906 C   0  0  0  0  0  0  0  0  0  0  0  0
   26.1682   13.5682    9.5453 N   0  0  0  0  0  0  0  0  0  0  0  0
   20.4004   13.0214   11.3555 O   0  0  0  0  0  0  0  0  0  0  0  0
  2  1  1  6  0  0  0
  2  3  1  0  0  0  0
  2  5  1  0  0  0  0
  3  4  1  0  0  0  0
  3 10  1  0  0  0  0
  5  6  1  0  0  0  0
  6  7  1  0  0  0  0
  7  8  1  0  0  0  0
  8  9  1  0  0  0  0
M  END
>  <CHROM.1>
131.06817753,-177.90329247,177.33209299,-76.45130791,69.02105129,23.00711169
13.86242641,10.72635435,-2.59605498,0.32496717,-0.85500481

>  <Name>
ligand

>  <RI>
0

>  <Rbt.Current_Directory>
/home/itssahil/PROJECTS/Mol_Feturizer/New_Systems/rnas/3DIZ

>  <Rbt.Executable>
rbdock ($Id: //depot/dev/client3/rdock/2013.1/src/exe/rbdock.cxx#4 $)

>  <Rbt.Library>
libRbt.so (2013.1, Build901 2013/11/27)

>  <Rbt.Parameter_File>
/export/apps/rDock/src/rDock_2013.1_src/data/scripts/dock_solv.prm

>  <Rbt.Receptor>
prm/blind_docking_80.prm

>  <SCORE>
-1.81191

>  <SCORE.INTER>
-2.05665

>  <SCORE.INTER.CONST>
1

>  <SCORE.INTER.POLAR>
0

>  <SCORE.INTER.ROT>
5

>  <SCORE.INTER.SOLV>
9.33919

>  <SCORE.INTER.VDW>
-11.4175

>  <SCORE.INTER.norm>
-0.205665

>  <SCORE.INTRA>
0.244743

>  <SCORE.INTRA.DIHEDRAL>
-0.786429

>  <SCORE.INTRA.DIHEDRAL.0>
3.67053

>  <SCORE.INTRA.POLAR>
0

>  <SCORE.INTRA.POLAR.0>
0

>  <SCORE.INTRA.REPUL>
0

>  <SCORE.INTRA.REPUL.0>
0

>  <SCORE.INTRA.SOLV>
0.546753

>  <SCORE.INTRA.SOLV.lig_0>
-32.0553

>  <SCORE.INTRA.VDW>
0.364581

>  <SCORE.INTRA.VDW.0>
-0.571921

>  <SCORE.INTRA.norm>
0.0244743

>  <SCORE.RESTR>
0

>  <SCORE.RESTR.CAVITY>
0

>  <SCORE.RESTR.norm>
0

>  <SCORE.SYSTEM>
0

>  <SCORE.SYSTEM.CONST>
0

>  <SCORE.SYSTEM.DIHEDRAL>
0

>  <SCORE.SYSTEM.SOLV>
0

>  <SCORE.SYSTEM.norm>
0

>  <SCORE.heavy>
10

>  <SCORE.norm>
-0.181191

>  <RMSD>
13.496

$$$$
ligand
 OpenBabel11021811473D
libRbt.so/2013.1/901 2013/11/27
 10  9  0  0  0  0  0  0  0  0999 V2000
   26.1725   14.3508    9.6026 N   0  0  0  0  0  0  0  0  0  0  0  0
   25.0262   14.1050    8.6768 C   0  0  2  0  0  0  0  0  0  0  0  0
   25.1553   14.9185    7.3959 C   0  0  0  0  0  0  0  0  0  0  0  0
   24.7592   16.0772    7.3326 O   0  0  0  0  0  0  0  0  0  0  0  0
   23.6914   14.3869    9.3711 C   0  0  0  0  0  0  0  0  0  0  0  0
   23.4354   13.5079   10.5834 C   0  0  0  0  0  0  0  0  0  0  0  0
   22.1014   13.8341   11.2431 C   0  0  0  0  0  0  0  0  0  0  0  0
   21.9113   13.0109   12.5065 C   0  0  0  0  0  0  0  0  0  0  0  0
   20.5961   13.2856   13.1875 N   0  0  0  0  0  0  0  0  0  0  0  0
   25.6827   14.4677    6.3881 O   0  0  0  0  0  0  0  0  0  0  0  0
  2  1  1  1  0  0  0
  2  3  1  0  0  0  0
  2  5  1  0  0  0  0
  3  4  1  0  0  0  0
  3 10  1  0  0  0  0
  5  6  1  0  0  0  0
  6  7  1  0  0  0  0
  7  8  1  0  0  0  0
  8  9  1  0  0  0  0
M  END
>  <CHROM.1>
-85.12113763,-61.03856994,179.59094569,-176.07545162,-179.28023188,23.86454754
14.21500055,9.58955751,-0.91782859,-0.24874758,2.06803568

>  <Name>
ligand

>  <RI>
0

>  <Rbt.Current_Directory>
/home/itssahil/PROJECTS/Mol_Feturizer/New_Systems/rnas/3DIZ

>  <Rbt.Executable>
rbdock ($Id: //depot/dev/client3/rdock/2013.1/src/exe/rbdock.cxx#4 $)

>  <Rbt.Library>
libRbt.so (2013.1, Build901 2013/11/27)

>  <Rbt.Parameter_File>
/export/apps/rDock/src/rDock_2013.1_src/data/scripts/dock_solv.prm

>  <Rbt.Receptor>
prm/blind_docking_40.prm

>  <SCORE>
-6.04026

>  <SCORE.INTER>
-4.60669

>  <SCORE.INTER.CONST>
1

>  <SCORE.INTER.POLAR>
0

>  <SCORE.INTER.ROT>
5

>  <SCORE.INTER.SOLV>
5.21854

>  <SCORE.INTER.VDW>
-11.744

>  <SCORE.INTER.norm>
-0.460669

>  <SCORE.INTRA>
-1.43357

>  <SCORE.INTRA.DIHEDRAL>
-2.15531

>  <SCORE.INTRA.DIHEDRAL.0>
3.67053

>  <SCORE.INTRA.POLAR>
0

>  <SCORE.INTRA.POLAR.0>
0

>  <SCORE.INTRA.REPUL>
0

>  <SCORE.INTRA.REPUL.0>
0

>  <SCORE.INTRA.SOLV>
-0.836486

>  <SCORE.INTRA.SOLV.lig_0>
-32.0553

>  <SCORE.INTRA.VDW>
0.0623278

>  <SCORE.INTRA.VDW.0>
-0.571921

>  <SCORE.INTRA.norm>
-0.143357

>  <SCORE.RESTR>
0

>  <SCORE.RESTR.CAVITY>
0

>  <SCORE.RESTR.norm>
0

>  <SCORE.SYSTEM>
0

>  <SCORE.SYSTEM.CONST>
0

>  <SCORE.SYSTEM.DIHEDRAL>
0

>  <SCORE.SYSTEM.SOLV>
0

>  <SCORE.SYSTEM.norm>
0

>  <SCORE.heavy>
10

>  <SCORE.norm>
-0.604026

>  <RMSD>
13.506

$$$$
ligand
 OpenBabel11021811473D
libRbt.so/2013.1/901 2013/11/27
 10  9  0  0  0  0  0  0  0  0999 V2000
   23.9237   14.2511   10.7097 N   0  0  0  0  0  0  0  0  0  0  0  0
   25.1391   13.6206   10.1124 C   0  0  2  0  0  0  0  0  0  0  0  0
   26.4082   14.0548   10.8336 C   0  0  0  0  0  0  0  0  0  0  0  0
   27.2952   13.2526   11.1043 O   0  0  0  0  0  0  0  0  0  0  0  0
   25.2317   13.9211    8.6143 C   0  0  0  0  0  0  0  0  0  0  0  0
   26.3552   13.1795    7.9105 C   0  0  0  0  0  0  0  0  0  0  0  0
   26.3692   13.4682    6.4145 C   0  0  0  0  0  0  0  0  0  0  0  0
   27.4920   12.7055    5.7306 C   0  0  0  0  0  0  0  0  0  0  0  0
   27.5448   12.9552    4.2462 N   0  0  0  0  0  0  0  0  0  0  0  0
   26.6135   15.2196   11.1469 O   0  0  0  0  0  0  0  0  0  0  0  0
  2  1  1  1  0  0  0
  2  3  1  0  0  0  0
  2  5  1  0  0  0  0
  3  4  1  0  0  0  0
  3 10  1  0  0  0  0
  5  6  1  0  0  0  0
  6  7  1  0  0  0  0
  7  8  1  0  0  0  0
  8  9  1  0  0  0  0
M  END
>  <CHROM.1>
137.43509634,-173.33981471,177.67991649,-179.44408346,179.82249004,26.26285106
13.67355923,8.71002089,1.80773109,-0.14070600,1.38851668

>  <Name>
ligand

>  <RI>
0

>  <Rbt.Current_Directory>
/home/itssahil/PROJECTS/Mol_Feturizer/New_Systems/rnas/3DIZ

>  <Rbt.Executable>
rbdock ($Id: //depot/dev/client3/rdock/2013.1/src/exe/rbdock.cxx#4 $)

>  <Rbt.Library>
libRbt.so (2013.1, Build901 2013/11/27)

>  <Rbt.Parameter_File>
/export/apps/rDock/src/rDock_2013.1_src/data/scripts/dock_solv.prm

>  <Rbt.Receptor>
prm/blind_docking_80.prm

>  <SCORE>
-5.05836

>  <SCORE.INTER>
-2.88064

>  <SCORE.INTER.CONST>
1

>  <SCORE.INTER.POLAR>
0

>  <SCORE.INTER.ROT>
5

>  <SCORE.INTER.SOLV>
6.04056

>  <SCORE.INTER.VDW>
-10.8673

>  <SCORE.INTER.norm>
-0.288064

>  <SCORE.INTRA>
-2.17772

>  <SCORE.INTRA.DIHEDRAL>
-2.03151

>  <SCORE.INTRA.DIHEDRAL.0>
3.67053

>  <SCORE.INTRA.POLAR>
0

>  <SCORE.INTRA.POLAR.0>
0

>  <SCORE.INTRA.REPUL>
0

>  <SCORE.INTRA.REPUL.0>
0

>  <SCORE.INTRA.SOLV>
-1.72498

>  <SCORE.INTRA.SOLV.lig_0>
-32.0553

>  <SCORE.INTRA.VDW>
-0.299471

>  <SCORE.INTRA.VDW.0>
-0.571921

>  <SCORE.INTRA.norm>
-0.217772

>  <SCORE.RESTR>
0

>  <SCORE.RESTR.CAVITY>
0

>  <SCORE.RESTR.norm>
0

>  <SCORE.SYSTEM>
0

>  <SCORE.SYSTEM.CONST>
0

>  <SCORE.SYSTEM.DIHEDRAL>
0

>  <SCORE.SYSTEM.SOLV>
0

>  <SCORE.SYSTEM.norm>
0

>  <SCORE.heavy>
10

>  <SCORE.norm>
-0.505836

>  <RMSD>
13.511

$$$$
ligand
 OpenBabel11021811473D
libRbt.so/2013.1/901 2013/11/27
 10  9  0  0  0  0  0  0  0  0999 V2000
   23.9475   14.1229   10.7713 N   0  0  0  0  0  0  0  0  0  0  0  0
   25.1270   13.5742   10.0371 C   0  0  2  0  0  0  0  0  0  0  0  0
   26.4369   14.1087   10.6007 C   0  0  0  0  0  0  0  0  0  0  0  0
   27.2346   13.3723   11.1707 O   0  0  0  0  0  0  0  0  0  0  0  0
   25.0201   13.8608    8.5372 C   0  0  0  0  0  0  0  0  0  0  0  0
   26.1222   13.2187    7.7121 C   0  0  0  0  0  0  0  0  0  0  0  0
   25.9228   13.4613    6.2212 C   0  0  0  0  0  0  0  0  0  0  0  0
   27.0105   12.7714    5.4144 C   0  0  0  0  0  0  0  0  0  0  0  0
   28.3739   13.3685    5.6459 N   0  0  0  0  0  0  0  0  0  0  0  0
   26.7652   15.2818   10.4858 O   0  0  0  0  0  0  0  0  0  0  0  0
  2  1  1  1  0  0  0
  2  3  1  0  0  0  0
  2  5  1  0  0  0  0
  3  4  1  0  0  0  0
  3 10  1  0  0  0  0
  5  6  1  0  0  0  0
  6  7  1  0  0  0  0
  7  8  1  0  0  0  0
  8  9  1  0  0  0  0
M  END
>  <CHROM.1>
113.30355074,-174.63063387,176.47648653,-178.11134516,-66.63316420,26.22275166
13.72655561,8.68283419,1.83676413,0.03013048,1.36726370

>  <Name>
ligand

>  <RI>
0

>  <Rbt.Current_Directory>
/home/itssahil/PROJECTS/Mol_Feturizer/New_Systems/rnas/3DIZ

>  <Rbt.Executable>
rbdock ($Id: //depot/dev/client3/rdock/2013.1/src/exe/rbdock.cxx#4 $)

>  <Rbt.Library>
libRbt.so (2013.1, Build901 2013/11/27)

>  <Rbt.Parameter_File>
/export/apps/rDock/src/rDock_2013.1_src/data/scripts/dock_solv.prm

>  <Rbt.Receptor>
prm/blind_docking_80.prm

>  <SCORE>
-4.73822

>  <SCORE.INTER>
-3.2899

>  <SCORE.INTER.CONST>
1

>  <SCORE.INTER.POLAR>
0

>  <SCORE.INTER.ROT>
5

>  <SCORE.INTER.SOLV>
6.35571

>  <SCORE.INTER.VDW>
-11.2452

>  <SCORE.INTER.norm>
-0.32899

>  <SCORE.INTRA>
-1.44832

>  <SCORE.INTRA.DIHEDRAL>
-1.80999

>  <SCORE.INTRA.DIHEDRAL.0>
3.67053

>  <SCORE.INTRA.POLAR>
0

>  <SCORE.INTRA.POLAR.0>
0

>  <SCORE.INTRA.REPUL>
0

>  <SCORE.INTRA.REPUL.0>
0

>  <SCORE.INTRA.SOLV>
-0.861764

>  <SCORE.INTRA.SOLV.lig_0>
-32.0553

>  <SCORE.INTRA.VDW>
-0.11244

>  <SCORE.INTRA.VDW.0>
-0.571921

>  <SCORE.INTRA.norm>
-0.144832

>  <SCORE.RESTR>
0

>  <SCORE.RESTR.CAVITY>
0

>  <SCORE.RESTR.norm>
0

>  <SCORE.SYSTEM>
0

>  <SCORE.SYSTEM.CONST>
0

>  <SCORE.SYSTEM.DIHEDRAL>
0

>  <SCORE.SYSTEM.SOLV>
0

>  <SCORE.SYSTEM.norm>
0

>  <SCORE.heavy>
10

>  <SCORE.norm>
-0.473822

>  <RMSD>
13.534

$$$$
ligand
 OpenBabel11021811473D
libRbt.so/2013.1/901 2013/11/27
 10  9  0  0  0  0  0  0  0  0999 V2000
   26.5495   14.3869    9.1306 N   0  0  0  0  0  0  0  0  0  0  0  0
   25.8766   13.2624    8.4135 C   0  0  2  0  0  0  0  0  0  0  0  0
   26.4840   13.0321    7.0361 C   0  0  0  0  0  0  0  0  0  0  0  0
   26.8354   11.9153    6.6717 O   0  0  0  0  0  0  0  0  0  0  0  0
   24.3682   13.5022    8.3125 C   0  0  0  0  0  0  0  0  0  0  0  0
   23.6046   13.1309    9.5722 C   0  0  0  0  0  0  0  0  0  0  0  0
   23.9217   14.0787   10.7222 C   0  0  0  0  0  0  0  0  0  0  0  0
   23.1839   13.6593   11.9831 C   0  0  0  0  0  0  0  0  0  0  0  0
   21.6869   13.7207   11.8288 N   0  0  0  0  0  0  0  0  0  0  0  0
   26.6209   13.9376    6.2247 O   0  0  0  0  0  0  0  0  0  0  0  0
  2  1  1  6  0  0  0
  2  3  1  0  0  0  0
  2  5  1  0  0  0  0
  3  4  1  0  0  0  0
  3 10  1  0  0  0  0
  5  6  1  0  0  0  0
  6  7  1  0  0  0  0
  7  8  1  0  0  0  0
  8  9  1  0  0  0  0
M  END
>  <CHROM.1>
129.73503752,-81.14669208,68.91975127,-178.04660903,-62.73434925,24.93481981
13.45503947,8.95009604,-0.75787037,0.48454470,0.97694450

>  <Name>
ligand

>  <RI>
0

>  <Rbt.Current_Directory>
/home/itssahil/PROJECTS/Mol_Feturizer/New_Systems/rnas/3DIZ

>  <Rbt.Executable>
rbdock ($Id: //depot/dev/client3/rdock/2013.1/src/exe/rbdock.cxx#4 $)

>  <Rbt.Library>
libRbt.so (2013.1, Build901 2013/11/27)

>  <Rbt.Parameter_File>
/export/apps/rDock/src/rDock_2013.1_src/data/scripts/dock_solv.prm

>  <Rbt.Receptor>
prm/blind_docking_60.prm

>  <SCORE>
-3.06805

>  <SCORE.INTER>
-3.49153

>  <SCORE.INTER.CONST>
1

>  <SCORE.INTER.POLAR>
0

>  <SCORE.INTER.ROT>
5

>  <SCORE.INTER.SOLV>
6.51709

>  <SCORE.INTER.VDW>
-11.4334

>  <SCORE.INTER.norm>
-0.349153

>  <SCORE.INTRA>
0.423471

>  <SCORE.INTRA.DIHEDRAL>
-0.192047

>  <SCORE.INTRA.DIHEDRAL.0>
3.67053

>  <SCORE.INTRA.POLAR>
0

>  <SCORE.INTRA.POLAR.0>
0

>  <SCORE.INTRA.REPUL>
0

>  <SCORE.INTRA.REPUL.0>
0

>  <SCORE.INTRA.SOLV>
1.10811

>  <SCORE.INTRA.SOLV.lig_0>
-32.0553

>  <SCORE.INTRA.VDW>
-0.0345593

>  <SCORE.INTRA.VDW.0>
-0.571921

>  <SCORE.INTRA.norm>
0.0423471

>  <SCORE.RESTR>
0

>  <SCORE.RESTR.CAVITY>
0

>  <SCORE.RESTR.norm>
0

>  <SCORE.SYSTEM>
0

>  <SCORE.SYSTEM.CONST>
0

>  <SCORE.SYSTEM.DIHEDRAL>
0

>  <SCORE.SYSTEM.SOLV>
0

>  <SCORE.SYSTEM.norm>
0

>  <SCORE.heavy>
10

>  <SCORE.norm>
-0.306805

>  <RMSD>
13.716

$$$$
ligand
 OpenBabel11021811473D
libRbt.so/2013.1/901 2013/11/27
 10  9  0  0  0  0  0  0  0  0999 V2000
   26.4646   14.5419    9.2561 N   0  0  0  0  0  0  0  0  0  0  0  0
   25.6307   13.4827    8.6125 C   0  0  2  0  0  0  0  0  0  0  0  0
   25.8325   13.4496    7.1035 C   0  0  0  0  0  0  0  0  0  0  0  0
   26.0785   12.4025    6.5148 O   0  0  0  0  0  0  0  0  0  0  0  0
   24.1513   13.6627    8.9623 C   0  0  0  0  0  0  0  0  0  0  0  0
   23.8411   13.4511   10.4342 C   0  0  0  0  0  0  0  0  0  0  0  0
   22.3677   13.6914   10.7389 C   0  0  0  0  0  0  0  0  0  0  0  0
   22.0655   13.3948   12.1986 C   0  0  0  0  0  0  0  0  0  0  0  0
   20.6159   13.6081   12.5475 N   0  0  0  0  0  0  0  0  0  0  0  0
   25.7299   14.4526    6.4103 O   0  0  0  0  0  0  0  0  0  0  0  0
  2  1  1  6  0  0  0
  2  3  1  0  0  0  0
  2  5  1  0  0  0  0
  3  4  1  0  0  0  0
  3 10  1  0  0  0  0
  5  6  1  0  0  0  0
  6  7  1  0  0  0  0
  7  8  1  0  0  0  0
  8  9  1  0  0  0  0
M  END
>  <CHROM.1>
129.84442101,-65.93157315,177.90469110,176.66507777,-179.57422951,24.29159525
13.61169021,9.23451553,-0.77674585,0.37314687,1.21789044

>  <Name>
ligand

>  <RI>
0

>  <Rbt.Current_Directory>
/home/itssahil/PROJECTS/Mol_Feturizer/New_Systems/rnas/3DIZ

>  <Rbt.Executable>
rbdock ($Id: //depot/dev/client3/rdock/2013.1/src/exe/rbdock.cxx#4 $)

>  <Rbt.Library>
libRbt.so (2013.1, Build901 2013/11/27)

>  <Rbt.Parameter_File>
/export/apps/rDock/src/rDock_2013.1_src/data/scripts/dock_solv.prm

>  <Rbt.Receptor>
prm/blind_docking_40.prm

>  <SCORE>
-5.20772

>  <SCORE.INTER>
-3.45919

>  <SCORE.INTER.CONST>
1

>  <SCORE.INTER.POLAR>
0

>  <SCORE.INTER.ROT>
5

>  <SCORE.INTER.SOLV>
5.18837

>  <SCORE.INTER.VDW>
-10.9689

>  <SCORE.INTER.norm>
-0.345919

>  <SCORE.INTRA>
-1.74853

>  <SCORE.INTRA.DIHEDRAL>
-1.97766

>  <SCORE.INTRA.DIHEDRAL.0>
3.67053

>  <SCORE.INTRA.POLAR>
0

>  <SCORE.INTRA.POLAR.0>
0

>  <SCORE.INTRA.REPUL>
0

>  <SCORE.INTRA.REPUL.0>
0

>  <SCORE.INTRA.SOLV>
-0.895814

>  <SCORE.INTRA.SOLV.lig_0>
-32.0553

>  <SCORE.INTRA.VDW>
-0.311797

>  <SCORE.INTRA.VDW.0>
-0.571921

>  <SCORE.INTRA.norm>
-0.174853

>  <SCORE.RESTR>
0

>  <SCORE.RESTR.CAVITY>
0

>  <SCORE.RESTR.norm>
0

>  <SCORE.SYSTEM>
0

>  <SCORE.SYSTEM.CONST>
0

>  <SCORE.SYSTEM.DIHEDRAL>
0

>  <SCORE.SYSTEM.SOLV>
0

>  <SCORE.SYSTEM.norm>
0

>  <SCORE.heavy>
10

>  <SCORE.norm>
-0.520772

>  <RMSD>
13.718

$$$$
ligand
 OpenBabel11021811473D
libRbt.so/2013.1/901 2013/11/27
 10  9  0  0  0  0  0  0  0  0999 V2000
   26.5539   14.4974    9.1971 N   0  0  0  0  0  0  0  0  0  0  0  0
   25.7181   13.4300    8.5698 C   0  0  2  0  0  0  0  0  0  0  0  0
   25.9287   13.3657    7.0629 C   0  0  0  0  0  0  0  0  0  0  0  0
   26.2139   12.3131    6.5023 O   0  0  0  0  0  0  0  0  0  0  0  0
   24.2377   13.6247    8.9070 C   0  0  0  0  0  0  0  0  0  0  0  0
   23.9146   13.4263   10.3780 C   0  0  0  0  0  0  0  0  0  0  0  0
   22.4333   13.6410   10.6626 C   0  0  0  0  0  0  0  0  0  0  0  0
   22.1241   13.3791   12.1274 C   0  0  0  0  0  0  0  0  0  0  0  0
   20.6603   13.5298   12.4490 N   0  0  0  0  0  0  0  0  0  0  0  0
   25.7949   14.3466    6.3439 O   0  0  0  0  0  0  0  0  0  0  0  0
  2  1  1  6  0  0  0
  2  3  1  0  0  0  0
  2  5  1  0  0  0  0
  3  4  1  0  0  0  0
  3 10  1  0  0  0  0
  5  6  1  0  0  0  0
  6  7  1  0  0  0  0
  7  8  1  0  0  0  0
  8  9  1  0  0  0  0
M  END
>  <CHROM.1>
127.52775554,-66.69441606,179.57596054,177.57525522,-177.90875843,24.37205039
13.55254987,9.17681437,-0.76923126,0.36440118,1.21280480

>  <Name>
ligand

>  <RI>
0

>  <Rbt.Current_Directory>
/home/itssahil/PROJECTS/Mol_Feturizer/New_Systems/rnas/3DIZ

>  <Rbt.Executable>
rbdock ($Id: //depot/dev/client3/rdock/2013.1/src/exe/rbdock.cxx#4 $)

>  <Rbt.Library>
libRbt.so (2013.1, Build901 2013/11/27)

>  <Rbt.Parameter_File>
/export/apps/rDock/src/rDock_2013.1_src/data/scripts/dock_solv.prm

>  <Rbt.Receptor>
prm/blind_docking_40.prm

>  <SCORE>
-5.16985

>  <SCORE.INTER>
-3.42484

>  <SCORE.INTER.CONST>
1

>  <SCORE.INTER.POLAR>
0

>  <SCORE.INTER.ROT>
5

>  <SCORE.INTER.SOLV>
5.31668

>  <SCORE.INTER.VDW>
-10.9888

>  <SCORE.INTER.norm>
-0.342484

>  <SCORE.INTRA>
-1.74501

>  <SCORE.INTRA.DIHEDRAL>
-1.95547

>  <SCORE.INTRA.DIHEDRAL.0>
3.67053

>  <SCORE.INTRA.POLAR>
0

>  <SCORE.INTRA.POLAR.0>
0

>  <SCORE.INTRA.REPUL>
0

>  <SCORE.INTRA.REPUL.0>
0

>  <SCORE.INTRA.SOLV>
-0.915545

>  <SCORE.INTRA.SOLV.lig_0>
-32.0553

>  <SCORE.INTRA.VDW>
-0.309499

>  <SCORE.INTRA.VDW.0>
-0.571921

>  <SCORE.INTRA.norm>
-0.174501

>  <SCORE.RESTR>
0

>  <SCORE.RESTR.CAVITY>
0

>  <SCORE.RESTR.norm>
0

>  <SCORE.SYSTEM>
0

>  <SCORE.SYSTEM.CONST>
0

>  <SCORE.SYSTEM.DIHEDRAL>
0

>  <SCORE.SYSTEM.SOLV>
0

>  <SCORE.SYSTEM.norm>
0

>  <SCORE.heavy>
10

>  <SCORE.norm>
-0.516985

>  <RMSD>
13.738

$$$$
ligand
 OpenBabel11021811473D
libRbt.so/2013.1/901 2013/11/27
 10  9  0  0  0  0  0  0  0  0999 V2000
   25.9576   14.0990   10.2872 N   0  0  0  0  0  0  0  0  0  0  0  0
   24.5187   14.3010    9.9408 C   0  0  2  0  0  0  0  0  0  0  0  0
   23.6229   14.1669   11.1650 C   0  0  0  0  0  0  0  0  0  0  0  0
   24.0187   13.6214   12.1894 O   0  0  0  0  0  0  0  0  0  0  0  0
   24.0811   13.3369    8.8352 C   0  0  0  0  0  0  0  0  0  0  0  0
   24.6729   13.6592    7.4738 C   0  0  0  0  0  0  0  0  0  0  0  0
   26.1464   13.2796    7.3967 C   0  0  0  0  0  0  0  0  0  0  0  0
   26.7009   13.5574    6.0091 C   0  0  0  0  0  0  0  0  0  0  0  0
   28.1702   13.2454    5.8966 N   0  0  0  0  0  0  0  0  0  0  0  0
   22.4866   14.6199   11.1937 O   0  0  0  0  0  0  0  0  0  0  0  0
  2  1  1  1  0  0  0
  2  3  1  0  0  0  0
  2  5  1  0  0  0  0
  3  4  1  0  0  0  0
  3 10  1  0  0  0  0
  5  6  1  0  0  0  0
  6  7  1  0  0  0  0
  7  8  1  0  0  0  0
  8  9  1  0  0  0  0
M  END
>  <CHROM.1>
-17.55828467,-70.69089409,74.20681648,177.64483517,177.88742203,25.01104458
13.78893285,9.07637088,-2.17614348,0.10618842,-1.64731544

>  <Name>
ligand

>  <RI>
0

>  <Rbt.Current_Directory>
/home/itssahil/PROJECTS/Mol_Feturizer/New_Systems/rnas/3DIZ

>  <Rbt.Executable>
rbdock ($Id: //depot/dev/client3/rdock/2013.1/src/exe/rbdock.cxx#4 $)

>  <Rbt.Library>
libRbt.so (2013.1, Build901 2013/11/27)

>  <Rbt.Parameter_File>
/export/apps/rDock/src/rDock_2013.1_src/data/scripts/dock_solv.prm

>  <Rbt.Receptor>
prm/blind_docking_80.prm

>  <SCORE>
-2.77276

>  <SCORE.INTER>
-2.53498

>  <SCORE.INTER.CONST>
1

>  <SCORE.INTER.POLAR>
0

>  <SCORE.INTER.ROT>
5

>  <SCORE.INTER.SOLV>
6.63029

>  <SCORE.INTER.VDW>
-10.8334

>  <SCORE.INTER.norm>
-0.253498

>  <SCORE.INTRA>
-0.237784

>  <SCORE.INTRA.DIHEDRAL>
-0.805834

>  <SCORE.INTRA.DIHEDRAL.0>
3.67053

>  <SCORE.INTRA.POLAR>
0

>  <SCORE.INTRA.POLAR.0>
0

>  <SCORE.INTRA.REPUL>
0

>  <SCORE.INTRA.REPUL.0>
0

>  <SCORE.INTRA.SOLV>
0.403043

>  <SCORE.INTRA.SOLV.lig_0>
-32.0553

>  <SCORE.INTRA.VDW>
-0.036388

>  <SCORE.INTRA.VDW.0>
-0.571921

>  <SCORE.INTRA.norm>
-0.0237784

>  <SCORE.RESTR>
0

>  <SCORE.RESTR.CAVITY>
0

>  <SCORE.RESTR.norm>
0

>  <SCORE.SYSTEM>
0

>  <SCORE.SYSTEM.CONST>
0

>  <SCORE.SYSTEM.DIHEDRAL>
0

>  <SCORE.SYSTEM.SOLV>
0

>  <SCORE.SYSTEM.norm>
0

>  <SCORE.heavy>
10

>  <SCORE.norm>
-0.277276

>  <RMSD>
13.756

$$$$
ligand
 OpenBabel11021811473D
libRbt.so/2013.1/901 2013/11/27
 10  9  0  0  0  0  0  0  0  0999 V2000
   25.8983   15.2621    9.0627 N   0  0  0  0  0  0  0  0  0  0  0  0
   25.5648   13.8350    8.7735 C   0  0  2  0  0  0  0  0  0  0  0  0
   25.7280   13.5093    7.2949 C   0  0  0  0  0  0  0  0  0  0  0  0
   25.9409   12.3637    6.9129 O   0  0  0  0  0  0  0  0  0  0  0  0
   24.1524   13.4943    9.2555 C   0  0  0  0  0  0  0  0  0  0  0  0
   23.9760   13.6082   10.7600 C   0  0  0  0  0  0  0  0  0  0  0  0
   22.5561   13.2583   11.1880 C   0  0  0  0  0  0  0  0  0  0  0  0
   21.5841   14.3484   10.7673 C   0  0  0  0  0  0  0  0  0  0  0  0
   20.1795   14.0922   11.2471 N   0  0  0  0  0  0  0  0  0  0  0  0
   25.6255   14.3631    6.4245 O   0  0  0  0  0  0  0  0  0  0  0  0
  2  1  1  6  0  0  0
  2  3  1  0  0  0  0
  2  5  1  0  0  0  0
  3  4  1  0  0  0  0
  3 10  1  0  0  0  0
  5  6  1  0  0  0  0
  6  7  1  0  0  0  0
  7  8  1  0  0  0  0
  8  9  1  0  0  0  0
M  END
>  <CHROM.1>
155.50741193,-63.51143557,-179.95074039,-71.44377252,-176.23054614,24.13408500
13.80482461,9.12806392,-0.63117895,0.38456523,1.02830936

>  <Name>
ligand

>  <RI>
0

>  <Rbt.Current_Directory>
/home/itssahil/PROJECTS/Mol_Feturizer/New_Systems/rnas/3DIZ

>  <Rbt.Executable>
rbdock ($Id: //depot/dev/client3/rdock/2013.1/src/exe/rbdock.cxx#4 $)

>  <Rbt.Library>
libRbt.so (2013.1, Build901 2013/11/27)

>  <Rbt.Parameter_File>
/export/apps/rDock/src/rDock_2013.1_src/data/scripts/dock_solv.prm

>  <Rbt.Receptor>
prm/blind_docking_60.prm

>  <SCORE>
-3.45648

>  <SCORE.INTER>
-2.609

>  <SCORE.INTER.CONST>
1

>  <SCORE.INTER.POLAR>
0

>  <SCORE.INTER.ROT>
5

>  <SCORE.INTER.SOLV>
8.05233

>  <SCORE.INTER.VDW>
-11.3568

>  <SCORE.INTER.norm>
-0.2609

>  <SCORE.INTRA>
-0.847479

>  <SCORE.INTRA.DIHEDRAL>
-1.58546

>  <SCORE.INTRA.DIHEDRAL.0>
3.67053

>  <SCORE.INTRA.POLAR>
0

>  <SCORE.INTRA.POLAR.0>
0

>  <SCORE.INTRA.REPUL>
0

>  <SCORE.INTRA.REPUL.0>
0

>  <SCORE.INTRA.SOLV>
-0.671117

>  <SCORE.INTRA.SOLV.lig_0>
-32.0553

>  <SCORE.INTRA.VDW>
0.28081

>  <SCORE.INTRA.VDW.0>
-0.571921

>  <SCORE.INTRA.norm>
-0.0847479

>  <SCORE.RESTR>
0

>  <SCORE.RESTR.CAVITY>
0

>  <SCORE.RESTR.norm>
0

>  <SCORE.SYSTEM>
0

>  <SCORE.SYSTEM.CONST>
0

>  <SCORE.SYSTEM.DIHEDRAL>
0

>  <SCORE.SYSTEM.SOLV>
0

>  <SCORE.SYSTEM.norm>
0

>  <SCORE.heavy>
10

>  <SCORE.norm>
-0.345648

>  <RMSD>
13.783

$$$$
ligand
 OpenBabel11021811473D
libRbt.so/2013.1/901 2013/11/27
 10  9  0  0  0  0  0  0  0  0999 V2000
   21.5169   14.6837   10.6866 N   0  0  0  0  0  0  0  0  0  0  0  0
   22.5841   13.7228   10.2753 C   0  0  2  0  0  0  0  0  0  0  0  0
   23.3652   13.2046   11.4755 C   0  0  0  0  0  0  0  0  0  0  0  0
   24.2213   13.8896   12.0245 O   0  0  0  0  0  0  0  0  0  0  0  0
   23.5223   14.3549    9.2441 C   0  0  0  0  0  0  0  0  0  0  0  0
   24.5451   13.3872    8.6741 C   0  0  0  0  0  0  0  0  0  0  0  0
   25.4353   14.0572    7.6348 C   0  0  0  0  0  0  0  0  0  0  0  0
   26.4454   13.0689    7.0753 C   0  0  0  0  0  0  0  0  0  0  0  0
   27.3562   13.6873    6.0471 N   0  0  0  0  0  0  0  0  0  0  0  0
   23.1558   12.1017   11.9623 O   0  0  0  0  0  0  0  0  0  0  0  0
  2  1  1  1  0  0  0
  2  3  1  0  0  0  0
  2  5  1  0  0  0  0
  3  4  1  0  0  0  0
  3 10  1  0  0  0  0
  5  6  1  0  0  0  0
  6  7  1  0  0  0  0
  7  8  1  0  0  0  0
  8  9  1  0  0  0  0
M  END
>  <CHROM.1>
-77.20923614,-173.99363654,178.89704987,-179.76034984,-179.66631848,24.22376128
13.60340701,9.54616162,2.34636542,-0.48357290,2.01599282

>  <Name>
ligand

>  <RI>
0

>  <Rbt.Current_Directory>
/home/itssahil/PROJECTS/Mol_Feturizer/New_Systems/rnas/3DIZ

>  <Rbt.Executable>
rbdock ($Id: //depot/dev/client3/rdock/2013.1/src/exe/rbdock.cxx#4 $)

>  <Rbt.Library>
libRbt.so (2013.1, Build901 2013/11/27)

>  <Rbt.Parameter_File>
/export/apps/rDock/src/rDock_2013.1_src/data/scripts/dock_solv.prm

>  <Rbt.Receptor>
prm/blind_docking_60.prm

>  <SCORE>
-4.35408

>  <SCORE.INTER>
-2.39611

>  <SCORE.INTER.CONST>
1

>  <SCORE.INTER.POLAR>
0

>  <SCORE.INTER.ROT>
5

>  <SCORE.INTER.SOLV>
9.66845

>  <SCORE.INTER.VDW>
-11.7536

>  <SCORE.INTER.norm>
-0.239611

>  <SCORE.INTRA>
-1.95797

>  <SCORE.INTRA.DIHEDRAL>
-2.08609

>  <SCORE.INTRA.DIHEDRAL.0>
3.67053

>  <SCORE.INTRA.POLAR>
0

>  <SCORE.INTRA.POLAR.0>
0

>  <SCORE.INTRA.REPUL>
0

>  <SCORE.INTRA.REPUL.0>
0

>  <SCORE.INTRA.SOLV>
-1.72293

>  <SCORE.INTRA.SOLV.lig_0>
-32.0553

>  <SCORE.INTRA.VDW>
-0.0534584

>  <SCORE.INTRA.VDW.0>
-0.571921

>  <SCORE.INTRA.norm>
-0.195797

>  <SCORE.RESTR>
0

>  <SCORE.RESTR.CAVITY>
0

>  <SCORE.RESTR.norm>
0

>  <SCORE.SYSTEM>
0

>  <SCORE.SYSTEM.CONST>
0

>  <SCORE.SYSTEM.DIHEDRAL>
0

>  <SCORE.SYSTEM.SOLV>
0

>  <SCORE.SYSTEM.norm>
0

>  <SCORE.heavy>
10

>  <SCORE.norm>
-0.435408

>  <RMSD>
13.818

$$$$
ligand
 OpenBabel11021811473D
libRbt.so/2013.1/901 2013/11/27
 10  9  0  0  0  0  0  0  0  0999 V2000
   26.1030   13.8319   10.2140 N   0  0  0  0  0  0  0  0  0  0  0  0
   24.7457   14.2815    9.7814 C   0  0  2  0  0  0  0  0  0  0  0  0
   23.7457   14.2305   10.9287 C   0  0  0  0  0  0  0  0  0  0  0  0
   22.6182   14.6986   10.8145 O   0  0  0  0  0  0  0  0  0  0  0  0
   24.2512   13.4597    8.5884 C   0  0  0  0  0  0  0  0  0  0  0  0
   24.9971   13.7473    7.2967 C   0  0  0  0  0  0  0  0  0  0  0  0
   26.4118   13.1824    7.3263 C   0  0  0  0  0  0  0  0  0  0  0  0
   27.1312   13.4662    6.0179 C   0  0  0  0  0  0  0  0  0  0  0  0
   28.5408   12.9356    6.0020 N   0  0  0  0  0  0  0  0  0  0  0  0
   24.0082   13.6981   11.9986 O   0  0  0  0  0  0  0  0  0  0  0  0
  2  1  1  1  0  0  0
  2  3  1  0  0  0  0
  2  5  1  0  0  0  0
  3  4  1  0  0  0  0
  3 10  1  0  0  0  0
  5  6  1  0  0  0  0
  6  7  1  0  0  0  0
  7  8  1  0  0  0  0
  8  9  1  0  0  0  0
M  END
>  <CHROM.1>
171.80998372,-70.39731073,71.87776805,179.24758295,179.54569993,25.22560348
13.75514454,8.93189063,-2.24979345,0.22168427,-1.59674384

>  <Name>
ligand

>  <RI>
0

>  <Rbt.Current_Directory>
/home/itssahil/PROJECTS/Mol_Feturizer/New_Systems/rnas/3DIZ

>  <Rbt.Executable>
rbdock ($Id: //depot/dev/client3/rdock/2013.1/src/exe/rbdock.cxx#4 $)

>  <Rbt.Library>
libRbt.so (2013.1, Build901 2013/11/27)

>  <Rbt.Parameter_File>
/export/apps/rDock/src/rDock_2013.1_src/data/scripts/dock_solv.prm

>  <Rbt.Receptor>
prm/blind_docking_80.prm

>  <SCORE>
-2.98578

>  <SCORE.INTER>
-2.73426

>  <SCORE.INTER.CONST>
1

>  <SCORE.INTER.POLAR>
0

>  <SCORE.INTER.ROT>
5

>  <SCORE.INTER.SOLV>
7.10602

>  <SCORE.INTER.VDW>
-11.1248

>  <SCORE.INTER.norm>
-0.273426

>  <SCORE.INTRA>
-0.251522

>  <SCORE.INTRA.DIHEDRAL>
-1.18376

>  <SCORE.INTRA.DIHEDRAL.0>
3.67053

>  <SCORE.INTRA.POLAR>
0

>  <SCORE.INTRA.POLAR.0>
0

>  <SCORE.INTRA.REPUL>
0

>  <SCORE.INTRA.REPUL.0>
0

>  <SCORE.INTRA.SOLV>
0.452844

>  <SCORE.INTRA.SOLV.lig_0>
-32.0553

>  <SCORE.INTRA.VDW>
0.113935

>  <SCORE.INTRA.VDW.0>
-0.571921

>  <SCORE.INTRA.norm>
-0.0251522

>  <SCORE.RESTR>
0

>  <SCORE.RESTR.CAVITY>
0

>  <SCORE.RESTR.norm>
0

>  <SCORE.SYSTEM>
0

>  <SCORE.SYSTEM.CONST>
0

>  <SCORE.SYSTEM.DIHEDRAL>
0

>  <SCORE.SYSTEM.SOLV>
0

>  <SCORE.SYSTEM.norm>
0

>  <SCORE.heavy>
10

>  <SCORE.norm>
-0.298578

>  <RMSD>
13.819

$$$$
ligand
 OpenBabel11021811473D
libRbt.so/2013.1/901 2013/11/27
 10  9  0  0  0  0  0  0  0  0999 V2000
   21.7665   14.6605    9.8892 N   0  0  0  0  0  0  0  0  0  0  0  0
   23.1079   14.0403    9.6712 C   0  0  2  0  0  0  0  0  0  0  0  0
   23.7565   13.6296   10.9865 C   0  0  0  0  0  0  0  0  0  0  0  0
   23.4976   12.5555   11.5182 O   0  0  0  0  0  0  0  0  0  0  0  0
   24.0229   14.9786    8.8802 C   0  0  0  0  0  0  0  0  0  0  0  0
   25.3299   14.3366    8.4476 C   0  0  0  0  0  0  0  0  0  0  0  0
   25.1069   13.2680    7.3847 C   0  0  0  0  0  0  0  0  0  0  0  0
   26.4255   12.6297    6.9797 C   0  0  0  0  0  0  0  0  0  0  0  0
   27.3514   13.5960    6.2884 N   0  0  0  0  0  0  0  0  0  0  0  0
   24.5814   14.3330   11.5538 O   0  0  0  0  0  0  0  0  0  0  0  0
  2  1  1  1  0  0  0
  2  3  1  0  0  0  0
  2  5  1  0  0  0  0
  3  4  1  0  0  0  0
  3 10  1  0  0  0  0
  5  6  1  0  0  0  0
  6  7  1  0  0  0  0
  7  8  1  0  0  0  0
  8  9  1  0  0  0  0
M  END
>  <CHROM.1>
84.13996492,-171.58093806,68.95942179,-179.35740791,-65.61278046,24.50236154
13.79343962,9.19693151,2.35660387,-0.48906349,1.88532971

>  <Name>
ligand

>  <RI>
0

>  <Rbt.Current_Directory>
/home/itssahil/PROJECTS/Mol_Feturizer/New_Systems/rnas/3DIZ

>  <Rbt.Executable>
rbdock ($Id: //depot/dev/client3/rdock/2013.1/src/exe/rbdock.cxx#4 $)

>  <Rbt.Library>
libRbt.so (2013.1, Build901 2013/11/27)

>  <Rbt.Parameter_File>
/export/apps/rDock/src/rDock_2013.1_src/data/scripts/dock_solv.prm

>  <Rbt.Receptor>
prm/blind_docking_80.prm

>  <SCORE>
-3.58484

>  <SCORE.INTER>
-3.04106

>  <SCORE.INTER.CONST>
1

>  <SCORE.INTER.POLAR>
0

>  <SCORE.INTER.ROT>
5

>  <SCORE.INTER.SOLV>
9.85562

>  <SCORE.INTER.VDW>
-12.2459

>  <SCORE.INTER.norm>
-0.304106

>  <SCORE.INTRA>
-0.543774

>  <SCORE.INTRA.DIHEDRAL>
-1.40417

>  <SCORE.INTRA.DIHEDRAL.0>
3.67053

>  <SCORE.INTRA.POLAR>
0

>  <SCORE.INTRA.POLAR.0>
0

>  <SCORE.INTRA.REPUL>
0

>  <SCORE.INTRA.REPUL.0>
0

>  <SCORE.INTRA.SOLV>
-0.583426

>  <SCORE.INTRA.SOLV.lig_0>
-32.0553

>  <SCORE.INTRA.VDW>
0.450025

>  <SCORE.INTRA.VDW.0>
-0.571921

>  <SCORE.INTRA.norm>
-0.0543774

>  <SCORE.RESTR>
0

>  <SCORE.RESTR.CAVITY>
0

>  <SCORE.RESTR.norm>
0

>  <SCORE.SYSTEM>
0

>  <SCORE.SYSTEM.CONST>
0

>  <SCORE.SYSTEM.DIHEDRAL>
0

>  <SCORE.SYSTEM.SOLV>
0

>  <SCORE.SYSTEM.norm>
0

>  <SCORE.heavy>
10

>  <SCORE.norm>
-0.358484

>  <RMSD>
13.868

$$$$
ligand
 OpenBabel11021811473D
libRbt.so/2013.1/901 2013/11/27
 10  9  0  0  0  0  0  0  0  0999 V2000
   26.9176   14.3709    8.8975 N   0  0  0  0  0  0  0  0  0  0  0  0
   26.0596   13.3492    8.2255 C   0  0  2  0  0  0  0  0  0  0  0  0
   26.7971   12.6597    7.0854 C   0  0  0  0  0  0  0  0  0  0  0  0
   27.1685   13.2820    6.0963 O   0  0  0  0  0  0  0  0  0  0  0  0
   24.7510   13.9719    7.7326 C   0  0  0  0  0  0  0  0  0  0  0  0
   23.9093   14.5821    8.8402 C   0  0  0  0  0  0  0  0  0  0  0  0
   23.4152   13.5243    9.8191 C   0  0  0  0  0  0  0  0  0  0  0  0
   22.5560   14.1547   10.9029 C   0  0  0  0  0  0  0  0  0  0  0  0
   22.0149   13.1426   11.8784 N   0  0  0  0  0  0  0  0  0  0  0  0
   27.0773   11.4691    7.1164 O   0  0  0  0  0  0  0  0  0  0  0  0
  2  1  1  6  0  0  0
  2  3  1  0  0  0  0
  2  5  1  0  0  0  0
  3  4  1  0  0  0  0
  3 10  1  0  0  0  0
  5  6  1  0  0  0  0
  6  7  1  0  0  0  0
  7  8  1  0  0  0  0
  8  9  1  0  0  0  0
M  END
>  <CHROM.1>
-63.82824302,-59.92742114,-64.92101707,-178.99675876,178.60375800,25.09248933
13.43251855,8.62711523,-0.03070208,0.74533352,-0.18970383

>  <Name>
ligand

>  <RI>
0

>  <Rbt.Current_Directory>
/home/itssahil/PROJECTS/Mol_Feturizer/New_Systems/rnas/3DIZ

>  <Rbt.Executable>
rbdock ($Id: //depot/dev/client3/rdock/2013.1/src/exe/rbdock.cxx#4 $)

>  <Rbt.Library>
libRbt.so (2013.1, Build901 2013/11/27)

>  <Rbt.Parameter_File>
/export/apps/rDock/src/rDock_2013.1_src/data/scripts/dock_solv.prm

>  <Rbt.Receptor>
prm/blind_docking_40.prm

>  <SCORE>
-5.13142

>  <SCORE.INTER>
-4.01812

>  <SCORE.INTER.CONST>
1

>  <SCORE.INTER.POLAR>
0

>  <SCORE.INTER.ROT>
5

>  <SCORE.INTER.SOLV>
7.1785

>  <SCORE.INTER.VDW>
-12.0049

>  <SCORE.INTER.norm>
-0.401812

>  <SCORE.INTRA>
-1.1133

>  <SCORE.INTRA.DIHEDRAL>
-2.073

>  <SCORE.INTRA.DIHEDRAL.0>
3.67053

>  <SCORE.INTRA.POLAR>
0

>  <SCORE.INTRA.POLAR.0>
0

>  <SCORE.INTRA.REPUL>
0

>  <SCORE.INTRA.REPUL.0>
0

>  <SCORE.INTRA.SOLV>
-0.276741

>  <SCORE.INTRA.SOLV.lig_0>
-32.0553

>  <SCORE.INTRA.VDW>
0.0615743

>  <SCORE.INTRA.VDW.0>
-0.571921

>  <SCORE.INTRA.norm>
-0.11133

>  <SCORE.RESTR>
0

>  <SCORE.RESTR.CAVITY>
0

>  <SCORE.RESTR.norm>
0

>  <SCORE.SYSTEM>
0

>  <SCORE.SYSTEM.CONST>
0

>  <SCORE.SYSTEM.DIHEDRAL>
0

>  <SCORE.SYSTEM.SOLV>
0

>  <SCORE.SYSTEM.norm>
0

>  <SCORE.heavy>
10

>  <SCORE.norm>
-0.513142

>  <RMSD>
13.908

$$$$
ligand
 OpenBabel11021811473D
libRbt.so/2013.1/901 2013/11/27
 10  9  0  0  0  0  0  0  0  0999 V2000
   22.5539   12.6346   11.9503 N   0  0  0  0  0  0  0  0  0  0  0  0
   22.3555   14.0331   11.4641 C   0  0  2  0  0  0  0  0  0  0  0  0
   20.8985   14.4630   11.5717 C   0  0  0  0  0  0  0  0  0  0  0  0
   20.5348   15.2841   12.4066 O   0  0  0  0  0  0  0  0  0  0  0  0
   22.8679   14.1923   10.0305 C   0  0  0  0  0  0  0  0  0  0  0  0
   24.3419   13.8629    9.8682 C   0  0  0  0  0  0  0  0  0  0  0  0
   24.7701   13.9053    8.4066 C   0  0  0  0  0  0  0  0  0  0  0  0
   26.2232   13.4845    8.2600 C   0  0  0  0  0  0  0  0  0  0  0  0
   26.6817   13.4662    6.8254 N   0  0  0  0  0  0  0  0  0  0  0  0
   20.0356   14.0352   10.8171 O   0  0  0  0  0  0  0  0  0  0  0  0
  2  1  1  6  0  0  0
  2  3  1  0  0  0  0
  2  5  1  0  0  0  0
  3  4  1  0  0  0  0
  3 10  1  0  0  0  0
  5  6  1  0  0  0  0
  6  7  1  0  0  0  0
  7  8  1  0  0  0  0
  8  9  1  0  0  0  0
M  END
>  <CHROM.1>
108.58270092,-58.94458449,174.47045546,-176.29719878,178.10049652,23.08379310
13.94838054,10.17136491,-2.62559402,0.42422397,-1.14549077

>  <Name>
ligand

>  <RI>
0

>  <Rbt.Current_Directory>
/home/itssahil/PROJECTS/Mol_Feturizer/New_Systems/rnas/3DIZ

>  <Rbt.Executable>
rbdock ($Id: //depot/dev/client3/rdock/2013.1/src/exe/rbdock.cxx#4 $)

>  <Rbt.Library>
libRbt.so (2013.1, Build901 2013/11/27)

>  <Rbt.Parameter_File>
/export/apps/rDock/src/rDock_2013.1_src/data/scripts/dock_solv.prm

>  <Rbt.Receptor>
prm/blind_docking_40.prm

>  <SCORE>
-3.2001

>  <SCORE.INTER>
-1.73437

>  <SCORE.INTER.CONST>
1

>  <SCORE.INTER.POLAR>
0

>  <SCORE.INTER.ROT>
5

>  <SCORE.INTER.SOLV>
7.76626

>  <SCORE.INTER.VDW>
-10.6783

>  <SCORE.INTER.norm>
-0.173437

>  <SCORE.INTRA>
-1.46573

>  <SCORE.INTRA.DIHEDRAL>
-1.92937

>  <SCORE.INTRA.DIHEDRAL.0>
3.67053

>  <SCORE.INTRA.POLAR>
0

>  <SCORE.INTRA.POLAR.0>
0

>  <SCORE.INTRA.REPUL>
0

>  <SCORE.INTRA.REPUL.0>
0

>  <SCORE.INTRA.SOLV>
-0.796228

>  <SCORE.INTRA.SOLV.lig_0>
-32.0553

>  <SCORE.INTRA.VDW>
-0.102936

>  <SCORE.INTRA.VDW.0>
-0.571921

>  <SCORE.INTRA.norm>
-0.146573

>  <SCORE.RESTR>
0

>  <SCORE.RESTR.CAVITY>
0

>  <SCORE.RESTR.norm>
0

>  <SCORE.SYSTEM>
0

>  <SCORE.SYSTEM.CONST>
0

>  <SCORE.SYSTEM.DIHEDRAL>
0

>  <SCORE.SYSTEM.SOLV>
0

>  <SCORE.SYSTEM.norm>
0

>  <SCORE.heavy>
10

>  <SCORE.norm>
-0.32001

>  <RMSD>
13.932

$$$$
ligand
 OpenBabel11021811473D
libRbt.so/2013.1/901 2013/11/27
 10  9  0  0  0  0  0  0  0  0999 V2000
   23.9183   13.1659    8.6690 N   0  0  0  0  0  0  0  0  0  0  0  0
   24.5406   14.2393    7.8371 C   0  0  2  0  0  0  0  0  0  0  0  0
   25.4369   13.6588    6.7513 C   0  0  0  0  0  0  0  0  0  0  0  0
   25.9452   14.3725    5.8936 O   0  0  0  0  0  0  0  0  0  0  0  0
   25.3128   15.2309    8.7109 C   0  0  0  0  0  0  0  0  0  0  0  0
   26.5715   14.6484    9.3304 C   0  0  0  0  0  0  0  0  0  0  0  0
   27.3854   15.7122   10.0566 C   0  0  0  0  0  0  0  0  0  0  0  0
   28.8281   15.2641   10.2235 C   0  0  0  0  0  0  0  0  0  0  0  0
   29.5402   15.0937    8.9072 N   0  0  0  0  0  0  0  0  0  0  0  0
   25.7133   12.4679    6.7023 O   0  0  0  0  0  0  0  0  0  0  0  0
  2  1  1  1  0  0  0
  2  3  1  0  0  0  0
  2  5  1  0  0  0  0
  3  4  1  0  0  0  0
  3 10  1  0  0  0  0
  5  6  1  0  0  0  0
  6  7  1  0  0  0  0
  7  8  1  0  0  0  0
  8  9  1  0  0  0  0
M  END
>  <CHROM.1>
173.59259424,69.35618984,173.47978527,-159.42057091,63.90676902,26.33071790
14.36987680,8.27743493,2.43233760,-0.19912974,-1.95761809

>  <Name>
ligand

>  <RI>
0

>  <Rbt.Current_Directory>
/home/itssahil/PROJECTS/Mol_Feturizer/New_Systems/rnas/3DIZ

>  <Rbt.Executable>
rbdock ($Id: //depot/dev/client3/rdock/2013.1/src/exe/rbdock.cxx#4 $)

>  <Rbt.Library>
libRbt.so (2013.1, Build901 2013/11/27)

>  <Rbt.Parameter_File>
/export/apps/rDock/src/rDock_2013.1_src/data/scripts/dock_solv.prm

>  <Rbt.Receptor>
prm/blind_docking_100.prm

>  <SCORE>
-2.27618

>  <SCORE.INTER>
-2.39215

>  <SCORE.INTER.CONST>
1

>  <SCORE.INTER.POLAR>
0

>  <SCORE.INTER.ROT>
5

>  <SCORE.INTER.SOLV>
15.2547

>  <SCORE.INTER.VDW>
-13.613

>  <SCORE.INTER.norm>
-0.239215

>  <SCORE.INTRA>
0.115971

>  <SCORE.INTRA.DIHEDRAL>
-0.0300167

>  <SCORE.INTRA.DIHEDRAL.0>
3.67053

>  <SCORE.INTRA.POLAR>
0

>  <SCORE.INTRA.POLAR.0>
0

>  <SCORE.INTRA.REPUL>
0

>  <SCORE.INTRA.REPUL.0>
0

>  <SCORE.INTRA.SOLV>
0.099012

>  <SCORE.INTRA.SOLV.lig_0>
-32.0553

>  <SCORE.INTRA.VDW>
0.0814732

>  <SCORE.INTRA.VDW.0>
-0.571921

>  <SCORE.INTRA.norm>
0.0115971

>  <SCORE.RESTR>
0

>  <SCORE.RESTR.CAVITY>
0

>  <SCORE.RESTR.norm>
0

>  <SCORE.SYSTEM>
0

>  <SCORE.SYSTEM.CONST>
0

>  <SCORE.SYSTEM.DIHEDRAL>
0

>  <SCORE.SYSTEM.SOLV>
0

>  <SCORE.SYSTEM.norm>
0

>  <SCORE.heavy>
10

>  <SCORE.norm>
-0.227618

>  <RMSD>
14.096

$$$$
ligand
 OpenBabel11021811473D
libRbt.so/2013.1/901 2013/11/27
 10  9  0  0  0  0  0  0  0  0999 V2000
   23.8563   15.0029    8.5492 N   0  0  0  0  0  0  0  0  0  0  0  0
   24.3156   13.6393    8.9505 C   0  0  2  0  0  0  0  0  0  0  0  0
   24.1143   13.3954   10.4401 C   0  0  0  0  0  0  0  0  0  0  0  0
   24.5250   14.1901   11.2787 O   0  0  0  0  0  0  0  0  0  0  0  0
   25.7764   13.4144    8.5523 C   0  0  0  0  0  0  0  0  0  0  0  0
   26.0092   13.4232    7.0512 C   0  0  0  0  0  0  0  0  0  0  0  0
   27.4753   13.1910    6.7078 C   0  0  0  0  0  0  0  0  0  0  0  0
   27.6832   13.2047    5.2023 C   0  0  0  0  0  0  0  0  0  0  0  0
   29.1218   12.9887    4.8118 N   0  0  0  0  0  0  0  0  0  0  0  0
   23.5123   12.4185   10.8649 O   0  0  0  0  0  0  0  0  0  0  0  0
  2  1  1  1  0  0  0
  2  3  1  0  0  0  0
  2  5  1  0  0  0  0
  3  4  1  0  0  0  0
  3 10  1  0  0  0  0
  5  6  1  0  0  0  0
  6  7  1  0  0  0  0
  7  8  1  0  0  0  0
  8  9  1  0  0  0  0
M  END
>  <CHROM.1>
-51.24080087,-64.53440593,-179.81329460,-179.97804146,179.59062358,25.62464155
13.48179539,8.28399380,2.49511882,-0.65775201,2.17027242

>  <Name>
ligand

>  <RI>
0

>  <Rbt.Current_Directory>
/home/itssahil/PROJECTS/Mol_Feturizer/New_Systems/rnas/3DIZ

>  <Rbt.Executable>
rbdock ($Id: //depot/dev/client3/rdock/2013.1/src/exe/rbdock.cxx#4 $)

>  <Rbt.Library>
libRbt.so (2013.1, Build901 2013/11/27)

>  <Rbt.Parameter_File>
/export/apps/rDock/src/rDock_2013.1_src/data/scripts/dock_solv.prm

>  <Rbt.Receptor>
prm/blind_docking_80.prm

>  <SCORE>
-3.84462

>  <SCORE.INTER>
-2.08505

>  <SCORE.INTER.CONST>
1

>  <SCORE.INTER.POLAR>
0

>  <SCORE.INTER.ROT>
5

>  <SCORE.INTER.SOLV>
6.59979

>  <SCORE.INTER.VDW>
-10.5233

>  <SCORE.INTER.norm>
-0.208505

>  <SCORE.INTRA>
-1.75957

>  <SCORE.INTRA.DIHEDRAL>
-2.05393

>  <SCORE.INTRA.DIHEDRAL.0>
3.67053

>  <SCORE.INTRA.POLAR>
0

>  <SCORE.INTRA.POLAR.0>
0

>  <SCORE.INTRA.REPUL>
0

>  <SCORE.INTRA.REPUL.0>
0

>  <SCORE.INTRA.SOLV>
-0.87402

>  <SCORE.INTRA.SOLV.lig_0>
-32.0553

>  <SCORE.INTRA.VDW>
-0.295593

>  <SCORE.INTRA.VDW.0>
-0.571921

>  <SCORE.INTRA.norm>
-0.175957

>  <SCORE.RESTR>
0

>  <SCORE.RESTR.CAVITY>
0

>  <SCORE.RESTR.norm>
0

>  <SCORE.SYSTEM>
0

>  <SCORE.SYSTEM.CONST>
0

>  <SCORE.SYSTEM.DIHEDRAL>
0

>  <SCORE.SYSTEM.SOLV>
0

>  <SCORE.SYSTEM.norm>
0

>  <SCORE.heavy>
10

>  <SCORE.norm>
-0.384462

>  <RMSD>
14.387

$$$$
ligand
 OpenBabel11021811473D
libRbt.so/2013.1/901 2013/11/27
 10  9  0  0  0  0  0  0  0  0999 V2000
   24.9324   14.1516   10.8354 N   0  0  0  0  0  0  0  0  0  0  0  0
   23.9802   14.3899    9.7094 C   0  0  2  0  0  0  0  0  0  0  0  0
   22.5442   14.0862   10.1152 C   0  0  0  0  0  0  0  0  0  0  0  0
   22.2765   13.1563   10.8684 O   0  0  0  0  0  0  0  0  0  0  0  0
   24.3813   13.5818    8.4728 C   0  0  0  0  0  0  0  0  0  0  0  0
   25.7819   13.8879    7.9704 C   0  0  0  0  0  0  0  0  0  0  0  0
   26.1637   12.9996    6.7928 C   0  0  0  0  0  0  0  0  0  0  0  0
   27.5928   13.2742    6.3540 C   0  0  0  0  0  0  0  0  0  0  0  0
   28.0243   12.4059    5.2013 N   0  0  0  0  0  0  0  0  0  0  0  0
   21.6018   14.7681    9.7361 O   0  0  0  0  0  0  0  0  0  0  0  0
  2  1  1  1  0  0  0
  2  3  1  0  0  0  0
  2  5  1  0  0  0  0
  3  4  1  0  0  0  0
  3 10  1  0  0  0  0
  5  6  1  0  0  0  0
  6  7  1  0  0  0  0
  7  8  1  0  0  0  0
  8  9  1  0  0  0  0
M  END
>  <CHROM.1>
-36.65923710,-58.22603244,176.55032042,-177.08410681,179.25226756,24.68598399
13.66734432,8.62372810,-2.40965463,0.09088800,-1.73593556

>  <Name>
ligand

>  <RI>
0

>  <Rbt.Current_Directory>
/home/itssahil/PROJECTS/Mol_Feturizer/New_Systems/rnas/3DIZ

>  <Rbt.Executable>
rbdock ($Id: //depot/dev/client3/rdock/2013.1/src/exe/rbdock.cxx#4 $)

>  <Rbt.Library>
libRbt.so (2013.1, Build901 2013/11/27)

>  <Rbt.Parameter_File>
/export/apps/rDock/src/rDock_2013.1_src/data/scripts/dock_solv.prm

>  <Rbt.Receptor>
prm/blind_docking_80.prm

>  <SCORE>
-4.71992

>  <SCORE.INTER>
-3.08487

>  <SCORE.INTER.CONST>
1

>  <SCORE.INTER.POLAR>
0

>  <SCORE.INTER.ROT>
5

>  <SCORE.INTER.SOLV>
5.71527

>  <SCORE.INTER.VDW>
-10.895

>  <SCORE.INTER.norm>
-0.308487

>  <SCORE.INTRA>
-1.63505

>  <SCORE.INTRA.DIHEDRAL>
-2.01654

>  <SCORE.INTRA.DIHEDRAL.0>
3.67053

>  <SCORE.INTRA.POLAR>
0

>  <SCORE.INTRA.POLAR.0>
0

>  <SCORE.INTRA.REPUL>
0

>  <SCORE.INTRA.REPUL.0>
0

>  <SCORE.INTRA.SOLV>
-0.76907

>  <SCORE.INTRA.SOLV.lig_0>
-32.0553

>  <SCORE.INTRA.VDW>
-0.242246

>  <SCORE.INTRA.VDW.0>
-0.571921

>  <SCORE.INTRA.norm>
-0.163505

>  <SCORE.RESTR>
0

>  <SCORE.RESTR.CAVITY>
0

>  <SCORE.RESTR.norm>
0

>  <SCORE.SYSTEM>
0

>  <SCORE.SYSTEM.CONST>
0

>  <SCORE.SYSTEM.DIHEDRAL>
0

>  <SCORE.SYSTEM.SOLV>
0

>  <SCORE.SYSTEM.norm>
0

>  <SCORE.heavy>
10

>  <SCORE.norm>
-0.471992

>  <RMSD>
14.439

$$$$
ligand
 OpenBabel11021811473D
libRbt.so/2013.1/901 2013/11/27
 10  9  0  0  0  0  0  0  0  0999 V2000
   27.4330   12.8045    4.3784 N   0  0  0  0  0  0  0  0  0  0  0  0
   27.3996   13.5438    5.6760 C   0  0  2  0  0  0  0  0  0  0  0  0
   28.7028   13.3824    6.4472 C   0  0  0  0  0  0  0  0  0  0  0  0
   29.3815   12.3659    6.3487 O   0  0  0  0  0  0  0  0  0  0  0  0
   26.2040   13.1054    6.5254 C   0  0  0  0  0  0  0  0  0  0  0  0
   26.0325   13.9114    7.8015 C   0  0  0  0  0  0  0  0  0  0  0  0
   24.7871   13.4886    8.5708 C   0  0  0  0  0  0  0  0  0  0  0  0
   24.6724   14.2619    9.8742 C   0  0  0  0  0  0  0  0  0  0  0  0
   23.4573   13.8743   10.6756 N   0  0  0  0  0  0  0  0  0  0  0  0
   29.1448   14.2639    7.1716 O   0  0  0  0  0  0  0  0  0  0  0  0
  2  1  1  6  0  0  0
  2  3  1  0  0  0  0
  2  5  1  0  0  0  0
  3  4  1  0  0  0  0
  3 10  1  0  0  0  0
  5  6  1  0  0  0  0
  6  7  1  0  0  0  0
  7  8  1  0  0  0  0
  8  9  1  0  0  0  0
M  END
>  <CHROM.1>
-30.43788834,-174.46702985,176.83057091,177.32112669,-179.74851240,26.75977284
13.49645209,7.35527643,0.74759632,-0.07357574,-1.85084028

>  <Name>
ligand

>  <RI>
0

>  <Rbt.Current_Directory>
/home/itssahil/PROJECTS/Mol_Feturizer/New_Systems/rnas/3DIZ

>  <Rbt.Executable>
rbdock ($Id: //depot/dev/client3/rdock/2013.1/src/exe/rbdock.cxx#4 $)

>  <Rbt.Library>
libRbt.so (2013.1, Build901 2013/11/27)

>  <Rbt.Parameter_File>
/export/apps/rDock/src/rDock_2013.1_src/data/scripts/dock_solv.prm

>  <Rbt.Receptor>
prm/blind_docking_80.prm

>  <SCORE>
-4.53321

>  <SCORE.INTER>
-2.5143

>  <SCORE.INTER.CONST>
1

>  <SCORE.INTER.POLAR>
0

>  <SCORE.INTER.ROT>
5

>  <SCORE.INTER.SOLV>
5.76847

>  <SCORE.INTER.VDW>
-10.5324

>  <SCORE.INTER.norm>
-0.25143

>  <SCORE.INTRA>
-2.01891

>  <SCORE.INTRA.DIHEDRAL>
-1.9273

>  <SCORE.INTRA.DIHEDRAL.0>
3.67053

>  <SCORE.INTRA.POLAR>
0

>  <SCORE.INTRA.POLAR.0>
0

>  <SCORE.INTRA.REPUL>
0

>  <SCORE.INTRA.REPUL.0>
0

>  <SCORE.INTRA.SOLV>
-1.70481

>  <SCORE.INTRA.SOLV.lig_0>
-32.0553

>  <SCORE.INTRA.VDW>
-0.202859

>  <SCORE.INTRA.VDW.0>
-0.571921

>  <SCORE.INTRA.norm>
-0.201891

>  <SCORE.RESTR>
0

>  <SCORE.RESTR.CAVITY>
0

>  <SCORE.RESTR.norm>
0

>  <SCORE.SYSTEM>
0

>  <SCORE.SYSTEM.CONST>
0

>  <SCORE.SYSTEM.DIHEDRAL>
0

>  <SCORE.SYSTEM.SOLV>
0

>  <SCORE.SYSTEM.norm>
0

>  <SCORE.heavy>
10

>  <SCORE.norm>
-0.453321

>  <RMSD>
14.462

$$$$
ligand
 OpenBabel11021811473D
libRbt.so/2013.1/901 2013/11/27
 10  9  0  0  0  0  0  0  0  0999 V2000
   20.2007   13.6525   12.5356 N   0  0  0  0  0  0  0  0  0  0  0  0
   20.7974   14.3579   11.3618 C   0  0  2  0  0  0  0  0  0  0  0  0
   19.8345   14.3983   10.1827 C   0  0  0  0  0  0  0  0  0  0  0  0
   18.7864   13.7620   10.1919 O   0  0  0  0  0  0  0  0  0  0  0  0
   22.1290   13.7198   10.9584 C   0  0  0  0  0  0  0  0  0  0  0  0
   22.9075   14.5260    9.9330 C   0  0  0  0  0  0  0  0  0  0  0  0
   24.1644   13.7945    9.4786 C   0  0  0  0  0  0  0  0  0  0  0  0
   24.9305   14.6238    8.4610 C   0  0  0  0  0  0  0  0  0  0  0  0
   26.1773   13.9358    7.9701 N   0  0  0  0  0  0  0  0  0  0  0  0
   20.0456   15.0851    9.1923 O   0  0  0  0  0  0  0  0  0  0  0  0
  2  1  1  1  0  0  0
  2  3  1  0  0  0  0
  2  5  1  0  0  0  0
  3  4  1  0  0  0  0
  3 10  1  0  0  0  0
  5  6  1  0  0  0  0
  6  7  1  0  0  0  0
  7  8  1  0  0  0  0
  8  9  1  0  0  0  0
M  END
>  <CHROM.1>
-8.79072143,-169.97301994,-175.21223446,-179.62037410,-179.44460639,21.96428262
14.18807110,10.00537358,-2.76988516,0.11180395,-1.26968695

>  <Name>
ligand

>  <RI>
0

>  <Rbt.Current_Directory>
/home/itssahil/PROJECTS/Mol_Feturizer/New_Systems/rnas/3DIZ

>  <Rbt.Executable>
rbdock ($Id: //depot/dev/client3/rdock/2013.1/src/exe/rbdock.cxx#4 $)

>  <Rbt.Library>
libRbt.so (2013.1, Build901 2013/11/27)

>  <Rbt.Parameter_File>
/export/apps/rDock/src/rDock_2013.1_src/data/scripts/dock_solv.prm

>  <Rbt.Receptor>
prm/blind_docking_40.prm

>  <SCORE>
-6.05715

>  <SCORE.INTER>
-4.31366

>  <SCORE.INTER.CONST>
1

>  <SCORE.INTER.POLAR>
0

>  <SCORE.INTER.ROT>
5

>  <SCORE.INTER.SOLV>
4.63455

>  <SCORE.INTER.VDW>
-11.354

>  <SCORE.INTER.norm>
-0.431366

>  <SCORE.INTRA>
-1.7435

>  <SCORE.INTRA.DIHEDRAL>
-1.6734

>  <SCORE.INTRA.DIHEDRAL.0>
3.67053

>  <SCORE.INTRA.POLAR>
0

>  <SCORE.INTRA.POLAR.0>
0

>  <SCORE.INTRA.REPUL>
0

>  <SCORE.INTRA.REPUL.0>
0

>  <SCORE.INTRA.SOLV>
-1.69556

>  <SCORE.INTRA.SOLV.lig_0>
-32.0553

>  <SCORE.INTRA.VDW>
-0.0590129

>  <SCORE.INTRA.VDW.0>
-0.571921

>  <SCORE.INTRA.norm>
-0.17435

>  <SCORE.RESTR>
0

>  <SCORE.RESTR.CAVITY>
0

>  <SCORE.RESTR.norm>
0

>  <SCORE.SYSTEM>
0

>  <SCORE.SYSTEM.CONST>
0

>  <SCORE.SYSTEM.DIHEDRAL>
0

>  <SCORE.SYSTEM.SOLV>
0

>  <SCORE.SYSTEM.norm>
0

>  <SCORE.heavy>
10

>  <SCORE.norm>
-0.605715

>  <RMSD>
14.693

$$$$
ligand
 OpenBabel11021811473D
libRbt.so/2013.1/901 2013/11/27
 10  9  0  0  0  0  0  0  0  0999 V2000
   19.7010   12.6485   11.5580 N   0  0  0  0  0  0  0  0  0  0  0  0
   19.9258   14.0933   11.2522 C   0  0  2  0  0  0  0  0  0  0  0  0
   19.4788   14.4437    9.8393 C   0  0  0  0  0  0  0  0  0  0  0  0
   20.1800   15.1233    9.0976 O   0  0  0  0  0  0  0  0  0  0  0  0
   21.3907   14.4783   11.4734 C   0  0  0  0  0  0  0  0  0  0  0  0
   22.3660   13.6900   10.6161 C   0  0  0  0  0  0  0  0  0  0  0  0
   23.8052   14.1323   10.8498 C   0  0  0  0  0  0  0  0  0  0  0  0
   24.7483   13.4191    9.8947 C   0  0  0  0  0  0  0  0  0  0  0  0
   26.1841   13.8373   10.0745 N   0  0  0  0  0  0  0  0  0  0  0  0
   18.4219   14.0420    9.3718 O   0  0  0  0  0  0  0  0  0  0  0  0
  2  1  1  6  0  0  0
  2  3  1  0  0  0  0
  2  5  1  0  0  0  0
  3  4  1  0  0  0  0
  3 10  1  0  0  0  0
  5  6  1  0  0  0  0
  6  7  1  0  0  0  0
  7  8  1  0  0  0  0
  8  9  1  0  0  0  0
M  END
>  <CHROM.1>
-134.27627309,59.51412381,178.68526213,-174.95112113,179.23618849,21.59764341
14.00032532,10.37194583,3.09376592,0.03527459,-1.06652098

>  <Name>
ligand

>  <RI>
0

>  <Rbt.Current_Directory>
/home/itssahil/PROJECTS/Mol_Feturizer/New_Systems/rnas/3DIZ

>  <Rbt.Executable>
rbdock ($Id: //depot/dev/client3/rdock/2013.1/src/exe/rbdock.cxx#4 $)

>  <Rbt.Library>
libRbt.so (2013.1, Build901 2013/11/27)

>  <Rbt.Parameter_File>
/export/apps/rDock/src/rDock_2013.1_src/data/scripts/dock_solv.prm

>  <Rbt.Receptor>
prm/blind_docking_40.prm

>  <SCORE>
-3.30369

>  <SCORE.INTER>
-2.58044

>  <SCORE.INTER.CONST>
1

>  <SCORE.INTER.POLAR>
0

>  <SCORE.INTER.ROT>
5

>  <SCORE.INTER.SOLV>
8.2724

>  <SCORE.INTER.VDW>
-11.4111

>  <SCORE.INTER.norm>
-0.258044

>  <SCORE.INTRA>
-0.723252

>  <SCORE.INTRA.DIHEDRAL>
-2.00518

>  <SCORE.INTRA.DIHEDRAL.0>
3.67053

>  <SCORE.INTRA.POLAR>
0

>  <SCORE.INTRA.POLAR.0>
0

>  <SCORE.INTRA.REPUL>
0

>  <SCORE.INTRA.REPUL.0>
0

>  <SCORE.INTRA.SOLV>
-0.824138

>  <SCORE.INTRA.SOLV.lig_0>
-32.0553

>  <SCORE.INTRA.VDW>
0.691409

>  <SCORE.INTRA.VDW.0>
-0.571921

>  <SCORE.INTRA.norm>
-0.0723252

>  <SCORE.RESTR>
0

>  <SCORE.RESTR.CAVITY>
0

>  <SCORE.RESTR.norm>
0

>  <SCORE.SYSTEM>
0

>  <SCORE.SYSTEM.CONST>
0

>  <SCORE.SYSTEM.DIHEDRAL>
0

>  <SCORE.SYSTEM.SOLV>
0

>  <SCORE.SYSTEM.norm>
0

>  <SCORE.heavy>
10

>  <SCORE.norm>
-0.330369

>  <RMSD>
14.694

$$$$
ligand
 OpenBabel11021811473D
libRbt.so/2013.1/901 2013/11/27
 10  9  0  0  0  0  0  0  0  0999 V2000
   20.0983   13.7082   12.4559 N   0  0  0  0  0  0  0  0  0  0  0  0
   20.7177   14.4021   11.2870 C   0  0  2  0  0  0  0  0  0  0  0  0
   19.7762   14.4345   10.0905 C   0  0  0  0  0  0  0  0  0  0  0  0
   18.7084   13.8318   10.1016 O   0  0  0  0  0  0  0  0  0  0  0  0
   22.0548   13.7576   10.9131 C   0  0  0  0  0  0  0  0  0  0  0  0
   22.8629   14.5638    9.9109 C   0  0  0  0  0  0  0  0  0  0  0  0
   24.1307   13.8306    9.4907 C   0  0  0  0  0  0  0  0  0  0  0  0
   24.9156   14.6505    8.4799 C   0  0  0  0  0  0  0  0  0  0  0  0
   26.1878   13.9726    8.0432 N   0  0  0  0  0  0  0  0  0  0  0  0
   20.0253   15.0820    9.0827 O   0  0  0  0  0  0  0  0  0  0  0  0
  2  1  1  1  0  0  0
  2  3  1  0  0  0  0
  2  5  1  0  0  0  0
  3  4  1  0  0  0  0
  3 10  1  0  0  0  0
  5  6  1  0  0  0  0
  6  7  1  0  0  0  0
  7  8  1  0  0  0  0
  8  9  1  0  0  0  0
M  END
>  <CHROM.1>
-6.64613773,-169.09065454,-175.59098993,179.51326571,179.41500824,21.91508575
14.22570623,9.96369084,-2.79317747,0.10305012,-1.27633259

>  <Name>
ligand

>  <RI>
0

>  <Rbt.Current_Directory>
/home/itssahil/PROJECTS/Mol_Feturizer/New_Systems/rnas/3DIZ

>  <Rbt.Executable>
rbdock ($Id: //depot/dev/client3/rdock/2013.1/src/exe/rbdock.cxx#4 $)

>  <Rbt.Library>
libRbt.so (2013.1, Build901 2013/11/27)

>  <Rbt.Parameter_File>
/export/apps/rDock/src/rDock_2013.1_src/data/scripts/dock_solv.prm

>  <Rbt.Receptor>
prm/blind_docking_40.prm

>  <SCORE>
-6.10364

>  <SCORE.INTER>
-4.39718

>  <SCORE.INTER.CONST>
1

>  <SCORE.INTER.POLAR>
0

>  <SCORE.INTER.ROT>
5

>  <SCORE.INTER.SOLV>
4.72853

>  <SCORE.INTER.VDW>
-11.441

>  <SCORE.INTER.norm>
-0.439718

>  <SCORE.INTRA>
-1.70646

>  <SCORE.INTRA.DIHEDRAL>
-1.62591

>  <SCORE.INTRA.DIHEDRAL.0>
3.67053

>  <SCORE.INTRA.POLAR>
0

>  <SCORE.INTRA.POLAR.0>
0

>  <SCORE.INTRA.REPUL>
0

>  <SCORE.INTRA.REPUL.0>
0

>  <SCORE.INTRA.SOLV>
-1.69433

>  <SCORE.INTRA.SOLV.lig_0>
-32.0553

>  <SCORE.INTRA.VDW>
-0.04634

>  <SCORE.INTRA.VDW.0>
-0.571921

>  <SCORE.INTRA.norm>
-0.170646

>  <SCORE.RESTR>
0

>  <SCORE.RESTR.CAVITY>
0

>  <SCORE.RESTR.norm>
0

>  <SCORE.SYSTEM>
0

>  <SCORE.SYSTEM.CONST>
0

>  <SCORE.SYSTEM.DIHEDRAL>
0

>  <SCORE.SYSTEM.SOLV>
0

>  <SCORE.SYSTEM.norm>
0

>  <SCORE.heavy>
10

>  <SCORE.norm>
-0.610364

>  <RMSD>
14.753

$$$$
ligand
 OpenBabel11021811473D
libRbt.so/2013.1/901 2013/11/27
 10  9  0  0  0  0  0  0  0  0999 V2000
   24.8279   16.0801    8.3231 N   0  0  0  0  0  0  0  0  0  0  0  0
   24.1403   14.7544    8.3533 C   0  0  2  0  0  0  0  0  0  0  0  0
   23.4439   14.5139    9.6862 C   0  0  0  0  0  0  0  0  0  0  0  0
   24.0788   14.2335   10.6970 O   0  0  0  0  0  0  0  0  0  0  0  0
   25.1203   13.6219    8.0365 C   0  0  0  0  0  0  0  0  0  0  0  0
   25.8011   13.7628    6.6859 C   0  0  0  0  0  0  0  0  0  0  0  0
   26.8868   12.7117    6.4909 C   0  0  0  0  0  0  0  0  0  0  0  0
   27.5993   12.9150    5.1639 C   0  0  0  0  0  0  0  0  0  0  0  0
   28.7052   11.9175    4.9386 N   0  0  0  0  0  0  0  0  0  0  0  0
   22.2317   14.6178    9.8160 O   0  0  0  0  0  0  0  0  0  0  0  0
  2  1  1  1  0  0  0
  2  3  1  0  0  0  0
  2  5  1  0  0  0  0
  3  4  1  0  0  0  0
  3 10  1  0  0  0  0
  5  6  1  0  0  0  0
  6  7  1  0  0  0  0
  7  8  1  0  0  0  0
  8  9  1  0  0  0  0
M  END
>  <CHROM.1>
-74.61450200,-58.19772042,173.00414793,-177.19477507,178.67649145,25.25805729
13.91258243,7.85714146,3.08841975,-0.83061067,2.60591928

>  <Name>
ligand

>  <RI>
0

>  <Rbt.Current_Directory>
/home/itssahil/PROJECTS/Mol_Feturizer/New_Systems/rnas/3DIZ

>  <Rbt.Executable>
rbdock ($Id: //depot/dev/client3/rdock/2013.1/src/exe/rbdock.cxx#4 $)

>  <Rbt.Library>
libRbt.so (2013.1, Build901 2013/11/27)

>  <Rbt.Parameter_File>
/export/apps/rDock/src/rDock_2013.1_src/data/scripts/dock_solv.prm

>  <Rbt.Receptor>
prm/blind_docking_80.prm

>  <SCORE>
-3.76638

>  <SCORE.INTER>
-2.34488

>  <SCORE.INTER.CONST>
1

>  <SCORE.INTER.POLAR>
0

>  <SCORE.INTER.ROT>
5

>  <SCORE.INTER.SOLV>
9.4018

>  <SCORE.INTER.VDW>
-11.6305

>  <SCORE.INTER.norm>
-0.234488

>  <SCORE.INTRA>
-1.4215

>  <SCORE.INTRA.DIHEDRAL>
-1.96316

>  <SCORE.INTRA.DIHEDRAL.0>
3.67053

>  <SCORE.INTRA.POLAR>
0

>  <SCORE.INTRA.POLAR.0>
0

>  <SCORE.INTRA.REPUL>
0

>  <SCORE.INTRA.REPUL.0>
0

>  <SCORE.INTRA.SOLV>
-0.76325

>  <SCORE.INTRA.SOLV.lig_0>
-32.0553

>  <SCORE.INTRA.VDW>
-0.058296

>  <SCORE.INTRA.VDW.0>
-0.571921

>  <SCORE.INTRA.norm>
-0.14215

>  <SCORE.RESTR>
0

>  <SCORE.RESTR.CAVITY>
0

>  <SCORE.RESTR.norm>
0

>  <SCORE.SYSTEM>
0

>  <SCORE.SYSTEM.CONST>
0

>  <SCORE.SYSTEM.DIHEDRAL>
0

>  <SCORE.SYSTEM.SOLV>
0

>  <SCORE.SYSTEM.norm>
0

>  <SCORE.heavy>
10

>  <SCORE.norm>
-0.376638

>  <RMSD>
14.775

$$$$
ligand
 OpenBabel11021811473D
libRbt.so/2013.1/901 2013/11/27
 10  9  0  0  0  0  0  0  0  0999 V2000
   20.2671   13.6982   12.4821 N   0  0  0  0  0  0  0  0  0  0  0  0
   20.8051   14.4106   11.2844 C   0  0  2  0  0  0  0  0  0  0  0  0
   19.8031   14.4155   10.1375 C   0  0  0  0  0  0  0  0  0  0  0  0
   19.9959   15.0780    9.1239 O   0  0  0  0  0  0  0  0  0  0  0  0
   22.1398   13.8061   10.8415 C   0  0  0  0  0  0  0  0  0  0  0  0
   22.8700   14.6346    9.7984 C   0  0  0  0  0  0  0  0  0  0  0  0
   24.1235   13.9290    9.2961 C   0  0  0  0  0  0  0  0  0  0  0  0
   24.8270   14.7685    8.2424 C   0  0  0  0  0  0  0  0  0  0  0  0
   26.0657   14.1043    7.7011 N   0  0  0  0  0  0  0  0  0  0  0  0
   18.7826   13.7411   10.1612 O   0  0  0  0  0  0  0  0  0  0  0  0
  2  1  1  1  0  0  0
  2  3  1  0  0  0  0
  2  5  1  0  0  0  0
  3  4  1  0  0  0  0
  3 10  1  0  0  0  0
  5  6  1  0  0  0  0
  6  7  1  0  0  0  0
  7  8  1  0  0  0  0
  8  9  1  0  0  0  0
M  END
>  <CHROM.1>
171.65308463,-169.22815855,-174.65353517,179.31026480,-179.28039112,21.93476427
14.25957406,9.88627960,-2.72650144,0.08979591,-1.29086680

>  <Name>
ligand

>  <RI>
0

>  <Rbt.Current_Directory>
/home/itssahil/PROJECTS/Mol_Feturizer/New_Systems/rnas/3DIZ

>  <Rbt.Executable>
rbdock ($Id: //depot/dev/client3/rdock/2013.1/src/exe/rbdock.cxx#4 $)

>  <Rbt.Library>
libRbt.so (2013.1, Build901 2013/11/27)

>  <Rbt.Parameter_File>
/export/apps/rDock/src/rDock_2013.1_src/data/scripts/dock_solv.prm

>  <Rbt.Receptor>
prm/blind_docking_60.prm

>  <SCORE>
-6.07819

>  <SCORE.INTER>
-4.36338

>  <SCORE.INTER.CONST>
1

>  <SCORE.INTER.POLAR>
0

>  <SCORE.INTER.ROT>
5

>  <SCORE.INTER.SOLV>
5.18014

>  <SCORE.INTER.VDW>
-11.569

>  <SCORE.INTER.norm>
-0.436338

>  <SCORE.INTRA>
-1.7148

>  <SCORE.INTRA.DIHEDRAL>
-1.65329

>  <SCORE.INTRA.DIHEDRAL.0>
3.67053

>  <SCORE.INTRA.POLAR>
0

>  <SCORE.INTRA.POLAR.0>
0

>  <SCORE.INTRA.REPUL>
0

>  <SCORE.INTRA.REPUL.0>
0

>  <SCORE.INTRA.SOLV>
-1.70408

>  <SCORE.INTRA.SOLV.lig_0>
-32.0553

>  <SCORE.INTRA.VDW>
-0.0361202

>  <SCORE.INTRA.VDW.0>
-0.571921

>  <SCORE.INTRA.norm>
-0.17148

>  <SCORE.RESTR>
0

>  <SCORE.RESTR.CAVITY>
0

>  <SCORE.RESTR.norm>
0

>  <SCORE.SYSTEM>
0

>  <SCORE.SYSTEM.CONST>
0

>  <SCORE.SYSTEM.DIHEDRAL>
0

>  <SCORE.SYSTEM.SOLV>
0

>  <SCORE.SYSTEM.norm>
0

>  <SCORE.heavy>
10

>  <SCORE.norm>
-0.607819

>  <RMSD>
14.783

$$$$
ligand
 OpenBabel11021811473D
libRbt.so/2013.1/901 2013/11/27
 10  9  0  0  0  0  0  0  0  0999 V2000
   18.4917   12.8400   11.5451 N   0  0  0  0  0  0  0  0  0  0  0  0
   18.4687   14.1488   10.8255 C   0  0  2  0  0  0  0  0  0  0  0  0
   17.2701   14.2547    9.8921 C   0  0  0  0  0  0  0  0  0  0  0  0
   16.3473   15.0285   10.1229 O   0  0  0  0  0  0  0  0  0  0  0  0
   19.7766   14.3779   10.0638 C   0  0  0  0  0  0  0  0  0  0  0  0
   21.0169   14.2773   10.9350 C   0  0  0  0  0  0  0  0  0  0  0  0
   22.2930   14.4327   10.1171 C   0  0  0  0  0  0  0  0  0  0  0  0
   23.5122   14.0723   10.9499 C   0  0  0  0  0  0  0  0  0  0  0  0
   24.7925   14.1199   10.1578 N   0  0  0  0  0  0  0  0  0  0  0  0
   17.1869   13.6002    8.8617 O   0  0  0  0  0  0  0  0  0  0  0  0
  2  1  1  6  0  0  0
  2  3  1  0  0  0  0
  2  5  1  0  0  0  0
  3  4  1  0  0  0  0
  3 10  1  0  0  0  0
  5  6  1  0  0  0  0
  6  7  1  0  0  0  0
  7  8  1  0  0  0  0
  8  9  1  0  0  0  0
M  END
>  <CHROM.1>
110.81029903,-54.96172586,176.71115651,-169.37874780,176.10063910,19.87518721
14.11872176,10.32612841,3.07087729,-0.03275298,-1.14228280

>  <Name>
ligand

>  <RI>
0

>  <Rbt.Current_Directory>
/home/itssahil/PROJECTS/Mol_Feturizer/New_Systems/rnas/3DIZ

>  <Rbt.Executable>
rbdock ($Id: //depot/dev/client3/rdock/2013.1/src/exe/rbdock.cxx#4 $)

>  <Rbt.Library>
libRbt.so (2013.1, Build901 2013/11/27)

>  <Rbt.Parameter_File>
/export/apps/rDock/src/rDock_2013.1_src/data/scripts/dock_solv.prm

>  <Rbt.Receptor>
prm/blind_docking_80.prm

>  <SCORE>
-5.3867

>  <SCORE.INTER>
-4.18809

>  <SCORE.INTER.CONST>
1

>  <SCORE.INTER.POLAR>
0

>  <SCORE.INTER.ROT>
5

>  <SCORE.INTER.SOLV>
7.30002

>  <SCORE.INTER.VDW>
-12.1587

>  <SCORE.INTER.norm>
-0.418809

>  <SCORE.INTRA>
-1.19861

>  <SCORE.INTRA.DIHEDRAL>
-1.4836

>  <SCORE.INTRA.DIHEDRAL.0>
3.67053

>  <SCORE.INTRA.POLAR>
0

>  <SCORE.INTRA.POLAR.0>
0

>  <SCORE.INTRA.REPUL>
0

>  <SCORE.INTRA.REPUL.0>
0

>  <SCORE.INTRA.SOLV>
-0.758609

>  <SCORE.INTRA.SOLV.lig_0>
-32.0553

>  <SCORE.INTRA.VDW>
-0.0775062

>  <SCORE.INTRA.VDW.0>
-0.571921

>  <SCORE.INTRA.norm>
-0.119861

>  <SCORE.RESTR>
0

>  <SCORE.RESTR.CAVITY>
0

>  <SCORE.RESTR.norm>
0

>  <SCORE.SYSTEM>
0

>  <SCORE.SYSTEM.CONST>
0

>  <SCORE.SYSTEM.DIHEDRAL>
0

>  <SCORE.SYSTEM.SOLV>
0

>  <SCORE.SYSTEM.norm>
0

>  <SCORE.heavy>
10

>  <SCORE.norm>
-0.53867

>  <RMSD>
15.911

$$$$
ligand
 OpenBabel11021811473D
libRbt.so/2013.1/901 2013/11/27
 10  9  0  0  0  0  0  0  0  0999 V2000
   17.0928   19.7944   16.3104 N   0  0  0  0  0  0  0  0  0  0  0  0
   16.3911   20.2548   15.0746 C   0  0  2  0  0  0  0  0  0  0  0  0
   16.9216   19.5505   13.8329 C   0  0  0  0  0  0  0  0  0  0  0  0
   18.0997   19.2238   13.7382 O   0  0  0  0  0  0  0  0  0  0  0  0
   16.4881   21.7750   14.9241 C   0  0  0  0  0  0  0  0  0  0  0  0
   15.6906   22.3255   13.7542 C   0  0  0  0  0  0  0  0  0  0  0  0
   15.9478   23.8131   13.5484 C   0  0  0  0  0  0  0  0  0  0  0  0
   15.1741   24.3309   12.3470 C   0  0  0  0  0  0  0  0  0  0  0  0
   13.6835   24.3121   12.5629 N   0  0  0  0  0  0  0  0  0  0  0  0
   16.1971   19.2535   12.8928 O   0  0  0  0  0  0  0  0  0  0  0  0
  2  1  1  1  0  0  0
  2  3  1  0  0  0  0
  2  5  1  0  0  0  0
  3  4  1  0  0  0  0
  3 10  1  0  0  0  0
  5  6  1  0  0  0  0
  6  7  1  0  0  0  0
  7  8  1  0  0  0  0
  8  9  1  0  0  0  0
M  END
>  <CHROM.1>
-33.55655914,-174.84482180,-173.34534260,178.20628441,67.14593947,16.18392588
21.43696506,13.87464719,-0.19215112,-1.11186747,1.00945763

>  <Name>
ligand

>  <RI>
0

>  <Rbt.Current_Directory>
/home/itssahil/PROJECTS/Mol_Feturizer/New_Systems/rnas/3DIZ

>  <Rbt.Executable>
rbdock ($Id: //depot/dev/client3/rdock/2013.1/src/exe/rbdock.cxx#4 $)

>  <Rbt.Library>
libRbt.so (2013.1, Build901 2013/11/27)

>  <Rbt.Parameter_File>
/export/apps/rDock/src/rDock_2013.1_src/data/scripts/dock_solv.prm

>  <Rbt.Receptor>
prm/blind_docking_40.prm

>  <SCORE>
-2.88947

>  <SCORE.INTER>
-1.47704

>  <SCORE.INTER.CONST>
1

>  <SCORE.INTER.POLAR>
0

>  <SCORE.INTER.ROT>
5

>  <SCORE.INTER.SOLV>
5.21515

>  <SCORE.INTER.VDW>
-9.65641

>  <SCORE.INTER.norm>
-0.147704

>  <SCORE.INTRA>
-1.41243

>  <SCORE.INTRA.DIHEDRAL>
-1.62806

>  <SCORE.INTRA.DIHEDRAL.0>
3.67053

>  <SCORE.INTRA.POLAR>
0

>  <SCORE.INTRA.POLAR.0>
0

>  <SCORE.INTRA.REPUL>
0

>  <SCORE.INTRA.REPUL.0>
0

>  <SCORE.INTRA.SOLV>
-0.837243

>  <SCORE.INTRA.SOLV.lig_0>
-32.0553

>  <SCORE.INTRA.VDW>
-0.179775

>  <SCORE.INTRA.VDW.0>
-0.571921

>  <SCORE.INTRA.norm>
-0.141243

>  <SCORE.RESTR>
0

>  <SCORE.RESTR.CAVITY>
0

>  <SCORE.RESTR.norm>
0

>  <SCORE.SYSTEM>
0

>  <SCORE.SYSTEM.CONST>
0

>  <SCORE.SYSTEM.DIHEDRAL>
0

>  <SCORE.SYSTEM.SOLV>
0

>  <SCORE.SYSTEM.norm>
0

>  <SCORE.heavy>
10

>  <SCORE.norm>
-0.288947

>  <RMSD>
17.203

$$$$
ligand
 OpenBabel11021811473D
libRbt.so/2013.1/901 2013/11/27
 10  9  0  0  0  0  0  0  0  0999 V2000
   16.0120   20.1810   15.3802 N   0  0  0  0  0  0  0  0  0  0  0  0
   16.5238   21.5531   15.0853 C   0  0  2  0  0  0  0  0  0  0  0  0
   16.6200   22.3992   16.3478 C   0  0  0  0  0  0  0  0  0  0  0  0
   17.7042   22.7512   16.7998 O   0  0  0  0  0  0  0  0  0  0  0  0
   15.6591   22.2446   14.0284 C   0  0  0  0  0  0  0  0  0  0  0  0
   16.1155   23.6539   13.6919 C   0  0  0  0  0  0  0  0  0  0  0  0
   15.4701   24.1629   12.4089 C   0  0  0  0  0  0  0  0  0  0  0  0
   13.9905   24.4360   12.6235 C   0  0  0  0  0  0  0  0  0  0  0  0
   13.7408   25.5438   13.6130 N   0  0  0  0  0  0  0  0  0  0  0  0
   15.6277   22.7891   16.9481 O   0  0  0  0  0  0  0  0  0  0  0  0
  2  1  1  1  0  0  0
  2  3  1  0  0  0  0
  2  5  1  0  0  0  0
  3  4  1  0  0  0  0
  3 10  1  0  0  0  0
  5  6  1  0  0  0  0
  6  7  1  0  0  0  0
  7  8  1  0  0  0  0
  8  9  1  0  0  0  0
M  END
>  <CHROM.1>
112.36567775,179.33465904,165.32184180,70.68101260,64.32721327,15.75429278
22.98417934,14.72728219,-0.05016601,1.10332345,-2.38798323

>  <Name>
ligand

>  <RI>
0

>  <Rbt.Current_Directory>
/home/itssahil/PROJECTS/Mol_Feturizer/New_Systems/rnas/3DIZ

>  <Rbt.Executable>
rbdock ($Id: //depot/dev/client3/rdock/2013.1/src/exe/rbdock.cxx#4 $)

>  <Rbt.Library>
libRbt.so (2013.1, Build901 2013/11/27)

>  <Rbt.Parameter_File>
/export/apps/rDock/src/rDock_2013.1_src/data/scripts/dock_solv.prm

>  <Rbt.Receptor>
prm/blind_docking_40.prm

>  <SCORE>
-2.71835

>  <SCORE.INTER>
-2.77174

>  <SCORE.INTER.CONST>
1

>  <SCORE.INTER.POLAR>
0

>  <SCORE.INTER.ROT>
5

>  <SCORE.INTER.SOLV>
2.56628

>  <SCORE.INTER.VDW>
-9.63659

>  <SCORE.INTER.norm>
-0.277174

>  <SCORE.INTRA>
0.0533922

>  <SCORE.INTRA.DIHEDRAL>
-0.73978

>  <SCORE.INTRA.DIHEDRAL.0>
3.67053

>  <SCORE.INTRA.POLAR>
0

>  <SCORE.INTRA.POLAR.0>
0

>  <SCORE.INTRA.REPUL>
0

>  <SCORE.INTRA.REPUL.0>
0

>  <SCORE.INTRA.SOLV>
-0.3528

>  <SCORE.INTRA.SOLV.lig_0>
-32.0553

>  <SCORE.INTRA.VDW>
0.599682

>  <SCORE.INTRA.VDW.0>
-0.571921

>  <SCORE.INTRA.norm>
0.00533922

>  <SCORE.RESTR>
0

>  <SCORE.RESTR.CAVITY>
0

>  <SCORE.RESTR.norm>
0

>  <SCORE.SYSTEM>
0

>  <SCORE.SYSTEM.CONST>
0

>  <SCORE.SYSTEM.DIHEDRAL>
0

>  <SCORE.SYSTEM.SOLV>
0

>  <SCORE.SYSTEM.norm>
0

>  <SCORE.heavy>
10

>  <SCORE.norm>
-0.271835

>  <RMSD>
17.647

$$$$
ligand
 OpenBabel11021811473D
libRbt.so/2013.1/901 2013/11/27
 10  9  0  0  0  0  0  0  0  0999 V2000
   13.3321   24.2321   11.9862 N   0  0  0  0  0  0  0  0  0  0  0  0
   14.4269   23.6435   12.8148 C   0  0  2  0  0  0  0  0  0  0  0  0
   15.7024   24.4711   12.7286 C   0  0  0  0  0  0  0  0  0  0  0  0
   15.9644   25.3296   13.5639 O   0  0  0  0  0  0  0  0  0  0  0  0
   14.6914   22.1887   12.4189 C   0  0  0  0  0  0  0  0  0  0  0  0
   15.6512   21.4670   13.3493 C   0  0  0  0  0  0  0  0  0  0  0  0
   15.9010   20.0333   12.8979 C   0  0  0  0  0  0  0  0  0  0  0  0
   16.9289   19.3599   13.7923 C   0  0  0  0  0  0  0  0  0  0  0  0
   16.4356   19.1666   15.2023 N   0  0  0  0  0  0  0  0  0  0  0  0
   16.5325   24.2988   11.8463 O   0  0  0  0  0  0  0  0  0  0  0  0
  2  1  1  6  0  0  0
  2  3  1  0  0  0  0
  2  5  1  0  0  0  0
  3  4  1  0  0  0  0
  3 10  1  0  0  0  0
  5  6  1  0  0  0  0
  6  7  1  0  0  0  0
  7  8  1  0  0  0  0
  8  9  1  0  0  0  0
M  END
>  <CHROM.1>
94.82442897,-171.72572248,-178.93588780,176.47243566,66.30444924,15.58215210
22.44817566,13.05647457,1.82825155,-0.43255068,-0.18450893

>  <Name>
ligand

>  <RI>
0

>  <Rbt.Current_Directory>
/home/itssahil/PROJECTS/Mol_Feturizer/New_Systems/rnas/3DIZ

>  <Rbt.Executable>
rbdock ($Id: //depot/dev/client3/rdock/2013.1/src/exe/rbdock.cxx#4 $)

>  <Rbt.Library>
libRbt.so (2013.1, Build901 2013/11/27)

>  <Rbt.Parameter_File>
/export/apps/rDock/src/rDock_2013.1_src/data/scripts/dock_solv.prm

>  <Rbt.Receptor>
prm/blind_docking_40.prm

>  <SCORE>
-3.7021

>  <SCORE.INTER>
-2.53313

>  <SCORE.INTER.CONST>
1

>  <SCORE.INTER.POLAR>
0

>  <SCORE.INTER.ROT>
5

>  <SCORE.INTER.SOLV>
5.45618

>  <SCORE.INTER.VDW>
-10.4408

>  <SCORE.INTER.norm>
-0.253313

>  <SCORE.INTRA>
-1.16896

>  <SCORE.INTRA.DIHEDRAL>
-1.65426

>  <SCORE.INTRA.DIHEDRAL.0>
3.67053

>  <SCORE.INTRA.POLAR>
0

>  <SCORE.INTRA.POLAR.0>
0

>  <SCORE.INTRA.REPUL>
0

>  <SCORE.INTRA.REPUL.0>
0

>  <SCORE.INTRA.SOLV>
-0.865925

>  <SCORE.INTRA.SOLV.lig_0>
-32.0553

>  <SCORE.INTRA.VDW>
0.0911294

>  <SCORE.INTRA.VDW.0>
-0.571921

>  <SCORE.INTRA.norm>
-0.116896

>  <SCORE.RESTR>
0

>  <SCORE.RESTR.CAVITY>
0

>  <SCORE.RESTR.norm>
0

>  <SCORE.SYSTEM>
0

>  <SCORE.SYSTEM.CONST>
0

>  <SCORE.SYSTEM.DIHEDRAL>
0

>  <SCORE.SYSTEM.SOLV>
0

>  <SCORE.SYSTEM.norm>
0

>  <SCORE.heavy>
10

>  <SCORE.norm>
-0.37021

>  <RMSD>
18.314

$$$$
ligand
 OpenBabel11021811473D
libRbt.so/2013.1/901 2013/11/27
 10  9  0  0  0  0  0  0  0  0999 V2000
   17.0558   32.7684   14.9827 N   0  0  0  0  0  0  0  0  0  0  0  0
   17.3589   32.2695   13.6077 C   0  0  2  0  0  0  0  0  0  0  0  0
   17.7592   30.8003   13.6196 C   0  0  0  0  0  0  0  0  0  0  0  0
   17.5624   30.0768   12.6494 O   0  0  0  0  0  0  0  0  0  0  0  0
   18.4389   33.1249   12.9406 C   0  0  0  0  0  0  0  0  0  0  0  0
   18.6189   32.8367   11.4600 C   0  0  0  0  0  0  0  0  0  0  0  0
   19.6392   33.7731   10.8246 C   0  0  0  0  0  0  0  0  0  0  0  0
   19.7040   33.5568    9.3216 C   0  0  0  0  0  0  0  0  0  0  0  0
   20.1633   32.1705    8.9526 N   0  0  0  0  0  0  0  0  0  0  0  0
   18.3182   30.2851   14.5783 O   0  0  0  0  0  0  0  0  0  0  0  0
  2  1  1  1  0  0  0
  2  3  1  0  0  0  0
  2  5  1  0  0  0  0
  3  4  1  0  0  0  0
  3 10  1  0  0  0  0
  5  6  1  0  0  0  0
  6  7  1  0  0  0  0
  7  8  1  0  0  0  0
  8  9  1  0  0  0  0
M  END
>  <CHROM.1>
152.04024879,-169.51595524,176.34630980,-174.53109137,-62.69743500,18.46517716
32.12938592,12.30239080,2.84883421,-1.13628442,-3.07320003

>  <Name>
ligand

>  <RI>
0

>  <Rbt.Current_Directory>
/home/itssahil/PROJECTS/Mol_Feturizer/New_Systems/rnas/3DIZ

>  <Rbt.Executable>
rbdock ($Id: //depot/dev/client3/rdock/2013.1/src/exe/rbdock.cxx#4 $)

>  <Rbt.Library>
libRbt.so (2013.1, Build901 2013/11/27)

>  <Rbt.Parameter_File>
/export/apps/rDock/src/rDock_2013.1_src/data/scripts/dock_solv.prm

>  <Rbt.Receptor>
prm/blind_docking_80.prm

>  <SCORE>
-1.99591

>  <SCORE.INTER>
-0.637055

>  <SCORE.INTER.CONST>
1

>  <SCORE.INTER.POLAR>
0

>  <SCORE.INTER.ROT>
5

>  <SCORE.INTER.SOLV>
4.40701

>  <SCORE.INTER.VDW>
-8.82704

>  <SCORE.INTER.norm>
-0.0637055

>  <SCORE.INTRA>
-1.35885

>  <SCORE.INTRA.DIHEDRAL>
-1.62184

>  <SCORE.INTRA.DIHEDRAL.0>
3.67053

>  <SCORE.INTRA.POLAR>
0

>  <SCORE.INTRA.POLAR.0>
0

>  <SCORE.INTRA.REPUL>
0

>  <SCORE.INTRA.REPUL.0>
0

>  <SCORE.INTRA.SOLV>
-0.795756

>  <SCORE.INTRA.SOLV.lig_0>
-32.0553

>  <SCORE.INTRA.VDW>
-0.150055

>  <SCORE.INTRA.VDW.0>
-0.571921

>  <SCORE.INTRA.norm>
-0.135885

>  <SCORE.RESTR>
0

>  <SCORE.RESTR.CAVITY>
0

>  <SCORE.RESTR.norm>
0

>  <SCORE.SYSTEM>
0

>  <SCORE.SYSTEM.CONST>
0

>  <SCORE.SYSTEM.DIHEDRAL>
0

>  <SCORE.SYSTEM.SOLV>
0

>  <SCORE.SYSTEM.norm>
0

>  <SCORE.heavy>
10

>  <SCORE.norm>
-0.199591

>  <RMSD>
22.208

$$$$
ligand
 OpenBabel11021811473D
libRbt.so/2013.1/901 2013/11/27
 10  9  0  0  0  0  0  0  0  0999 V2000
   16.1882   33.8078   14.3247 N   0  0  0  0  0  0  0  0  0  0  0  0
   17.2180   32.9787   13.6295 C   0  0  2  0  0  0  0  0  0  0  0  0
   18.1860   32.3418   14.6176 C   0  0  0  0  0  0  0  0  0  0  0  0
   18.7150   32.9992   15.5073 O   0  0  0  0  0  0  0  0  0  0  0  0
   17.9700   33.8042   12.5825 C   0  0  0  0  0  0  0  0  0  0  0  0
   18.9510   32.9928   11.7538 C   0  0  0  0  0  0  0  0  0  0  0  0
   19.5812   33.8307   10.6482 C   0  0  0  0  0  0  0  0  0  0  0  0
   20.5351   32.9907    9.8148 C   0  0  0  0  0  0  0  0  0  0  0  0
   21.1081   33.7485    8.6460 N   0  0  0  0  0  0  0  0  0  0  0  0
   18.4556   31.1487   14.5887 O   0  0  0  0  0  0  0  0  0  0  0  0
  2  1  1  1  0  0  0
  2  3  1  0  0  0  0
  2  5  1  0  0  0  0
  3  4  1  0  0  0  0
  3 10  1  0  0  0  0
  5  6  1  0  0  0  0
  6  7  1  0  0  0  0
  7  8  1  0  0  0  0
  8  9  1  0  0  0  0
M  END
>  <CHROM.1>
-48.12484003,-175.03471402,174.95746909,-178.76881397,175.81895126,18.70560932
33.04733356,12.64381174,2.16723011,-0.58529230,2.08598560

>  <Name>
ligand

>  <RI>
0

>  <Rbt.Current_Directory>
/home/itssahil/PROJECTS/Mol_Feturizer/New_Systems/rnas/3DIZ

>  <Rbt.Executable>
rbdock ($Id: //depot/dev/client3/rdock/2013.1/src/exe/rbdock.cxx#4 $)

>  <Rbt.Library>
libRbt.so (2013.1, Build901 2013/11/27)

>  <Rbt.Parameter_File>
/export/apps/rDock/src/rDock_2013.1_src/data/scripts/dock_solv.prm

>  <Rbt.Receptor>
prm/blind_docking_80.prm

>  <SCORE>
-2.89245

>  <SCORE.INTER>
-0.834746

>  <SCORE.INTER.CONST>
1

>  <SCORE.INTER.POLAR>
0

>  <SCORE.INTER.ROT>
5

>  <SCORE.INTER.SOLV>
7.33872

>  <SCORE.INTER.VDW>
-9.93607

>  <SCORE.INTER.norm>
-0.0834746

>  <SCORE.INTRA>
-2.0577

>  <SCORE.INTRA.DIHEDRAL>
-1.87288

>  <SCORE.INTRA.DIHEDRAL.0>
3.67053

>  <SCORE.INTRA.POLAR>
0

>  <SCORE.INTRA.POLAR.0>
0

>  <SCORE.INTRA.REPUL>
0

>  <SCORE.INTRA.REPUL.0>
0

>  <SCORE.INTRA.SOLV>
-1.71147

>  <SCORE.INTRA.SOLV.lig_0>
-32.0553

>  <SCORE.INTRA.VDW>
-0.265527

>  <SCORE.INTRA.VDW.0>
-0.571921

>  <SCORE.INTRA.norm>
-0.20577

>  <SCORE.RESTR>
0

>  <SCORE.RESTR.CAVITY>
0

>  <SCORE.RESTR.norm>
0

>  <SCORE.SYSTEM>
0

>  <SCORE.SYSTEM.CONST>
0

>  <SCORE.SYSTEM.DIHEDRAL>
0

>  <SCORE.SYSTEM.SOLV>
0

>  <SCORE.SYSTEM.norm>
0

>  <SCORE.heavy>
10

>  <SCORE.norm>
-0.289245

>  <RMSD>
22.617

$$$$
ligand
 OpenBabel11021811473D
libRbt.so/2013.1/901 2013/11/27
 10  9  0  0  0  0  0  0  0  0999 V2000
   16.3201   33.5443   20.5590 N   0  0  0  0  0  0  0  0  0  0  0  0
   17.5139   34.3302   20.1247 C   0  0  2  0  0  0  0  0  0  0  0  0
   17.8191   35.4669   21.0911 C   0  0  0  0  0  0  0  0  0  0  0  0
   18.8820   35.5193   21.7002 O   0  0  0  0  0  0  0  0  0  0  0  0
   17.3328   34.8584   18.6994 C   0  0  0  0  0  0  0  0  0  0  0  0
   17.2757   33.7660   17.6454 C   0  0  0  0  0  0  0  0  0  0  0  0
   17.1606   34.3450   16.2408 C   0  0  0  0  0  0  0  0  0  0  0  0
   17.1830   33.2378   15.1997 C   0  0  0  0  0  0  0  0  0  0  0  0
   17.1101   33.7633   13.7900 N   0  0  0  0  0  0  0  0  0  0  0  0
   17.0371   36.3886   21.2807 O   0  0  0  0  0  0  0  0  0  0  0  0
  2  1  1  1  0  0  0
  2  3  1  0  0  0  0
  2  5  1  0  0  0  0
  3  4  1  0  0  0  0
  3 10  1  0  0  0  0
  5  6  1  0  0  0  0
  6  7  1  0  0  0  0
  7  8  1  0  0  0  0
  8  9  1  0  0  0  0
M  END
>  <CHROM.1>
118.52692431,-65.79061639,-177.33020727,176.85604254,-178.40890607,17.37268939
34.55012150,18.66762323,1.40561880,1.00458165,1.44243355

>  <Name>
ligand

>  <RI>
0

>  <Rbt.Current_Directory>
/home/itssahil/PROJECTS/Mol_Feturizer/New_Systems/rnas/3DIZ

>  <Rbt.Executable>
rbdock ($Id: //depot/dev/client3/rdock/2013.1/src/exe/rbdock.cxx#4 $)

>  <Rbt.Library>
libRbt.so (2013.1, Build901 2013/11/27)

>  <Rbt.Parameter_File>
/export/apps/rDock/src/rDock_2013.1_src/data/scripts/dock_solv.prm

>  <Rbt.Receptor>
prm/blind_docking_80.prm

>  <SCORE>
-2.98802

>  <SCORE.INTER>
-1.3063

>  <SCORE.INTER.CONST>
1

>  <SCORE.INTER.POLAR>
0

>  <SCORE.INTER.ROT>
5

>  <SCORE.INTER.SOLV>
5.2401

>  <SCORE.INTER.VDW>
-9.5509

>  <SCORE.INTER.norm>
-0.13063

>  <SCORE.INTRA>
-1.68172

>  <SCORE.INTRA.DIHEDRAL>
-1.9336

>  <SCORE.INTRA.DIHEDRAL.0>
3.67053

>  <SCORE.INTRA.POLAR>
0

>  <SCORE.INTRA.POLAR.0>
0

>  <SCORE.INTRA.REPUL>
0

>  <SCORE.INTRA.REPUL.0>
0

>  <SCORE.INTRA.SOLV>
-0.923024

>  <SCORE.INTRA.SOLV.lig_0>
-32.0553

>  <SCORE.INTRA.VDW>
-0.253402

>  <SCORE.INTRA.VDW.0>
-0.571921

>  <SCORE.INTRA.norm>
-0.168172

>  <SCORE.RESTR>
0

>  <SCORE.RESTR.CAVITY>
0

>  <SCORE.RESTR.norm>
0

>  <SCORE.SYSTEM>
0

>  <SCORE.SYSTEM.CONST>
0

>  <SCORE.SYSTEM.DIHEDRAL>
0

>  <SCORE.SYSTEM.SOLV>
0

>  <SCORE.SYSTEM.norm>
0

>  <SCORE.heavy>
10

>  <SCORE.norm>
-0.298802

>  <RMSD>
22.941

$$$$
ligand
 OpenBabel11021811473D
libRbt.so/2013.1/901 2013/11/27
 10  9  0  0  0  0  0  0  0  0999 V2000
   14.7315   36.1653   20.9151 N   0  0  0  0  0  0  0  0  0  0  0  0
   15.6750   36.3745   19.7760 C   0  0  2  0  0  0  0  0  0  0  0  0
   15.5556   37.7790   19.1994 C   0  0  0  0  0  0  0  0  0  0  0  0
   16.2140   38.7113   19.6474 O   0  0  0  0  0  0  0  0  0  0  0  0
   15.4638   35.3176   18.6890 C   0  0  0  0  0  0  0  0  0  0  0  0
   16.4415   35.4275   17.5316 C   0  0  0  0  0  0  0  0  0  0  0  0
   16.1327   34.4143   16.4363 C   0  0  0  0  0  0  0  0  0  0  0  0
   17.1278   34.5379   15.2941 C   0  0  0  0  0  0  0  0  0  0  0  0
   16.8679   33.5504   14.1868 N   0  0  0  0  0  0  0  0  0  0  0  0
   14.8259   38.0341   18.2511 O   0  0  0  0  0  0  0  0  0  0  0  0
  2  1  1  1  0  0  0
  2  3  1  0  0  0  0
  2  5  1  0  0  0  0
  3  4  1  0  0  0  0
  3 10  1  0  0  0  0
  5  6  1  0  0  0  0
  6  7  1  0  0  0  0
  7  8  1  0  0  0  0
  8  9  1  0  0  0  0
M  END
>  <CHROM.1>
88.20803689,-176.96476041,-176.26217914,-179.67448956,179.72542089,15.89947568
36.06956537,17.98956046,2.37057307,1.23991179,0.15644864

>  <Name>
ligand

>  <RI>
0

>  <Rbt.Current_Directory>
/home/itssahil/PROJECTS/Mol_Feturizer/New_Systems/rnas/3DIZ

>  <Rbt.Executable>
rbdock ($Id: //depot/dev/client3/rdock/2013.1/src/exe/rbdock.cxx#4 $)

>  <Rbt.Library>
libRbt.so (2013.1, Build901 2013/11/27)

>  <Rbt.Parameter_File>
/export/apps/rDock/src/rDock_2013.1_src/data/scripts/dock_solv.prm

>  <Rbt.Receptor>
prm/blind_docking_80.prm

>  <SCORE>
-1.68251

>  <SCORE.INTER>
-0.0379635

>  <SCORE.INTER.CONST>
1

>  <SCORE.INTER.POLAR>
0

>  <SCORE.INTER.ROT>
5

>  <SCORE.INTER.SOLV>
7.60748

>  <SCORE.INTER.VDW>
-9.49447

>  <SCORE.INTER.norm>
-0.00379635

>  <SCORE.INTRA>
-1.64455

>  <SCORE.INTRA.DIHEDRAL>
-2.01921

>  <SCORE.INTRA.DIHEDRAL.0>
3.67053

>  <SCORE.INTRA.POLAR>
0

>  <SCORE.INTRA.POLAR.0>
0

>  <SCORE.INTRA.REPUL>
0

>  <SCORE.INTRA.REPUL.0>
0

>  <SCORE.INTRA.SOLV>
-1.74271

>  <SCORE.INTRA.SOLV.lig_0>
-32.0553

>  <SCORE.INTRA.VDW>
0.236407

>  <SCORE.INTRA.VDW.0>
-0.571921

>  <SCORE.INTRA.norm>
-0.164455

>  <SCORE.RESTR>
0

>  <SCORE.RESTR.CAVITY>
0

>  <SCORE.RESTR.norm>
0

>  <SCORE.SYSTEM>
0

>  <SCORE.SYSTEM.CONST>
0

>  <SCORE.SYSTEM.DIHEDRAL>
0

>  <SCORE.SYSTEM.SOLV>
0

>  <SCORE.SYSTEM.norm>
0

>  <SCORE.heavy>
10

>  <SCORE.norm>
-0.168251

>  <RMSD>
25.116

$$$$
ligand
 OpenBabel11021811473D
libRbt.so/2013.1/901 2013/11/27
 10  9  0  0  0  0  0  0  0  0999 V2000
   13.3724   35.5099   31.3642 N   0  0  0  0  0  0  0  0  0  0  0  0
   14.1614   35.2752   30.1176 C   0  0  2  0  0  0  0  0  0  0  0  0
   13.9824   36.4104   29.1184 C   0  0  0  0  0  0  0  0  0  0  0  0
   13.0855   37.2370   29.2448 O   0  0  0  0  0  0  0  0  0  0  0  0
   13.7993   33.9288   29.4859 C   0  0  0  0  0  0  0  0  0  0  0  0
   14.7139   33.5245   28.3423 C   0  0  0  0  0  0  0  0  0  0  0  0
   14.2886   32.1988   27.7235 C   0  0  0  0  0  0  0  0  0  0  0  0
   15.1821   31.8441   26.5463 C   0  0  0  0  0  0  0  0  0  0  0  0
   14.7656   30.5677   25.8636 N   0  0  0  0  0  0  0  0  0  0  0  0
   14.7368   36.5667   28.1679 O   0  0  0  0  0  0  0  0  0  0  0  0
  2  1  1  1  0  0  0
  2  3  1  0  0  0  0
  2  5  1  0  0  0  0
  3  4  1  0  0  0  0
  3 10  1  0  0  0  0
  5  6  1  0  0  0  0
  6  7  1  0  0  0  0
  7  8  1  0  0  0  0
  8  9  1  0  0  0  0
M  END
>  <CHROM.1>
-13.99733494,-170.86790725,-178.40157361,177.65209527,-177.61459497,14.20410483
34.34227710,28.58219053,2.26566259,1.27200165,-0.10655347

>  <Name>
ligand

>  <RI>
0

>  <Rbt.Current_Directory>
/home/itssahil/PROJECTS/Mol_Feturizer/New_Systems/rnas/3DIZ

>  <Rbt.Executable>
rbdock ($Id: //depot/dev/client3/rdock/2013.1/src/exe/rbdock.cxx#4 $)

>  <Rbt.Library>
libRbt.so (2013.1, Build901 2013/11/27)

>  <Rbt.Parameter_File>
/export/apps/rDock/src/rDock_2013.1_src/data/scripts/dock_solv.prm

>  <Rbt.Receptor>
prm/blind_docking_100.prm

>  <SCORE>
-2.44907

>  <SCORE.INTER>
-0.600607

>  <SCORE.INTER.CONST>
1

>  <SCORE.INTER.POLAR>
0

>  <SCORE.INTER.ROT>
5

>  <SCORE.INTER.SOLV>
5.60498

>  <SCORE.INTER.VDW>
-9.20206

>  <SCORE.INTER.norm>
-0.0600607

>  <SCORE.INTRA>
-1.84846

>  <SCORE.INTRA.DIHEDRAL>
-1.76553

>  <SCORE.INTRA.DIHEDRAL.0>
3.67053

>  <SCORE.INTRA.POLAR>
0

>  <SCORE.INTRA.POLAR.0>
0

>  <SCORE.INTRA.REPUL>
0

>  <SCORE.INTRA.REPUL.0>
0

>  <SCORE.INTRA.SOLV>
-1.69679

>  <SCORE.INTRA.SOLV.lig_0>
-32.0553

>  <SCORE.INTRA.VDW>
-0.1173

>  <SCORE.INTRA.VDW.0>
-0.571921

>  <SCORE.INTRA.norm>
-0.184846

>  <SCORE.RESTR>
0

>  <SCORE.RESTR.CAVITY>
0

>  <SCORE.RESTR.norm>
0

>  <SCORE.SYSTEM>
0

>  <SCORE.SYSTEM.CONST>
0

>  <SCORE.SYSTEM.DIHEDRAL>
0

>  <SCORE.SYSTEM.SOLV>
0

>  <SCORE.SYSTEM.norm>
0

>  <SCORE.heavy>
10

>  <SCORE.norm>
-0.244907

>  <RMSD>
25.885

$$$$
ligand
 OpenBabel11021811473D
libRbt.so/2013.1/901 2013/11/27
 10  9  0  0  0  0  0  0  0  0999 V2000
   13.5402   37.1228   19.4061 N   0  0  0  0  0  0  0  0  0  0  0  0
   14.1575   37.6005   20.6798 C   0  0  2  0  0  0  0  0  0  0  0  0
   13.9210   39.0896   20.8938 C   0  0  0  0  0  0  0  0  0  0  0  0
   14.5708   39.7280   21.7146 O   0  0  0  0  0  0  0  0  0  0  0  0
   15.6522   37.2731   20.7203 C   0  0  0  0  0  0  0  0  0  0  0  0
   15.9497   35.7886   20.8447 C   0  0  0  0  0  0  0  0  0  0  0  0
   17.4295   35.5308   21.0999 C   0  0  0  0  0  0  0  0  0  0  0  0
   17.6808   34.0545   21.3592 C   0  0  0  0  0  0  0  0  0  0  0  0
   17.2715   33.1826   20.2011 N   0  0  0  0  0  0  0  0  0  0  0  0
   13.0995   39.7192   20.2413 O   0  0  0  0  0  0  0  0  0  0  0  0
  2  1  1  6  0  0  0
  2  3  1  0  0  0  0
  2  5  1  0  0  0  0
  3  4  1  0  0  0  0
  3 10  1  0  0  0  0
  5  6  1  0  0  0  0
  6  7  1  0  0  0  0
  7  8  1  0  0  0  0
  8  9  1  0  0  0  0
M  END
>  <CHROM.1>
-164.39614695,-69.04871444,-171.06994332,174.31735562,60.01395246,15.31397272
36.95207559,20.72138147,2.34282341,-0.58577538,0.46843191

>  <Name>
ligand

>  <RI>
0

>  <Rbt.Current_Directory>
/home/itssahil/PROJECTS/Mol_Feturizer/New_Systems/rnas/3DIZ

>  <Rbt.Executable>
rbdock ($Id: //depot/dev/client3/rdock/2013.1/src/exe/rbdock.cxx#4 $)

>  <Rbt.Library>
libRbt.so (2013.1, Build901 2013/11/27)

>  <Rbt.Parameter_File>
/export/apps/rDock/src/rDock_2013.1_src/data/scripts/dock_solv.prm

>  <Rbt.Receptor>
prm/blind_docking_100.prm

>  <SCORE>
-2.80962

>  <SCORE.INTER>
-2.34991

>  <SCORE.INTER.CONST>
1

>  <SCORE.INTER.POLAR>
0

>  <SCORE.INTER.ROT>
5

>  <SCORE.INTER.SOLV>
6.39075

>  <SCORE.INTER.VDW>
-10.6302

>  <SCORE.INTER.norm>
-0.234991

>  <SCORE.INTRA>
-0.459713

>  <SCORE.INTRA.DIHEDRAL>
-1.32729

>  <SCORE.INTRA.DIHEDRAL.0>
3.67053

>  <SCORE.INTRA.POLAR>
0

>  <SCORE.INTRA.POLAR.0>
0

>  <SCORE.INTRA.REPUL>
0

>  <SCORE.INTRA.REPUL.0>
0

>  <SCORE.INTRA.SOLV>
-0.0118067

>  <SCORE.INTRA.SOLV.lig_0>
-32.0553

>  <SCORE.INTRA.VDW>
0.209836

>  <SCORE.INTRA.VDW.0>
-0.571921

>  <SCORE.INTRA.norm>
-0.0459713

>  <SCORE.RESTR>
0

>  <SCORE.RESTR.CAVITY>
0

>  <SCORE.RESTR.norm>
0

>  <SCORE.SYSTEM>
0

>  <SCORE.SYSTEM.CONST>
0

>  <SCORE.SYSTEM.DIHEDRAL>
0

>  <SCORE.SYSTEM.SOLV>
0

>  <SCORE.SYSTEM.norm>
0

>  <SCORE.heavy>
10

>  <SCORE.norm>
-0.280962

>  <RMSD>
26.092

$$$$
ligand
 OpenBabel11021811473D
libRbt.so/2013.1/901 2013/11/27
 10  9  0  0  0  0  0  0  0  0999 V2000
   12.1906   36.6278   16.8033 N   0  0  0  0  0  0  0  0  0  0  0  0
   13.1620   36.3527   17.9044 C   0  0  2  0  0  0  0  0  0  0  0  0
   13.1181   37.4353   18.9745 C   0  0  0  0  0  0  0  0  0  0  0  0
   13.2094   38.6234   18.6852 O   0  0  0  0  0  0  0  0  0  0  0  0
   14.5805   36.1854   17.3539 C   0  0  0  0  0  0  0  0  0  0  0  0
   14.7452   34.9792   16.4454 C   0  0  0  0  0  0  0  0  0  0  0  0
   16.1961   34.7884   16.0211 C   0  0  0  0  0  0  0  0  0  0  0  0
   17.0406   34.3147   17.1927 C   0  0  0  0  0  0  0  0  0  0  0  0
   18.4948   34.1543   16.8343 N   0  0  0  0  0  0  0  0  0  0  0  0
   12.9611   37.1741   20.1595 O   0  0  0  0  0  0  0  0  0  0  0  0
  2  1  1  6  0  0  0
  2  3  1  0  0  0  0
  2  5  1  0  0  0  0
  3  4  1  0  0  0  0
  3 10  1  0  0  0  0
  5  6  1  0  0  0  0
  6  7  1  0  0  0  0
  7  8  1  0  0  0  0
  8  9  1  0  0  0  0
M  END
>  <CHROM.1>
-51.34093730,-64.50079338,-175.10783397,70.94674889,-178.12217080,14.55890414
36.09335989,17.66655775,2.52056335,-0.38422217,1.08252216

>  <Name>
ligand

>  <RI>
0

>  <Rbt.Current_Directory>
/home/itssahil/PROJECTS/Mol_Feturizer/New_Systems/rnas/3DIZ

>  <Rbt.Executable>
rbdock ($Id: //depot/dev/client3/rdock/2013.1/src/exe/rbdock.cxx#4 $)

>  <Rbt.Library>
libRbt.so (2013.1, Build901 2013/11/27)

>  <Rbt.Parameter_File>
/export/apps/rDock/src/rDock_2013.1_src/data/scripts/dock_solv.prm

>  <Rbt.Receptor>
prm/blind_docking_80.prm

>  <SCORE>
81.939

>  <SCORE.INTER>
82.7336

>  <SCORE.INTER.CONST>
1

>  <SCORE.INTER.POLAR>
0

>  <SCORE.INTER.ROT>
5

>  <SCORE.INTER.SOLV>
21.68

>  <SCORE.INTER.VDW>
40.9957

>  <SCORE.INTER.norm>
8.27336

>  <SCORE.INTRA>
-0.794601

>  <SCORE.INTRA.DIHEDRAL>
-1.45407

>  <SCORE.INTRA.DIHEDRAL.0>
3.67053

>  <SCORE.INTRA.POLAR>
0

>  <SCORE.INTRA.POLAR.0>
0

>  <SCORE.INTRA.REPUL>
0

>  <SCORE.INTRA.REPUL.0>
0

>  <SCORE.INTRA.SOLV>
-0.668533

>  <SCORE.INTRA.SOLV.lig_0>
-32.0553

>  <SCORE.INTRA.VDW>
0.266702

>  <SCORE.INTRA.VDW.0>
-0.571921

>  <SCORE.INTRA.norm>
-0.0794601

>  <SCORE.RESTR>
0

>  <SCORE.RESTR.CAVITY>
0

>  <SCORE.RESTR.norm>
0

>  <SCORE.SYSTEM>
0

>  <SCORE.SYSTEM.CONST>
0

>  <SCORE.SYSTEM.DIHEDRAL>
0

>  <SCORE.SYSTEM.SOLV>
0

>  <SCORE.SYSTEM.norm>
0

>  <SCORE.heavy>
10

>  <SCORE.norm>
8.1939

>  <RMSD>
26.095

$$$$
ligand
 OpenBabel11021811473D
libRbt.so/2013.1/901 2013/11/27
 10  9  0  0  0  0  0  0  0  0999 V2000
    7.9194   33.1416   23.4163 N   0  0  0  0  0  0  0  0  0  0  0  0
    8.6301   34.4052   23.0560 C   0  0  2  0  0  0  0  0  0  0  0  0
    7.7182   35.3676   22.3068 C   0  0  0  0  0  0  0  0  0  0  0  0
    7.8037   36.5808   22.4629 O   0  0  0  0  0  0  0  0  0  0  0  0
    9.8958   34.1100   22.2474 C   0  0  0  0  0  0  0  0  0  0  0  0
   10.8342   33.1225   22.9195 C   0  0  0  0  0  0  0  0  0  0  0  0
   12.0659   32.8466   22.0661 C   0  0  0  0  0  0  0  0  0  0  0  0
   12.9498   31.7982   22.7215 C   0  0  0  0  0  0  0  0  0  0  0  0
   14.1673   31.4670   21.8989 N   0  0  0  0  0  0  0  0  0  0  0  0
    6.8852   34.9801   21.4986 O   0  0  0  0  0  0  0  0  0  0  0  0
  2  1  1  6  0  0  0
  2  3  1  0  0  0  0
  2  5  1  0  0  0  0
  3  4  1  0  0  0  0
  3 10  1  0  0  0  0
  5  6  1  0  0  0  0
  6  7  1  0  0  0  0
  7  8  1  0  0  0  0
  8  9  1  0  0  0  0
M  END
>  <CHROM.1>
144.67631947,-53.65659925,179.11467369,-176.79085957,178.68200856,9.85551029
33.81113648,22.44388652,2.65292556,0.24354583,-0.41613371

>  <Name>
ligand

>  <RI>
0

>  <Rbt.Current_Directory>
/home/itssahil/PROJECTS/Mol_Feturizer/New_Systems/rnas/3DIZ

>  <Rbt.Executable>
rbdock ($Id: //depot/dev/client3/rdock/2013.1/src/exe/rbdock.cxx#4 $)

>  <Rbt.Library>
libRbt.so (2013.1, Build901 2013/11/27)

>  <Rbt.Parameter_File>
/export/apps/rDock/src/rDock_2013.1_src/data/scripts/dock_solv.prm

>  <Rbt.Receptor>
prm/blind_docking_60.prm

>  <SCORE>
-2.28107

>  <SCORE.INTER>
-0.711899

>  <SCORE.INTER.CONST>
1

>  <SCORE.INTER.POLAR>
0

>  <SCORE.INTER.ROT>
5

>  <SCORE.INTER.SOLV>
3.86357

>  <SCORE.INTER.VDW>
-8.69579

>  <SCORE.INTER.norm>
-0.0711899

>  <SCORE.INTRA>
-1.56917

>  <SCORE.INTRA.DIHEDRAL>
-2.0299

>  <SCORE.INTRA.DIHEDRAL.0>
3.67053

>  <SCORE.INTRA.POLAR>
0

>  <SCORE.INTRA.POLAR.0>
0

>  <SCORE.INTRA.REPUL>
0

>  <SCORE.INTRA.REPUL.0>
0

>  <SCORE.INTRA.SOLV>
-0.740139

>  <SCORE.INTRA.SOLV.lig_0>
-32.0553

>  <SCORE.INTRA.VDW>
-0.184157

>  <SCORE.INTRA.VDW.0>
-0.571921

>  <SCORE.INTRA.norm>
-0.156917

>  <SCORE.RESTR>
0

>  <SCORE.RESTR.CAVITY>
0

>  <SCORE.RESTR.norm>
0

>  <SCORE.SYSTEM>
0

>  <SCORE.SYSTEM.CONST>
0

>  <SCORE.SYSTEM.DIHEDRAL>
0

>  <SCORE.SYSTEM.SOLV>
0

>  <SCORE.SYSTEM.norm>
0

>  <SCORE.heavy>
10

>  <SCORE.norm>
-0.228107

>  <RMSD>
27.657

$$$$
ligand
 OpenBabel11021811473D
libRbt.so/2013.1/901 2013/11/27
 10  9  0  0  0  0  0  0  0  0999 V2000
   -0.9022   41.2777   10.4103 N   0  0  0  0  0  0  0  0  0  0  0  0
    0.0869   40.7900    9.4027 C   0  0  2  0  0  0  0  0  0  0  0  0
    1.2375   41.7717    9.2254 C   0  0  0  0  0  0  0  0  0  0  0  0
    2.3975   41.3858    9.1308 O   0  0  0  0  0  0  0  0  0  0  0  0
   -0.5945   40.4988    8.0632 C   0  0  0  0  0  0  0  0  0  0  0  0
   -1.6827   39.4424    8.1479 C   0  0  0  0  0  0  0  0  0  0  0  0
   -2.3776   39.2417    6.8069 C   0  0  0  0  0  0  0  0  0  0  0  0
   -3.4592   38.1795    6.9159 C   0  0  0  0  0  0  0  0  0  0  0  0
   -4.5588   38.5647    7.8705 N   0  0  0  0  0  0  0  0  0  0  0  0
    1.0567   42.9788    9.1397 O   0  0  0  0  0  0  0  0  0  0  0  0
  2  1  1  1  0  0  0
  2  3  1  0  0  0  0
  2  5  1  0  0  0  0
  3  4  1  0  0  0  0
  3 10  1  0  0  0  0
  5  6  1  0  0  0  0
  6  7  1  0  0  0  0
  7  8  1  0  0  0  0
  8  9  1  0  0  0  0
M  END
>  <CHROM.1>
137.94815580,-59.89251161,177.02970276,179.88858470,62.75232358,-0.84339244
40.44061445,8.51201683,0.59349234,0.33613409,0.99474039

>  <Name>
ligand

>  <RI>
0

>  <Rbt.Current_Directory>
/home/itssahil/PROJECTS/Mol_Feturizer/New_Systems/rnas/3DIZ

>  <Rbt.Executable>
rbdock ($Id: //depot/dev/client3/rdock/2013.1/src/exe/rbdock.cxx#4 $)

>  <Rbt.Library>
libRbt.so (2013.1, Build901 2013/11/27)

>  <Rbt.Parameter_File>
/export/apps/rDock/src/rDock_2013.1_src/data/scripts/dock_solv.prm

>  <Rbt.Receptor>
prm/blind_docking_100.prm

>  <SCORE>
-6.3075

>  <SCORE.INTER>
-5.13595

>  <SCORE.INTER.CONST>
1

>  <SCORE.INTER.POLAR>
0

>  <SCORE.INTER.ROT>
5

>  <SCORE.INTER.SOLV>
11.5736

>  <SCORE.INTER.VDW>
-14.2152

>  <SCORE.INTER.norm>
-0.513595

>  <SCORE.INTRA>
-1.17155

>  <SCORE.INTRA.DIHEDRAL>
-2.14954

>  <SCORE.INTRA.DIHEDRAL.0>
3.67053

>  <SCORE.INTRA.POLAR>
0

>  <SCORE.INTRA.POLAR.0>
0

>  <SCORE.INTRA.REPUL>
0

>  <SCORE.INTRA.REPUL.0>
0

>  <SCORE.INTRA.SOLV>
0.131795

>  <SCORE.INTRA.SOLV.lig_0>
-32.0553

>  <SCORE.INTRA.VDW>
-0.162678

>  <SCORE.INTRA.VDW.0>
-0.571921

>  <SCORE.INTRA.norm>
-0.117155

>  <SCORE.RESTR>
0

>  <SCORE.RESTR.CAVITY>
0

>  <SCORE.RESTR.norm>
0

>  <SCORE.SYSTEM>
0

>  <SCORE.SYSTEM.CONST>
0

>  <SCORE.SYSTEM.DIHEDRAL>
0

>  <SCORE.SYSTEM.SOLV>
0

>  <SCORE.SYSTEM.norm>
0

>  <SCORE.heavy>
10

>  <SCORE.norm>
-0.63075

>  <RMSD>
41.592

$$$$
ligand
 OpenBabel11021811473D
libRbt.so/2013.1/901 2013/11/27
 10  9  0  0  0  0  0  0  0  0999 V2000
   -4.2396   39.3292   10.3627 N   0  0  0  0  0  0  0  0  0  0  0  0
   -2.8764   39.7746   10.7808 C   0  0  2  0  0  0  0  0  0  0  0  0
   -2.9431   40.9230   11.7788 C   0  0  0  0  0  0  0  0  0  0  0  0
   -2.3703   40.8624   12.8613 O   0  0  0  0  0  0  0  0  0  0  0  0
   -2.0280   40.1556    9.5650 C   0  0  0  0  0  0  0  0  0  0  0  0
   -0.6913   40.7815    9.9243 C   0  0  0  0  0  0  0  0  0  0  0  0
    0.1668   41.0236    8.6888 C   0  0  0  0  0  0  0  0  0  0  0  0
    1.4290   41.7881    9.0527 C   0  0  0  0  0  0  0  0  0  0  0  0
    1.1443   43.1899    9.5246 N   0  0  0  0  0  0  0  0  0  0  0  0
   -3.5411   41.9626   11.5368 O   0  0  0  0  0  0  0  0  0  0  0  0
  2  1  1  6  0  0  0
  2  3  1  0  0  0  0
  2  5  1  0  0  0  0
  3  4  1  0  0  0  0
  3 10  1  0  0  0  0
  5  6  1  0  0  0  0
  6  7  1  0  0  0  0
  7  8  1  0  0  0  0
  8  9  1  0  0  0  0
M  END
>  <CHROM.1>
126.02790019,172.77725785,174.74008237,173.71086182,-66.12974237,-1.60460755
41.00048454,10.43554122,2.98843778,0.54683236,0.89246817

>  <Name>
ligand

>  <RI>
0

>  <Rbt.Current_Directory>
/home/itssahil/PROJECTS/Mol_Feturizer/New_Systems/rnas/3DIZ

>  <Rbt.Executable>
rbdock ($Id: //depot/dev/client3/rdock/2013.1/src/exe/rbdock.cxx#4 $)

>  <Rbt.Library>
libRbt.so (2013.1, Build901 2013/11/27)

>  <Rbt.Parameter_File>
/export/apps/rDock/src/rDock_2013.1_src/data/scripts/dock_solv.prm

>  <Rbt.Receptor>
prm/blind_docking_60.prm

>  <SCORE>
-5.1405

>  <SCORE.INTER>
-4.08881

>  <SCORE.INTER.CONST>
1

>  <SCORE.INTER.POLAR>
0

>  <SCORE.INTER.ROT>
5

>  <SCORE.INTER.SOLV>
8.46931

>  <SCORE.INTER.VDW>
-12.4823

>  <SCORE.INTER.norm>
-0.408881

>  <SCORE.INTRA>
-1.05169

>  <SCORE.INTRA.DIHEDRAL>
-1.54256

>  <SCORE.INTRA.DIHEDRAL.0>
3.67053

>  <SCORE.INTRA.POLAR>
0

>  <SCORE.INTRA.POLAR.0>
0

>  <SCORE.INTRA.REPUL>
0

>  <SCORE.INTRA.REPUL.0>
0

>  <SCORE.INTRA.SOLV>
-0.801613

>  <SCORE.INTRA.SOLV.lig_0>
-32.0553

>  <SCORE.INTRA.VDW>
0.120398

>  <SCORE.INTRA.VDW.0>
-0.571921

>  <SCORE.INTRA.norm>
-0.105169

>  <SCORE.RESTR>
0

>  <SCORE.RESTR.CAVITY>
0

>  <SCORE.RESTR.norm>
0

>  <SCORE.SYSTEM>
0

>  <SCORE.SYSTEM.CONST>
0

>  <SCORE.SYSTEM.DIHEDRAL>
0

>  <SCORE.SYSTEM.SOLV>
0

>  <SCORE.SYSTEM.norm>
0

>  <SCORE.heavy>
10

>  <SCORE.norm>
-0.51405

>  <RMSD>
42.172

$$$$
ligand
 OpenBabel11021811473D
libRbt.so/2013.1/901 2013/11/27
 10  9  0  0  0  0  0  0  0  0999 V2000
   -2.7392   37.8683    7.2811 N   0  0  0  0  0  0  0  0  0  0  0  0
   -4.1484   37.4154    7.4822 C   0  0  2  0  0  0  0  0  0  0  0  0
   -4.5739   36.4156    6.4152 C   0  0  0  0  0  0  0  0  0  0  0  0
   -4.3462   36.6141    5.2268 O   0  0  0  0  0  0  0  0  0  0  0  0
   -5.1061   38.6088    7.5258 C   0  0  0  0  0  0  0  0  0  0  0  0
   -4.8286   39.5738    8.6657 C   0  0  0  0  0  0  0  0  0  0  0  0
   -5.7883   40.7571    8.6473 C   0  0  0  0  0  0  0  0  0  0  0  0
   -5.4940   41.7055    9.7980 C   0  0  0  0  0  0  0  0  0  0  0  0
   -6.3918   42.9149    9.7991 N   0  0  0  0  0  0  0  0  0  0  0  0
   -5.1312   35.3626    6.6942 O   0  0  0  0  0  0  0  0  0  0  0  0
  2  1  1  6  0  0  0
  2  3  1  0  0  0  0
  2  5  1  0  0  0  0
  3  4  1  0  0  0  0
  3 10  1  0  0  0  0
  5  6  1  0  0  0  0
  6  7  1  0  0  0  0
  7  8  1  0  0  0  0
  8  9  1  0  0  0  0
M  END
>  <CHROM.1>
-46.47686993,-61.50492712,178.77717124,179.83643102,178.29733393,-4.86067083
38.68897366,7.72425083,-1.34550772,0.00397144,0.52171139

>  <Name>
ligand

>  <RI>
0

>  <Rbt.Current_Directory>
/home/itssahil/PROJECTS/Mol_Feturizer/New_Systems/rnas/3DIZ

>  <Rbt.Executable>
rbdock ($Id: //depot/dev/client3/rdock/2013.1/src/exe/rbdock.cxx#4 $)

>  <Rbt.Library>
libRbt.so (2013.1, Build901 2013/11/27)

>  <Rbt.Parameter_File>
/export/apps/rDock/src/rDock_2013.1_src/data/scripts/dock_solv.prm

>  <Rbt.Receptor>
prm/blind_docking_100.prm

>  <SCORE>
-4.1067

>  <SCORE.INTER>
-2.36373

>  <SCORE.INTER.CONST>
1

>  <SCORE.INTER.POLAR>
0

>  <SCORE.INTER.ROT>
5

>  <SCORE.INTER.SOLV>
10.4137

>  <SCORE.INTER.VDW>
-11.9804

>  <SCORE.INTER.norm>
-0.236373

>  <SCORE.INTRA>
-1.74297

>  <SCORE.INTRA.DIHEDRAL>
-2.10255

>  <SCORE.INTRA.DIHEDRAL.0>
3.67053

>  <SCORE.INTRA.POLAR>
0

>  <SCORE.INTRA.POLAR.0>
0

>  <SCORE.INTRA.REPUL>
0

>  <SCORE.INTRA.REPUL.0>
0

>  <SCORE.INTRA.SOLV>
-0.825662

>  <SCORE.INTRA.SOLV.lig_0>
-32.0553

>  <SCORE.INTRA.VDW>
-0.278863

>  <SCORE.INTRA.VDW.0>
-0.571921

>  <SCORE.INTRA.norm>
-0.174297

>  <SCORE.RESTR>
0

>  <SCORE.RESTR.CAVITY>
0

>  <SCORE.RESTR.norm>
0

>  <SCORE.SYSTEM>
0

>  <SCORE.SYSTEM.CONST>
0

>  <SCORE.SYSTEM.DIHEDRAL>
0

>  <SCORE.SYSTEM.SOLV>
0

>  <SCORE.SYSTEM.norm>
0

>  <SCORE.heavy>
10

>  <SCORE.norm>
-0.41067

>  <RMSD>
44.182

$$$$
ligand
 OpenBabel11021811473D
libRbt.so/2013.1/901 2013/11/27
 10  9  0  0  0  0  0  0  0  0999 V2000
   -3.9557   37.8927    7.7857 N   0  0  0  0  0  0  0  0  0  0  0  0
   -5.0959   38.3034    8.6590 C   0  0  2  0  0  0  0  0  0  0  0  0
   -5.9964   39.3173    7.9660 C   0  0  0  0  0  0  0  0  0  0  0  0
   -5.5300   40.2634    7.3407 O   0  0  0  0  0  0  0  0  0  0  0  0
   -4.5918   38.8458    9.9987 C   0  0  0  0  0  0  0  0  0  0  0  0
   -5.6945   39.0818   11.0165 C   0  0  0  0  0  0  0  0  0  0  0  0
   -5.1696   39.7863   12.2614 C   0  0  0  0  0  0  0  0  0  0  0  0
   -4.8377   41.2380   11.9575 C   0  0  0  0  0  0  0  0  0  0  0  0
   -4.3958   42.0016   13.1784 N   0  0  0  0  0  0  0  0  0  0  0  0
   -7.2159   39.2194    7.9756 O   0  0  0  0  0  0  0  0  0  0  0  0
  2  1  1  6  0  0  0
  2  3  1  0  0  0  0
  2  5  1  0  0  0  0
  3  4  1  0  0  0  0
  3 10  1  0  0  0  0
  5  6  1  0  0  0  0
  6  7  1  0  0  0  0
  7  8  1  0  0  0  0
  8  9  1  0  0  0  0
M  END
>  <CHROM.1>
-44.27467823,-171.08499386,-172.64853902,71.58559013,176.40390673,-5.27048816
39.61215814,9.78814497,-1.80344752,-0.83220600,0.98596517

>  <Name>
ligand

>  <RI>
0

>  <Rbt.Current_Directory>
/home/itssahil/PROJECTS/Mol_Feturizer/New_Systems/rnas/3DIZ

>  <Rbt.Executable>
rbdock ($Id: //depot/dev/client3/rdock/2013.1/src/exe/rbdock.cxx#4 $)

>  <Rbt.Library>
libRbt.so (2013.1, Build901 2013/11/27)

>  <Rbt.Parameter_File>
/export/apps/rDock/src/rDock_2013.1_src/data/scripts/dock_solv.prm

>  <Rbt.Receptor>
prm/blind_docking_100.prm

>  <SCORE>
-1.09161

>  <SCORE.INTER>
0.0368874

>  <SCORE.INTER.CONST>
1

>  <SCORE.INTER.POLAR>
0

>  <SCORE.INTER.ROT>
5

>  <SCORE.INTER.SOLV>
4.17295

>  <SCORE.INTER.VDW>
-8.29973

>  <SCORE.INTER.norm>
0.00368874

>  <SCORE.INTRA>
-1.12849

>  <SCORE.INTRA.DIHEDRAL>
-1.01979

>  <SCORE.INTRA.DIHEDRAL.0>
3.67053

>  <SCORE.INTRA.POLAR>
0

>  <SCORE.INTRA.POLAR.0>
0

>  <SCORE.INTRA.REPUL>
0

>  <SCORE.INTRA.REPUL.0>
0

>  <SCORE.INTRA.SOLV>
-1.51378

>  <SCORE.INTRA.SOLV.lig_0>
-32.0553

>  <SCORE.INTRA.VDW>
0.138291

>  <SCORE.INTRA.VDW.0>
-0.571921

>  <SCORE.INTRA.norm>
-0.112849

>  <SCORE.RESTR>
0

>  <SCORE.RESTR.CAVITY>
0

>  <SCORE.RESTR.norm>
0

>  <SCORE.SYSTEM>
0

>  <SCORE.SYSTEM.CONST>
0

>  <SCORE.SYSTEM.DIHEDRAL>
0

>  <SCORE.SYSTEM.SOLV>
0

>  <SCORE.SYSTEM.norm>
0

>  <SCORE.heavy>
10

>  <SCORE.norm>
-0.109161

>  <RMSD>
44.390

$$$$
ligand
 OpenBabel11021811473D
libRbt.so/2013.1/901 2013/11/27
 10  9  0  0  0  0  0  0  0  0999 V2000
   -5.1906   40.1917   12.8426 N   0  0  0  0  0  0  0  0  0  0  0  0
   -4.5335   41.2438   12.0103 C   0  0  2  0  0  0  0  0  0  0  0  0
   -4.5429   42.5977   12.7076 C   0  0  0  0  0  0  0  0  0  0  0  0
   -4.1023   43.6018   12.1588 O   0  0  0  0  0  0  0  0  0  0  0  0
   -5.1863   41.3360   10.6288 C   0  0  0  0  0  0  0  0  0  0  0  0
   -5.0721   40.0600    9.8124 C   0  0  0  0  0  0  0  0  0  0  0  0
   -5.6620   40.2297    8.4179 C   0  0  0  0  0  0  0  0  0  0  0  0
   -5.6042   38.9210    7.6472 C   0  0  0  0  0  0  0  0  0  0  0  0
   -4.2044   38.3779    7.5273 N   0  0  0  0  0  0  0  0  0  0  0  0
   -5.0137   42.7511   13.8264 O   0  0  0  0  0  0  0  0  0  0  0  0
  2  1  1  1  0  0  0
  2  3  1  0  0  0  0
  2  5  1  0  0  0  0
  3  4  1  0  0  0  0
  3 10  1  0  0  0  0
  5  6  1  0  0  0  0
  6  7  1  0  0  0  0
  7  8  1  0  0  0  0
  8  9  1  0  0  0  0
M  END
>  <CHROM.1>
-176.73450309,-61.87332633,-176.58152260,-176.95252837,-57.49803224,-4.90935270
40.96826521,10.78378531,1.21845491,1.37351614,1.30824639

>  <Name>
ligand

>  <RI>
0

>  <Rbt.Current_Directory>
/home/itssahil/PROJECTS/Mol_Feturizer/New_Systems/rnas/3DIZ

>  <Rbt.Executable>
rbdock ($Id: //depot/dev/client3/rdock/2013.1/src/exe/rbdock.cxx#4 $)

>  <Rbt.Library>
libRbt.so (2013.1, Build901 2013/11/27)

>  <Rbt.Parameter_File>
/export/apps/rDock/src/rDock_2013.1_src/data/scripts/dock_solv.prm

>  <Rbt.Receptor>
prm/blind_docking_100.prm

>  <SCORE>
-4.05319

>  <SCORE.INTER>
-3.27793

>  <SCORE.INTER.CONST>
1

>  <SCORE.INTER.POLAR>
0

>  <SCORE.INTER.ROT>
5

>  <SCORE.INTER.SOLV>
3.80103

>  <SCORE.INTER.VDW>
-10.3856

>  <SCORE.INTER.norm>
-0.327793

>  <SCORE.INTRA>
-0.777008

>  <SCORE.INTRA.DIHEDRAL>
-2.03334

>  <SCORE.INTRA.DIHEDRAL.0>
3.67053

>  <SCORE.INTRA.POLAR>
0

>  <SCORE.INTRA.POLAR.0>
0

>  <SCORE.INTRA.REPUL>
0

>  <SCORE.INTRA.REPUL.0>
0

>  <SCORE.INTRA.SOLV>
0.152889

>  <SCORE.INTRA.SOLV.lig_0>
-32.0553

>  <SCORE.INTRA.VDW>
0.163216

>  <SCORE.INTRA.VDW.0>
-0.571921

>  <SCORE.INTRA.norm>
-0.0777008

>  <SCORE.RESTR>
0.00175657

>  <SCORE.RESTR.CAVITY>
0.00175657

>  <SCORE.RESTR.norm>
0.000175657

>  <SCORE.SYSTEM>
0

>  <SCORE.SYSTEM.CONST>
0

>  <SCORE.SYSTEM.DIHEDRAL>
0

>  <SCORE.SYSTEM.SOLV>
0

>  <SCORE.SYSTEM.norm>
0

>  <SCORE.heavy>
10

>  <SCORE.norm>
-0.405319

>  <RMSD>
44.496

$$$$
ligand
 OpenBabel11021811473D
libRbt.so/2013.1/901 2013/11/27
 10  9  0  0  0  0  0  0  0  0999 V2000
   -5.5753   40.8637   11.0217 N   0  0  0  0  0  0  0  0  0  0  0  0
   -5.4097   41.5827    9.7228 C   0  0  2  0  0  0  0  0  0  0  0  0
   -6.1659   42.9045    9.7130 C   0  0  0  0  0  0  0  0  0  0  0  0
   -5.5813   43.9756    9.8337 O   0  0  0  0  0  0  0  0  0  0  0  0
   -5.8390   40.6987    8.5492 C   0  0  0  0  0  0  0  0  0  0  0  0
   -4.9874   39.4523    8.3793 C   0  0  0  0  0  0  0  0  0  0  0  0
   -5.3188   38.3974    9.4275 C   0  0  0  0  0  0  0  0  0  0  0  0
   -4.4515   37.1633    9.2407 C   0  0  0  0  0  0  0  0  0  0  0  0
   -4.7699   36.0733   10.2303 N   0  0  0  0  0  0  0  0  0  0  0  0
   -7.3779   42.9607    9.5555 O   0  0  0  0  0  0  0  0  0  0  0  0
  2  1  1  1  0  0  0
  2  3  1  0  0  0  0
  2  5  1  0  0  0  0
  3  4  1  0  0  0  0
  3 10  1  0  0  0  0
  5  6  1  0  0  0  0
  6  7  1  0  0  0  0
  7  8  1  0  0  0  0
  8  9  1  0  0  0  0
M  END
>  <CHROM.1>
104.28333963,-63.65020197,75.34698849,-179.78265671,-178.32608519,-5.56597573
40.44927627,9.56742379,-3.05132728,1.33135860,-1.63793987

>  <Name>
ligand

>  <RI>
0

>  <Rbt.Current_Directory>
/home/itssahil/PROJECTS/Mol_Feturizer/New_Systems/rnas/3DIZ

>  <Rbt.Executable>
rbdock ($Id: //depot/dev/client3/rdock/2013.1/src/exe/rbdock.cxx#4 $)

>  <Rbt.Library>
libRbt.so (2013.1, Build901 2013/11/27)

>  <Rbt.Parameter_File>
/export/apps/rDock/src/rDock_2013.1_src/data/scripts/dock_solv.prm

>  <Rbt.Receptor>
prm/blind_docking_100.prm

>  <SCORE>
-3.95977

>  <SCORE.INTER>
-3.85653

>  <SCORE.INTER.CONST>
1

>  <SCORE.INTER.POLAR>
0

>  <SCORE.INTER.ROT>
5

>  <SCORE.INTER.SOLV>
3.58456

>  <SCORE.INTER.VDW>
-10.6992

>  <SCORE.INTER.norm>
-0.385653

>  <SCORE.INTRA>
-0.10324

>  <SCORE.INTRA.DIHEDRAL>
-1.1126

>  <SCORE.INTRA.DIHEDRAL.0>
3.67053

>  <SCORE.INTRA.POLAR>
0

>  <SCORE.INTRA.POLAR.0>
0

>  <SCORE.INTRA.REPUL>
0

>  <SCORE.INTRA.REPUL.0>
0

>  <SCORE.INTRA.SOLV>
0.550329

>  <SCORE.INTRA.SOLV.lig_0>
-32.0553

>  <SCORE.INTRA.VDW>
0.177896

>  <SCORE.INTRA.VDW.0>
-0.571921

>  <SCORE.INTRA.norm>
-0.010324

>  <SCORE.RESTR>
0

>  <SCORE.RESTR.CAVITY>
0

>  <SCORE.RESTR.norm>
0

>  <SCORE.SYSTEM>
0

>  <SCORE.SYSTEM.CONST>
0

>  <SCORE.SYSTEM.DIHEDRAL>
0

>  <SCORE.SYSTEM.SOLV>
0

>  <SCORE.SYSTEM.norm>
0

>  <SCORE.heavy>
10

>  <SCORE.norm>
-0.395977

>  <RMSD>
45.050

$$$$
ligand
 OpenBabel11021811473D
libRbt.so/2013.1/901 2013/11/27
 10  9  0  0  0  0  0  0  0  0999 V2000
   -5.5501   41.0517   11.0306 N   0  0  0  0  0  0  0  0  0  0  0  0
   -5.4258   41.6176    9.6538 C   0  0  2  0  0  0  0  0  0  0  0  0
   -6.2900   42.8591    9.4775 C   0  0  0  0  0  0  0  0  0  0  0  0
   -5.8544   43.9798    9.7177 O   0  0  0  0  0  0  0  0  0  0  0  0
   -5.7616   40.5632    8.5961 C   0  0  0  0  0  0  0  0  0  0  0  0
   -4.7584   39.4245    8.5282 C   0  0  0  0  0  0  0  0  0  0  0  0
   -5.1056   38.4340    7.4237 C   0  0  0  0  0  0  0  0  0  0  0  0
   -4.0602   37.3339    7.3405 C   0  0  0  0  0  0  0  0  0  0  0  0
   -4.0515   36.4464    8.5575 N   0  0  0  0  0  0  0  0  0  0  0  0
   -7.4396   42.7992    9.0629 O   0  0  0  0  0  0  0  0  0  0  0  0
  2  1  1  1  0  0  0
  2  3  1  0  0  0  0
  2  5  1  0  0  0  0
  3  4  1  0  0  0  0
  3 10  1  0  0  0  0
  5  6  1  0  0  0  0
  6  7  1  0  0  0  0
  7  8  1  0  0  0  0
  8  9  1  0  0  0  0
M  END
>  <CHROM.1>
90.24680324,-67.16510554,-177.64795637,177.84119561,66.75489754,-5.45166130
40.49084264,8.93840386,-2.28791242,1.05728686,-2.19304992

>  <Name>
ligand

>  <RI>
0

>  <Rbt.Current_Directory>
/home/itssahil/PROJECTS/Mol_Feturizer/New_Systems/rnas/3DIZ

>  <Rbt.Executable>
rbdock ($Id: //depot/dev/client3/rdock/2013.1/src/exe/rbdock.cxx#4 $)

>  <Rbt.Library>
libRbt.so (2013.1, Build901 2013/11/27)

>  <Rbt.Parameter_File>
/export/apps/rDock/src/rDock_2013.1_src/data/scripts/dock_solv.prm

>  <Rbt.Receptor>
prm/blind_docking_100.prm

>  <SCORE>
-5.98937

>  <SCORE.INTER>
-5.25523

>  <SCORE.INTER.CONST>
1

>  <SCORE.INTER.POLAR>
0

>  <SCORE.INTER.ROT>
5

>  <SCORE.INTER.SOLV>
4.36142

>  <SCORE.INTER.VDW>
-11.8906

>  <SCORE.INTER.norm>
-0.525523

>  <SCORE.INTRA>
-0.734149

>  <SCORE.INTRA.DIHEDRAL>
-1.67731

>  <SCORE.INTRA.DIHEDRAL.0>
3.67053

>  <SCORE.INTRA.POLAR>
0

>  <SCORE.INTRA.POLAR.0>
0

>  <SCORE.INTRA.REPUL>
0

>  <SCORE.INTRA.REPUL.0>
0

>  <SCORE.INTRA.SOLV>
-0.0724353

>  <SCORE.INTRA.SOLV.lig_0>
-32.0553

>  <SCORE.INTRA.VDW>
0.140724

>  <SCORE.INTRA.VDW.0>
-0.571921

>  <SCORE.INTRA.norm>
-0.0734149

>  <SCORE.RESTR>
0

>  <SCORE.RESTR.CAVITY>
0

>  <SCORE.RESTR.norm>
0

>  <SCORE.SYSTEM>
0

>  <SCORE.SYSTEM.CONST>
0

>  <SCORE.SYSTEM.DIHEDRAL>
0

>  <SCORE.SYSTEM.SOLV>
0

>  <SCORE.SYSTEM.norm>
0

>  <SCORE.heavy>
10

>  <SCORE.norm>
-0.598937

>  <RMSD>
45.153

$$$$
ligand
 OpenBabel11021811473D
libRbt.so/2013.1/901 2013/11/27
 10  9  0  0  0  0  0  0  0  0999 V2000
    1.8205   48.8384    2.7517 N   0  0  0  0  0  0  0  0  0  0  0  0
    0.9225   47.6908    3.0805 C   0  0  2  0  0  0  0  0  0  0  0  0
    1.6544   46.3591    2.9799 C   0  0  0  0  0  0  0  0  0  0  0  0
    1.3516   45.4085    3.6927 O   0  0  0  0  0  0  0  0  0  0  0  0
   -0.3235   47.6983    2.1914 C   0  0  0  0  0  0  0  0  0  0  0  0
   -0.0229   47.4968    0.7161 C   0  0  0  0  0  0  0  0  0  0  0  0
   -1.2508   47.7537   -0.1485 C   0  0  0  0  0  0  0  0  0  0  0  0
   -2.3214   46.7073    0.1142 C   0  0  0  0  0  0  0  0  0  0  0  0
   -3.5939   46.9732   -0.6466 N   0  0  0  0  0  0  0  0  0  0  0  0
    2.5507   46.1679    2.1693 O   0  0  0  0  0  0  0  0  0  0  0  0
  2  1  1  6  0  0  0
  2  3  1  0  0  0  0
  2  5  1  0  0  0  0
  3  4  1  0  0  0  0
  3 10  1  0  0  0  0
  5  6  1  0  0  0  0
  6  7  1  0  0  0  0
  7  8  1  0  0  0  0
  8  9  1  0  0  0  0
M  END
>  <CHROM.1>
148.98212821,63.99996888,-170.01771511,-66.51253617,175.99132782,0.10280527
47.07881931,1.69659329,-0.22080215,-0.61270312,-0.23638513

>  <Name>
ligand

>  <RI>
0

>  <Rbt.Current_Directory>
/home/itssahil/PROJECTS/Mol_Feturizer/New_Systems/rnas/3DIZ

>  <Rbt.Executable>
rbdock ($Id: //depot/dev/client3/rdock/2013.1/src/exe/rbdock.cxx#4 $)

>  <Rbt.Library>
libRbt.so (2013.1, Build901 2013/11/27)

>  <Rbt.Parameter_File>
/export/apps/rDock/src/rDock_2013.1_src/data/scripts/dock_solv.prm

>  <Rbt.Receptor>
prm/blind_docking_100.prm

>  <SCORE>
-6.87458

>  <SCORE.INTER>
-6.43487

>  <SCORE.INTER.CONST>
1

>  <SCORE.INTER.POLAR>
0

>  <SCORE.INTER.ROT>
5

>  <SCORE.INTER.SOLV>
8.31

>  <SCORE.INTER.VDW>
-13.9932

>  <SCORE.INTER.norm>
-0.643487

>  <SCORE.INTRA>
-0.439712

>  <SCORE.INTRA.DIHEDRAL>
-1.53019

>  <SCORE.INTRA.DIHEDRAL.0>
3.67053

>  <SCORE.INTRA.POLAR>
0

>  <SCORE.INTRA.POLAR.0>
0

>  <SCORE.INTRA.REPUL>
0

>  <SCORE.INTRA.REPUL.0>
0

>  <SCORE.INTRA.SOLV>
-0.555868

>  <SCORE.INTRA.SOLV.lig_0>
-32.0553

>  <SCORE.INTRA.VDW>
0.603319

>  <SCORE.INTRA.VDW.0>
-0.571921

>  <SCORE.INTRA.norm>
-0.0439712

>  <SCORE.RESTR>
0

>  <SCORE.RESTR.CAVITY>
0

>  <SCORE.RESTR.norm>
0

>  <SCORE.SYSTEM>
0

>  <SCORE.SYSTEM.CONST>
0

>  <SCORE.SYSTEM.DIHEDRAL>
0

>  <SCORE.SYSTEM.SOLV>
0

>  <SCORE.SYSTEM.norm>
0

>  <SCORE.heavy>
10

>  <SCORE.norm>
-0.687458

>  <RMSD>
47.502

$$$$
ligand
 OpenBabel11021811473D
libRbt.so/2013.1/901 2013/11/27
 10  9  0  0  0  0  0  0  0  0999 V2000
    1.6646   49.1948    4.1547 N   0  0  0  0  0  0  0  0  0  0  0  0
    0.7094   48.2237    3.5415 C   0  0  2  0  0  0  0  0  0  0  0  0
    1.4315   47.0088    2.9743 C   0  0  0  0  0  0  0  0  0  0  0  0
    2.2893   47.1236    2.1057 O   0  0  0  0  0  0  0  0  0  0  0  0
   -0.1467   48.9010    2.4684 C   0  0  0  0  0  0  0  0  0  0  0  0
   -1.1839   47.9831    1.8446 C   0  0  0  0  0  0  0  0  0  0  0  0
   -0.5722   47.0889    0.7733 C   0  0  0  0  0  0  0  0  0  0  0  0
   -1.6375   46.2179    0.1280 C   0  0  0  0  0  0  0  0  0  0  0  0
   -2.7031   47.0225   -0.5690 N   0  0  0  0  0  0  0  0  0  0  0  0
    1.2127   45.8742    3.3767 O   0  0  0  0  0  0  0  0  0  0  0  0
  2  1  1  6  0  0  0
  2  3  1  0  0  0  0
  2  5  1  0  0  0  0
  3  4  1  0  0  0  0
  3 10  1  0  0  0  0
  5  6  1  0  0  0  0
  6  7  1  0  0  0  0
  7  8  1  0  0  0  0
  8  9  1  0  0  0  0
M  END
>  <CHROM.1>
-58.95906575,-177.48059605,-80.53888966,-177.86430636,61.72902355,0.12931902
47.43776153,2.07519209,0.51984967,-0.61798603,0.50685361

>  <Name>
ligand

>  <RI>
0

>  <Rbt.Current_Directory>
/home/itssahil/PROJECTS/Mol_Feturizer/New_Systems/rnas/3DIZ

>  <Rbt.Executable>
rbdock ($Id: //depot/dev/client3/rdock/2013.1/src/exe/rbdock.cxx#4 $)

>  <Rbt.Library>
libRbt.so (2013.1, Build901 2013/11/27)

>  <Rbt.Parameter_File>
/export/apps/rDock/src/rDock_2013.1_src/data/scripts/dock_solv.prm

>  <Rbt.Receptor>
prm/blind_docking_80.prm

>  <SCORE>
-5.57513

>  <SCORE.INTER>
-5.20078

>  <SCORE.INTER.CONST>
1

>  <SCORE.INTER.POLAR>
0

>  <SCORE.INTER.ROT>
5

>  <SCORE.INTER.SOLV>
11.1967

>  <SCORE.INTER.VDW>
-14.1327

>  <SCORE.INTER.norm>
-0.520078

>  <SCORE.INTRA>
-0.374354

>  <SCORE.INTRA.DIHEDRAL>
-0.514926

>  <SCORE.INTRA.DIHEDRAL.0>
3.67053

>  <SCORE.INTRA.POLAR>
0

>  <SCORE.INTRA.POLAR.0>
0

>  <SCORE.INTRA.REPUL>
0

>  <SCORE.INTRA.REPUL.0>
0

>  <SCORE.INTRA.SOLV>
-0.635558

>  <SCORE.INTRA.SOLV.lig_0>
-32.0553

>  <SCORE.INTRA.VDW>
0.200888

>  <SCORE.INTRA.VDW.0>
-0.571921

>  <SCORE.INTRA.norm>
-0.0374354

>  <SCORE.RESTR>
0

>  <SCORE.RESTR.CAVITY>
0

>  <SCORE.RESTR.norm>
0

>  <SCORE.SYSTEM>
0

>  <SCORE.SYSTEM.CONST>
0

>  <SCORE.SYSTEM.DIHEDRAL>
0

>  <SCORE.SYSTEM.SOLV>
0

>  <SCORE.SYSTEM.norm>
0

>  <SCORE.heavy>
10

>  <SCORE.norm>
-0.557513

>  <RMSD>
47.565

$$$$
ligand
 OpenBabel11021811473D
libRbt.so/2013.1/901 2013/11/27
 10  9  0  0  0  0  0  0  0  0999 V2000
    2.2846   48.9950    2.1764 N   0  0  0  0  0  0  0  0  0  0  0  0
    1.2747   47.8994    2.2824 C   0  0  2  0  0  0  0  0  0  0  0  0
    1.9361   46.5470    2.5120 C   0  0  0  0  0  0  0  0  0  0  0  0
    1.5729   45.8039    3.4172 O   0  0  0  0  0  0  0  0  0  0  0  0
    0.3734   47.8641    1.0457 C   0  0  0  0  0  0  0  0  0  0  0  0
   -0.9114   47.0791    1.2479 C   0  0  0  0  0  0  0  0  0  0  0  0
   -1.7418   47.0208   -0.0282 C   0  0  0  0  0  0  0  0  0  0  0  0
   -3.1956   46.7129    0.2904 C   0  0  0  0  0  0  0  0  0  0  0  0
   -3.8700   47.8196    1.0580 N   0  0  0  0  0  0  0  0  0  0  0  0
    2.8329   46.1297    1.7919 O   0  0  0  0  0  0  0  0  0  0  0  0
  2  1  1  6  0  0  0
  2  3  1  0  0  0  0
  2  5  1  0  0  0  0
  3  4  1  0  0  0  0
  3 10  1  0  0  0  0
  5  6  1  0  0  0  0
  6  7  1  0  0  0  0
  7  8  1  0  0  0  0
  8  9  1  0  0  0  0
M  END
>  <CHROM.1>
129.54910975,-162.71315517,-177.41387133,-158.90195995,66.25836096,0.08028248
47.15673026,1.58966644,-0.13669825,-0.32356294,-0.24176699

>  <Name>
ligand

>  <RI>
0

>  <Rbt.Current_Directory>
/home/itssahil/PROJECTS/Mol_Feturizer/New_Systems/rnas/3DIZ

>  <Rbt.Executable>
rbdock ($Id: //depot/dev/client3/rdock/2013.1/src/exe/rbdock.cxx#4 $)

>  <Rbt.Library>
libRbt.so (2013.1, Build901 2013/11/27)

>  <Rbt.Parameter_File>
/export/apps/rDock/src/rDock_2013.1_src/data/scripts/dock_solv.prm

>  <Rbt.Receptor>
prm/blind_docking_100.prm

>  <SCORE>
-6.50603

>  <SCORE.INTER>
-6.1803

>  <SCORE.INTER.CONST>
1

>  <SCORE.INTER.POLAR>
0

>  <SCORE.INTER.ROT>
5

>  <SCORE.INTER.SOLV>
7.91134

>  <SCORE.INTER.VDW>
-13.6906

>  <SCORE.INTER.norm>
-0.61803

>  <SCORE.INTRA>
-0.325726

>  <SCORE.INTRA.DIHEDRAL>
0.732646

>  <SCORE.INTRA.DIHEDRAL.0>
3.67053

>  <SCORE.INTRA.POLAR>
0

>  <SCORE.INTRA.POLAR.0>
0

>  <SCORE.INTRA.REPUL>
0

>  <SCORE.INTRA.REPUL.0>
0

>  <SCORE.INTRA.SOLV>
-0.671567

>  <SCORE.INTRA.SOLV.lig_0>
-32.0553

>  <SCORE.INTRA.VDW>
-0.356266

>  <SCORE.INTRA.VDW.0>
-0.571921

>  <SCORE.INTRA.norm>
-0.0325726

>  <SCORE.RESTR>
0

>  <SCORE.RESTR.CAVITY>
0

>  <SCORE.RESTR.norm>
0

>  <SCORE.SYSTEM>
0

>  <SCORE.SYSTEM.CONST>
0

>  <SCORE.SYSTEM.DIHEDRAL>
0

>  <SCORE.SYSTEM.SOLV>
0

>  <SCORE.SYSTEM.norm>
0

>  <SCORE.heavy>
10

>  <SCORE.norm>
-0.650603

>  <RMSD>
47.605

$$$$
ligand
 OpenBabel11021811473D
libRbt.so/2013.1/901 2013/11/27
 10  9  0  0  0  0  0  0  0  0999 V2000
    0.8492   48.7008    2.8808 N   0  0  0  0  0  0  0  0  0  0  0  0
    0.6069   47.2293    2.7953 C   0  0  2  0  0  0  0  0  0  0  0  0
    1.8643   46.4340    3.1202 C   0  0  0  0  0  0  0  0  0  0  0  0
    2.7992   46.3662    2.3297 O   0  0  0  0  0  0  0  0  0  0  0  0
    0.0566   46.8440    1.4199 C   0  0  0  0  0  0  0  0  0  0  0  0
   -1.3933   47.2444    1.2076 C   0  0  0  0  0  0  0  0  0  0  0  0
   -1.9351   46.7156   -0.1147 C   0  0  0  0  0  0  0  0  0  0  0  0
   -3.4033   47.0742   -0.2756 C   0  0  0  0  0  0  0  0  0  0  0  0
   -3.9569   46.6712   -1.6172 N   0  0  0  0  0  0  0  0  0  0  0  0
    2.0114   45.8553    4.1881 O   0  0  0  0  0  0  0  0  0  0  0  0
  2  1  1  6  0  0  0
  2  3  1  0  0  0  0
  2  5  1  0  0  0  0
  3  4  1  0  0  0  0
  3 10  1  0  0  0  0
  5  6  1  0  0  0  0
  6  7  1  0  0  0  0
  7  8  1  0  0  0  0
  8  9  1  0  0  0  0
M  END
>  <CHROM.1>
-73.58816620,-73.64299424,-174.18509212,177.42101832,175.32519807,-0.21180339
46.89544028,1.60984909,0.27097170,-0.59741664,0.52521327

>  <Name>
ligand

>  <RI>
0

>  <Rbt.Current_Directory>
/home/itssahil/PROJECTS/Mol_Feturizer/New_Systems/rnas/3DIZ

>  <Rbt.Executable>
rbdock ($Id: //depot/dev/client3/rdock/2013.1/src/exe/rbdock.cxx#4 $)

>  <Rbt.Library>
libRbt.so (2013.1, Build901 2013/11/27)

>  <Rbt.Parameter_File>
/export/apps/rDock/src/rDock_2013.1_src/data/scripts/dock_solv.prm

>  <Rbt.Receptor>
prm/blind_docking_100.prm

>  <SCORE>
-7.76051

>  <SCORE.INTER>
-6.4424

>  <SCORE.INTER.CONST>
1

>  <SCORE.INTER.POLAR>
0

>  <SCORE.INTER.ROT>
5

>  <SCORE.INTER.SOLV>
11.0866

>  <SCORE.INTER.VDW>
-14.9238

>  <SCORE.INTER.norm>
-0.64424

>  <SCORE.INTRA>
-1.31811

>  <SCORE.INTRA.DIHEDRAL>
-1.22928

>  <SCORE.INTRA.DIHEDRAL.0>
3.67053

>  <SCORE.INTRA.POLAR>
0

>  <SCORE.INTRA.POLAR.0>
0

>  <SCORE.INTRA.REPUL>
0

>  <SCORE.INTRA.REPUL.0>
0

>  <SCORE.INTRA.SOLV>
-1.029

>  <SCORE.INTRA.SOLV.lig_0>
-32.0553

>  <SCORE.INTRA.VDW>
-0.188967

>  <SCORE.INTRA.VDW.0>
-0.571921

>  <SCORE.INTRA.norm>
-0.131811

>  <SCORE.RESTR>
0

>  <SCORE.RESTR.CAVITY>
0

>  <SCORE.RESTR.norm>
0

>  <SCORE.SYSTEM>
0

>  <SCORE.SYSTEM.CONST>
0

>  <SCORE.SYSTEM.DIHEDRAL>
0

>  <SCORE.SYSTEM.SOLV>
0

>  <SCORE.SYSTEM.norm>
0

>  <SCORE.heavy>
10

>  <SCORE.norm>
-0.776051

>  <RMSD>
47.616

$$$$
ligand
 OpenBabel11021811473D
libRbt.so/2013.1/901 2013/11/27
 10  9  0  0  0  0  0  0  0  0999 V2000
    1.3916   48.8663    2.2110 N   0  0  0  0  0  0  0  0  0  0  0  0
    0.7341   47.6721    2.8219 C   0  0  2  0  0  0  0  0  0  0  0  0
    1.6816   46.4817    2.8865 C   0  0  0  0  0  0  0  0  0  0  0  0
    1.5614   45.6157    3.7462 O   0  0  0  0  0  0  0  0  0  0  0  0
   -0.5491   47.3092    2.0703 C   0  0  0  0  0  0  0  0  0  0  0  0
   -0.3255   46.9740    0.6056 C   0  0  0  0  0  0  0  0  0  0  0  0
   -1.6070   46.4924   -0.0632 C   0  0  0  0  0  0  0  0  0  0  0  0
   -2.6261   47.6170   -0.1444 C   0  0  0  0  0  0  0  0  0  0  0  0
   -3.9134   47.1893   -0.7991 N   0  0  0  0  0  0  0  0  0  0  0  0
    2.5807   46.3197    2.0726 O   0  0  0  0  0  0  0  0  0  0  0  0
  2  1  1  6  0  0  0
  2  3  1  0  0  0  0
  2  5  1  0  0  0  0
  3  4  1  0  0  0  0
  3 10  1  0  0  0  0
  5  6  1  0  0  0  0
  6  7  1  0  0  0  0
  7  8  1  0  0  0  0
  8  9  1  0  0  0  0
M  END
>  <CHROM.1>
152.29322456,60.06057426,174.55830288,66.90965649,-179.98314594,-0.07750115
47.02685418,1.55084569,-0.13679005,-0.60038459,-0.07410009

>  <Name>
ligand

>  <RI>
0

>  <Rbt.Current_Directory>
/home/itssahil/PROJECTS/Mol_Feturizer/New_Systems/rnas/3DIZ

>  <Rbt.Executable>
rbdock ($Id: //depot/dev/client3/rdock/2013.1/src/exe/rbdock.cxx#4 $)

>  <Rbt.Library>
libRbt.so (2013.1, Build901 2013/11/27)

>  <Rbt.Parameter_File>
/export/apps/rDock/src/rDock_2013.1_src/data/scripts/dock_solv.prm

>  <Rbt.Receptor>
prm/blind_docking_100.prm

>  <SCORE>
-8.113

>  <SCORE.INTER>
-7.37128

>  <SCORE.INTER.CONST>
1

>  <SCORE.INTER.POLAR>
0

>  <SCORE.INTER.ROT>
5

>  <SCORE.INTER.SOLV>
6.61872

>  <SCORE.INTER.VDW>
-14.0538

>  <SCORE.INTER.norm>
-0.737128

>  <SCORE.INTRA>
-0.741726

>  <SCORE.INTRA.DIHEDRAL>
-1.90852

>  <SCORE.INTRA.DIHEDRAL.0>
3.67053

>  <SCORE.INTRA.POLAR>
0

>  <SCORE.INTRA.POLAR.0>
0

>  <SCORE.INTRA.REPUL>
0

>  <SCORE.INTRA.REPUL.0>
0

>  <SCORE.INTRA.SOLV>
-0.611739

>  <SCORE.INTRA.SOLV.lig_0>
-32.0553

>  <SCORE.INTRA.VDW>
0.518403

>  <SCORE.INTRA.VDW.0>
-0.571921

>  <SCORE.INTRA.norm>
-0.0741726

>  <SCORE.RESTR>
0

>  <SCORE.RESTR.CAVITY>
0

>  <SCORE.RESTR.norm>
0

>  <SCORE.SYSTEM>
0

>  <SCORE.SYSTEM.CONST>
0

>  <SCORE.SYSTEM.DIHEDRAL>
0

>  <SCORE.SYSTEM.SOLV>
0

>  <SCORE.SYSTEM.norm>
0

>  <SCORE.heavy>
10

>  <SCORE.norm>
-0.8113

>  <RMSD>
47.638

$$$$
ligand
 OpenBabel11021811473D
libRbt.so/2013.1/901 2013/11/27
 10  9  0  0  0  0  0  0  0  0999 V2000
    2.5080   48.2760    1.8968 N   0  0  0  0  0  0  0  0  0  0  0  0
    1.1454   47.8093    2.2929 C   0  0  2  0  0  0  0  0  0  0  0  0
    1.2078   46.7925    3.4249 C   0  0  0  0  0  0  0  0  0  0  0  0
    1.3955   47.1398    4.5858 O   0  0  0  0  0  0  0  0  0  0  0  0
    0.3897   47.2413    1.0890 C   0  0  0  0  0  0  0  0  0  0  0  0
   -1.1000   47.0663    1.3294 C   0  0  0  0  0  0  0  0  0  0  0  0
   -1.8411   46.7241    0.0429 C   0  0  0  0  0  0  0  0  0  0  0  0
   -3.3438   46.8325    0.2434 C   0  0  0  0  0  0  0  0  0  0  0  0
   -4.1118   46.7323   -1.0485 N   0  0  0  0  0  0  0  0  0  0  0  0
    1.0451   45.5949    3.2346 O   0  0  0  0  0  0  0  0  0  0  0  0
  2  1  1  6  0  0  0
  2  3  1  0  0  0  0
  2  5  1  0  0  0  0
  3  4  1  0  0  0  0
  3 10  1  0  0  0  0
  5  6  1  0  0  0  0
  6  7  1  0  0  0  0
  7  8  1  0  0  0  0
  8  9  1  0  0  0  0
M  END
>  <CHROM.1>
77.71085044,-165.73781408,170.45506113,-168.44352524,170.33704500,-0.25990793
47.00012370,1.74234371,-0.51291923,-0.41250092,-1.04529540

>  <Name>
ligand

>  <RI>
0

>  <Rbt.Current_Directory>
/home/itssahil/PROJECTS/Mol_Feturizer/New_Systems/rnas/3DIZ

>  <Rbt.Executable>
rbdock ($Id: //depot/dev/client3/rdock/2013.1/src/exe/rbdock.cxx#4 $)

>  <Rbt.Library>
libRbt.so (2013.1, Build901 2013/11/27)

>  <Rbt.Parameter_File>
/export/apps/rDock/src/rDock_2013.1_src/data/scripts/dock_solv.prm

>  <Rbt.Receptor>
prm/blind_docking_100.prm

>  <SCORE>
-5.59198

>  <SCORE.INTER>
-4.90864

>  <SCORE.INTER.CONST>
1

>  <SCORE.INTER.POLAR>
0

>  <SCORE.INTER.ROT>
5

>  <SCORE.INTER.SOLV>
13.2941

>  <SCORE.INTER.VDW>
-14.6371

>  <SCORE.INTER.norm>
-0.490864

>  <SCORE.INTRA>
-0.683337

>  <SCORE.INTRA.DIHEDRAL>
-0.12262

>  <SCORE.INTRA.DIHEDRAL.0>
3.67053

>  <SCORE.INTRA.POLAR>
0

>  <SCORE.INTRA.POLAR.0>
0

>  <SCORE.INTRA.REPUL>
0

>  <SCORE.INTRA.REPUL.0>
0

>  <SCORE.INTRA.SOLV>
-1.72095

>  <SCORE.INTRA.SOLV.lig_0>
-32.0553

>  <SCORE.INTRA.VDW>
0.238448

>  <SCORE.INTRA.VDW.0>
-0.571921

>  <SCORE.INTRA.norm>
-0.0683337

>  <SCORE.RESTR>
0

>  <SCORE.RESTR.CAVITY>
0

>  <SCORE.RESTR.norm>
0

>  <SCORE.SYSTEM>
0

>  <SCORE.SYSTEM.CONST>
0

>  <SCORE.SYSTEM.DIHEDRAL>
0

>  <SCORE.SYSTEM.SOLV>
0

>  <SCORE.SYSTEM.norm>
0

>  <SCORE.heavy>
10

>  <SCORE.norm>
-0.559198

>  <RMSD>
47.647

$$$$
ligand
 OpenBabel11021811473D
libRbt.so/2013.1/901 2013/11/27
 10  9  0  0  0  0  0  0  0  0999 V2000
    1.7376   48.9256    3.1018 N   0  0  0  0  0  0  0  0  0  0  0  0
    0.8556   47.7588    2.7984 C   0  0  2  0  0  0  0  0  0  0  0  0
    1.6174   46.4429    2.8829 C   0  0  0  0  0  0  0  0  0  0  0  0
    1.2519   45.5399    3.6276 O   0  0  0  0  0  0  0  0  0  0  0  0
    0.1890   47.9176    1.4296 C   0  0  0  0  0  0  0  0  0  0  0  0
   -1.0349   47.0381    1.2401 C   0  0  0  0  0  0  0  0  0  0  0  0
   -1.5990   47.1555   -0.1704 C   0  0  0  0  0  0  0  0  0  0  0  0
   -3.0734   46.7869   -0.1918 C   0  0  0  0  0  0  0  0  0  0  0  0
   -3.9301   47.7711    0.5606 N   0  0  0  0  0  0  0  0  0  0  0  0
    2.6038   46.2158    2.1955 O   0  0  0  0  0  0  0  0  0  0  0  0
  2  1  1  6  0  0  0
  2  3  1  0  0  0  0
  2  5  1  0  0  0  0
  3  4  1  0  0  0  0
  3 10  1  0  0  0  0
  5  6  1  0  0  0  0
  6  7  1  0  0  0  0
  7  8  1  0  0  0  0
  8  9  1  0  0  0  0
M  END
>  <CHROM.1>
123.32216524,-161.22193687,-175.75514422,-155.84978797,66.93640258,-0.11235548
47.12503422,1.75621908,-0.05825774,-0.52668162,0.04931288

>  <Name>
ligand

>  <RI>
0

>  <Rbt.Current_Directory>
/home/itssahil/PROJECTS/Mol_Feturizer/New_Systems/rnas/3DIZ

>  <Rbt.Executable>
rbdock ($Id: //depot/dev/client3/rdock/2013.1/src/exe/rbdock.cxx#4 $)

>  <Rbt.Library>
libRbt.so (2013.1, Build901 2013/11/27)

>  <Rbt.Parameter_File>
/export/apps/rDock/src/rDock_2013.1_src/data/scripts/dock_solv.prm

>  <Rbt.Receptor>
prm/blind_docking_100.prm

>  <SCORE>
-6.37119

>  <SCORE.INTER>
-6.42407

>  <SCORE.INTER.CONST>
1

>  <SCORE.INTER.POLAR>
0

>  <SCORE.INTER.ROT>
5

>  <SCORE.INTER.SOLV>
6.59873

>  <SCORE.INTER.VDW>
-13.4156

>  <SCORE.INTER.norm>
-0.642407

>  <SCORE.INTRA>
0.0528722

>  <SCORE.INTRA.DIHEDRAL>
1.46491

>  <SCORE.INTRA.DIHEDRAL.0>
3.67053

>  <SCORE.INTRA.POLAR>
0

>  <SCORE.INTRA.POLAR.0>
0

>  <SCORE.INTRA.REPUL>
0

>  <SCORE.INTRA.REPUL.0>
0

>  <SCORE.INTRA.SOLV>
-0.65339

>  <SCORE.INTRA.SOLV.lig_0>
-32.0553

>  <SCORE.INTRA.VDW>
-0.352888

>  <SCORE.INTRA.VDW.0>
-0.571921

>  <SCORE.INTRA.norm>
0.00528722

>  <SCORE.RESTR>
0

>  <SCORE.RESTR.CAVITY>
0

>  <SCORE.RESTR.norm>
0

>  <SCORE.SYSTEM>
0

>  <SCORE.SYSTEM.CONST>
0

>  <SCORE.SYSTEM.DIHEDRAL>
0

>  <SCORE.SYSTEM.SOLV>
0

>  <SCORE.SYSTEM.norm>
0

>  <SCORE.heavy>
10

>  <SCORE.norm>
-0.637119

>  <RMSD>
47.648

$$$$
ligand
 OpenBabel11021811473D
libRbt.so/2013.1/901 2013/11/27
 10  9  0  0  0  0  0  0  0  0999 V2000
    1.6301   46.2320    4.2479 N   0  0  0  0  0  0  0  0  0  0  0  0
    1.4406   47.1597    3.0925 C   0  0  2  0  0  0  0  0  0  0  0  0
    1.2797   48.6026    3.5521 C   0  0  0  0  0  0  0  0  0  0  0  0
    1.2774   49.5314    2.7516 O   0  0  0  0  0  0  0  0  0  0  0  0
    0.2528   46.7250    2.2304 C   0  0  0  0  0  0  0  0  0  0  0  0
    0.2175   47.3833    0.8618 C   0  0  0  0  0  0  0  0  0  0  0  0
   -0.9929   46.9342    0.0526 C   0  0  0  0  0  0  0  0  0  0  0  0
   -2.2668   47.5551    0.6018 C   0  0  0  0  0  0  0  0  0  0  0  0
   -3.4731   47.2571   -0.2496 N   0  0  0  0  0  0  0  0  0  0  0  0
    1.1167   48.8973    4.7284 O   0  0  0  0  0  0  0  0  0  0  0  0
  2  1  1  1  0  0  0
  2  3  1  0  0  0  0
  2  5  1  0  0  0  0
  3  4  1  0  0  0  0
  3 10  1  0  0  0  0
  5  6  1  0  0  0  0
  6  7  1  0  0  0  0
  7  8  1  0  0  0  0
  8  9  1  0  0  0  0
M  END
>  <CHROM.1>
170.95767377,-164.79537982,-179.13907035,72.63016400,174.02872412,0.05306364
47.66178178,2.20444667,-0.29624868,0.77292294,-2.95324266

>  <Name>
ligand

>  <RI>
0

>  <Rbt.Current_Directory>
/home/itssahil/PROJECTS/Mol_Feturizer/New_Systems/rnas/3DIZ

>  <Rbt.Executable>
rbdock ($Id: //depot/dev/client3/rdock/2013.1/src/exe/rbdock.cxx#4 $)

>  <Rbt.Library>
libRbt.so (2013.1, Build901 2013/11/27)

>  <Rbt.Parameter_File>
/export/apps/rDock/src/rDock_2013.1_src/data/scripts/dock_solv.prm

>  <Rbt.Receptor>
prm/blind_docking_80.prm

>  <SCORE>
-4.50768

>  <SCORE.INTER>
-3.78789

>  <SCORE.INTER.CONST>
1

>  <SCORE.INTER.POLAR>
0

>  <SCORE.INTER.ROT>
5

>  <SCORE.INTER.SOLV>
12.8094

>  <SCORE.INTER.VDW>
-13.7284

>  <SCORE.INTER.norm>
-0.378789

>  <SCORE.INTRA>
-0.719794

>  <SCORE.INTRA.DIHEDRAL>
-0.585027

>  <SCORE.INTRA.DIHEDRAL.0>
3.67053

>  <SCORE.INTRA.POLAR>
0

>  <SCORE.INTRA.POLAR.0>
0

>  <SCORE.INTRA.REPUL>
0

>  <SCORE.INTRA.REPUL.0>
0

>  <SCORE.INTRA.SOLV>
-1.52279

>  <SCORE.INTRA.SOLV.lig_0>
-32.0553

>  <SCORE.INTRA.VDW>
0.334114

>  <SCORE.INTRA.VDW.0>
-0.571921

>  <SCORE.INTRA.norm>
-0.0719794

>  <SCORE.RESTR>
0

>  <SCORE.RESTR.CAVITY>
0

>  <SCORE.RESTR.norm>
0

>  <SCORE.SYSTEM>
0

>  <SCORE.SYSTEM.CONST>
0

>  <SCORE.SYSTEM.DIHEDRAL>
0

>  <SCORE.SYSTEM.SOLV>
0

>  <SCORE.SYSTEM.norm>
0

>  <SCORE.heavy>
10

>  <SCORE.norm>
-0.450768

>  <RMSD>
47.659

$$$$
ligand
 OpenBabel11021811473D
libRbt.so/2013.1/901 2013/11/27
 10  9  0  0  0  0  0  0  0  0999 V2000
    2.1438   47.0437    1.5616 N   0  0  0  0  0  0  0  0  0  0  0  0
    1.0018   47.5196    2.3987 C   0  0  2  0  0  0  0  0  0  0  0  0
    1.3198   47.4285    3.8852 C   0  0  0  0  0  0  0  0  0  0  0  0
    1.2819   48.4181    4.6083 O   0  0  0  0  0  0  0  0  0  0  0  0
   -0.2791   46.7506    2.0656 C   0  0  0  0  0  0  0  0  0  0  0  0
   -0.8919   47.1334    0.7293 C   0  0  0  0  0  0  0  0  0  0  0  0
   -2.2177   46.4207    0.4936 C   0  0  0  0  0  0  0  0  0  0  0  0
   -2.9104   46.9697   -0.7428 C   0  0  0  0  0  0  0  0  0  0  0  0
   -3.2892   48.4206   -0.6014 N   0  0  0  0  0  0  0  0  0  0  0  0
    1.5961   46.3676    4.4285 O   0  0  0  0  0  0  0  0  0  0  0  0
  2  1  1  6  0  0  0
  2  3  1  0  0  0  0
  2  5  1  0  0  0  0
  3  4  1  0  0  0  0
  3 10  1  0  0  0  0
  5  6  1  0  0  0  0
  6  7  1  0  0  0  0
  7  8  1  0  0  0  0
  8  9  1  0  0  0  0
M  END
>  <CHROM.1>
121.89369264,-73.12431620,-175.61594030,171.57669802,-63.65902611,-0.20870413
47.24664059,1.92445745,-0.67059049,0.43749813,-2.05734847

>  <Name>
ligand

>  <RI>
0

>  <Rbt.Current_Directory>
/home/itssahil/PROJECTS/Mol_Feturizer/New_Systems/rnas/3DIZ

>  <Rbt.Executable>
rbdock ($Id: //depot/dev/client3/rdock/2013.1/src/exe/rbdock.cxx#4 $)

>  <Rbt.Library>
libRbt.so (2013.1, Build901 2013/11/27)

>  <Rbt.Parameter_File>
/export/apps/rDock/src/rDock_2013.1_src/data/scripts/dock_solv.prm

>  <Rbt.Receptor>
prm/blind_docking_100.prm

>  <SCORE>
-6.62277

>  <SCORE.INTER>
-5.83634

>  <SCORE.INTER.CONST>
1

>  <SCORE.INTER.POLAR>
0

>  <SCORE.INTER.ROT>
5

>  <SCORE.INTER.SOLV>
9.15521

>  <SCORE.INTER.VDW>
-13.876

>  <SCORE.INTER.norm>
-0.583634

>  <SCORE.INTRA>
-0.786433

>  <SCORE.INTRA.DIHEDRAL>
-1.06511

>  <SCORE.INTRA.DIHEDRAL.0>
3.67053

>  <SCORE.INTRA.POLAR>
0

>  <SCORE.INTRA.POLAR.0>
0

>  <SCORE.INTRA.REPUL>
0

>  <SCORE.INTRA.REPUL.0>
0

>  <SCORE.INTRA.SOLV>
-0.048687

>  <SCORE.INTRA.SOLV.lig_0>
-32.0553

>  <SCORE.INTRA.VDW>
-0.229532

>  <SCORE.INTRA.VDW.0>
-0.571921

>  <SCORE.INTRA.norm>
-0.0786433

>  <SCORE.RESTR>
0

>  <SCORE.RESTR.CAVITY>
0

>  <SCORE.RESTR.norm>
0

>  <SCORE.SYSTEM>
0

>  <SCORE.SYSTEM.CONST>
0

>  <SCORE.SYSTEM.DIHEDRAL>
0

>  <SCORE.SYSTEM.SOLV>
0

>  <SCORE.SYSTEM.norm>
0

>  <SCORE.heavy>
10

>  <SCORE.norm>
-0.662277

>  <RMSD>
47.695

$$$$
ligand
 OpenBabel11021811473D
libRbt.so/2013.1/901 2013/11/27
 10  9  0  0  0  0  0  0  0  0999 V2000
    1.5355   48.8568    3.0526 N   0  0  0  0  0  0  0  0  0  0  0  0
    0.8758   47.6850    2.4021 C   0  0  2  0  0  0  0  0  0  0  0  0
    1.6276   46.3907    2.6828 C   0  0  0  0  0  0  0  0  0  0  0  0
    2.6973   46.1423    2.1373 O   0  0  0  0  0  0  0  0  0  0  0  0
    0.7197   47.9109    0.8962 C   0  0  0  0  0  0  0  0  0  0  0  0
   -0.4032   47.1019    0.2699 C   0  0  0  0  0  0  0  0  0  0  0  0
   -1.7675   47.7162    0.5581 C   0  0  0  0  0  0  0  0  0  0  0  0
   -2.8635   46.9567   -0.1713 C   0  0  0  0  0  0  0  0  0  0  0  0
   -4.2064   47.6310   -0.0676 N   0  0  0  0  0  0  0  0  0  0  0  0
    1.2178   45.5593    3.4814 O   0  0  0  0  0  0  0  0  0  0  0  0
  2  1  1  6  0  0  0
  2  3  1  0  0  0  0
  2  5  1  0  0  0  0
  3  4  1  0  0  0  0
  3 10  1  0  0  0  0
  5  6  1  0  0  0  0
  6  7  1  0  0  0  0
  7  8  1  0  0  0  0
  8  9  1  0  0  0  0
M  END
>  <CHROM.1>
-73.56647243,-155.80753300,77.52075933,175.36057909,-172.38690590,-0.03074856
47.16519252,1.53727145,-0.18534024,-0.49404856,-0.12626226

>  <Name>
ligand

>  <RI>
0

>  <Rbt.Current_Directory>
/home/itssahil/PROJECTS/Mol_Feturizer/New_Systems/rnas/3DIZ

>  <Rbt.Executable>
rbdock ($Id: //depot/dev/client3/rdock/2013.1/src/exe/rbdock.cxx#4 $)

>  <Rbt.Library>
libRbt.so (2013.1, Build901 2013/11/27)

>  <Rbt.Parameter_File>
/export/apps/rDock/src/rDock_2013.1_src/data/scripts/dock_solv.prm

>  <Rbt.Receptor>
prm/blind_docking_80.prm

>  <SCORE>
-6.49259

>  <SCORE.INTER>
-6.23753

>  <SCORE.INTER.CONST>
1

>  <SCORE.INTER.POLAR>
0

>  <SCORE.INTER.ROT>
5

>  <SCORE.INTER.SOLV>
6.33528

>  <SCORE.INTER.VDW>
-13.2034

>  <SCORE.INTER.norm>
-0.623753

>  <SCORE.INTRA>
-0.255067

>  <SCORE.INTRA.DIHEDRAL>
1.26859

>  <SCORE.INTRA.DIHEDRAL.0>
3.67053

>  <SCORE.INTRA.POLAR>
0

>  <SCORE.INTRA.POLAR.0>
0

>  <SCORE.INTRA.REPUL>
0

>  <SCORE.INTRA.REPUL.0>
0

>  <SCORE.INTRA.SOLV>
-1.35074

>  <SCORE.INTRA.SOLV.lig_0>
-32.0553

>  <SCORE.INTRA.VDW>
-0.213991

>  <SCORE.INTRA.VDW.0>
-0.571921

>  <SCORE.INTRA.norm>
-0.0255067

>  <SCORE.RESTR>
0

>  <SCORE.RESTR.CAVITY>
0

>  <SCORE.RESTR.norm>
0

>  <SCORE.SYSTEM>
0

>  <SCORE.SYSTEM.CONST>
0

>  <SCORE.SYSTEM.DIHEDRAL>
0

>  <SCORE.SYSTEM.SOLV>
0

>  <SCORE.SYSTEM.norm>
0

>  <SCORE.heavy>
10

>  <SCORE.norm>
-0.649259

>  <RMSD>
47.713

$$$$
ligand
 OpenBabel11021811473D
libRbt.so/2013.1/901 2013/11/27
 10  9  0  0  0  0  0  0  0  0999 V2000
    1.7748   48.9402    3.0438 N   0  0  0  0  0  0  0  0  0  0  0  0
    0.8534   47.7928    2.7872 C   0  0  2  0  0  0  0  0  0  0  0  0
    1.5930   46.4619    2.8178 C   0  0  0  0  0  0  0  0  0  0  0  0
    1.2254   45.5435    3.5424 O   0  0  0  0  0  0  0  0  0  0  0  0
    0.1091   47.9741    1.4620 C   0  0  0  0  0  0  0  0  0  0  0  0
   -1.0962   47.0623    1.3082 C   0  0  0  0  0  0  0  0  0  0  0  0
   -1.9129   47.4133    0.0707 C   0  0  0  0  0  0  0  0  0  0  0  0
   -3.2847   46.7616    0.1297 C   0  0  0  0  0  0  0  0  0  0  0  0
   -4.1644   47.1519   -1.0289 N   0  0  0  0  0  0  0  0  0  0  0  0
    2.5619   46.2384    2.1049 O   0  0  0  0  0  0  0  0  0  0  0  0
  2  1  1  6  0  0  0
  2  3  1  0  0  0  0
  2  5  1  0  0  0  0
  3  4  1  0  0  0  0
  3 10  1  0  0  0  0
  5  6  1  0  0  0  0
  6  7  1  0  0  0  0
  7  8  1  0  0  0  0
  8  9  1  0  0  0  0
M  END
>  <CHROM.1>
126.03025218,-164.52038910,171.99372680,-164.82250187,176.22920538,-0.20815868
47.10388363,1.63213872,-0.08551926,-0.55898307,-0.09894669

>  <Name>
ligand

>  <RI>
0

>  <Rbt.Current_Directory>
/home/itssahil/PROJECTS/Mol_Feturizer/New_Systems/rnas/3DIZ

>  <Rbt.Executable>
rbdock ($Id: //depot/dev/client3/rdock/2013.1/src/exe/rbdock.cxx#4 $)

>  <Rbt.Library>
libRbt.so (2013.1, Build901 2013/11/27)

>  <Rbt.Parameter_File>
/export/apps/rDock/src/rDock_2013.1_src/data/scripts/dock_solv.prm

>  <Rbt.Receptor>
prm/blind_docking_80.prm

>  <SCORE>
-7.10271

>  <SCORE.INTER>
-5.81959

>  <SCORE.INTER.CONST>
1

>  <SCORE.INTER.POLAR>
0

>  <SCORE.INTER.ROT>
5

>  <SCORE.INTER.SOLV>
8.48994

>  <SCORE.INTER.VDW>
-13.643

>  <SCORE.INTER.norm>
-0.581959

>  <SCORE.INTRA>
-1.28312

>  <SCORE.INTRA.DIHEDRAL>
-0.0844878

>  <SCORE.INTRA.DIHEDRAL.0>
3.67053

>  <SCORE.INTRA.POLAR>
0

>  <SCORE.INTRA.POLAR.0>
0

>  <SCORE.INTRA.REPUL>
0

>  <SCORE.INTRA.REPUL.0>
0

>  <SCORE.INTRA.SOLV>
-1.71718

>  <SCORE.INTRA.SOLV.lig_0>
-32.0553

>  <SCORE.INTRA.VDW>
-0.382288

>  <SCORE.INTRA.VDW.0>
-0.571921

>  <SCORE.INTRA.norm>
-0.128312

>  <SCORE.RESTR>
0

>  <SCORE.RESTR.CAVITY>
0

>  <SCORE.RESTR.norm>
0

>  <SCORE.SYSTEM>
0

>  <SCORE.SYSTEM.CONST>
0

>  <SCORE.SYSTEM.DIHEDRAL>
0

>  <SCORE.SYSTEM.SOLV>
0

>  <SCORE.SYSTEM.norm>
0

>  <SCORE.heavy>
10

>  <SCORE.norm>
-0.710271

>  <RMSD>
47.741

$$$$
ligand
 OpenBabel11021811473D
libRbt.so/2013.1/901 2013/11/27
 10  9  0  0  0  0  0  0  0  0999 V2000
    0.5598   48.6101    2.7169 N   0  0  0  0  0  0  0  0  0  0  0  0
    0.4954   47.1993    2.2301 C   0  0  2  0  0  0  0  0  0  0  0  0
    1.6578   46.3698    2.7591 C   0  0  0  0  0  0  0  0  0  0  0  0
    2.7649   46.4135    2.2337 O   0  0  0  0  0  0  0  0  0  0  0  0
    0.4398   47.1497    0.7012 C   0  0  0  0  0  0  0  0  0  0  0  0
   -0.9085   47.5475    0.1254 C   0  0  0  0  0  0  0  0  0  0  0  0
   -1.9670   46.4825    0.3839 C   0  0  0  0  0  0  0  0  0  0  0  0
   -3.2944   46.8818   -0.2395 C   0  0  0  0  0  0  0  0  0  0  0  0
   -3.8787   48.1234    0.3817 N   0  0  0  0  0  0  0  0  0  0  0  0
    1.5502   45.6501    3.7427 O   0  0  0  0  0  0  0  0  0  0  0  0
  2  1  1  6  0  0  0
  2  3  1  0  0  0  0
  2  5  1  0  0  0  0
  3  4  1  0  0  0  0
  3 10  1  0  0  0  0
  5  6  1  0  0  0  0
  6  7  1  0  0  0  0
  7  8  1  0  0  0  0
  8  9  1  0  0  0  0
M  END
>  <CHROM.1>
-80.95516825,-74.42807235,-71.48720125,-178.16973173,-64.37660351,-0.22287009
47.02262030,1.52189017,0.02338045,-0.53552356,0.36815965

>  <Name>
ligand

>  <RI>
0

>  <Rbt.Current_Directory>
/home/itssahil/PROJECTS/Mol_Feturizer/New_Systems/rnas/3DIZ

>  <Rbt.Executable>
rbdock ($Id: //depot/dev/client3/rdock/2013.1/src/exe/rbdock.cxx#4 $)

>  <Rbt.Library>
libRbt.so (2013.1, Build901 2013/11/27)

>  <Rbt.Parameter_File>
/export/apps/rDock/src/rDock_2013.1_src/data/scripts/dock_solv.prm

>  <Rbt.Receptor>
prm/blind_docking_100.prm

>  <SCORE>
-7.55736

>  <SCORE.INTER>
-7.38596

>  <SCORE.INTER.CONST>
1

>  <SCORE.INTER.POLAR>
0

>  <SCORE.INTER.ROT>
5

>  <SCORE.INTER.SOLV>
5.41839

>  <SCORE.INTER.VDW>
-13.6634

>  <SCORE.INTER.norm>
-0.738596

>  <SCORE.INTRA>
-0.171398

>  <SCORE.INTRA.DIHEDRAL>
-0.789335

>  <SCORE.INTRA.DIHEDRAL.0>
3.67053

>  <SCORE.INTRA.POLAR>
0

>  <SCORE.INTRA.POLAR.0>
0

>  <SCORE.INTRA.REPUL>
0

>  <SCORE.INTRA.REPUL.0>
0

>  <SCORE.INTRA.SOLV>
0.267871

>  <SCORE.INTRA.SOLV.lig_0>
-32.0553

>  <SCORE.INTRA.VDW>
0.089334

>  <SCORE.INTRA.VDW.0>
-0.571921

>  <SCORE.INTRA.norm>
-0.0171398

>  <SCORE.RESTR>
0

>  <SCORE.RESTR.CAVITY>
0

>  <SCORE.RESTR.norm>
0

>  <SCORE.SYSTEM>
0

>  <SCORE.SYSTEM.CONST>
0

>  <SCORE.SYSTEM.DIHEDRAL>
0

>  <SCORE.SYSTEM.SOLV>
0

>  <SCORE.SYSTEM.norm>
0

>  <SCORE.heavy>
10

>  <SCORE.norm>
-0.755736

>  <RMSD>
47.747

$$$$
ligand
 OpenBabel11021811473D
libRbt.so/2013.1/901 2013/11/27
 10  9  0  0  0  0  0  0  0  0999 V2000
    0.9356   48.8158    2.4862 N   0  0  0  0  0  0  0  0  0  0  0  0
    0.6393   47.3529    2.5454 C   0  0  2  0  0  0  0  0  0  0  0  0
    1.8754   46.5448    2.9173 C   0  0  0  0  0  0  0  0  0  0  0  0
    2.8608   46.5130    2.1883 O   0  0  0  0  0  0  0  0  0  0  0  0
    0.0420   46.8613    1.2245 C   0  0  0  0  0  0  0  0  0  0  0  0
   -1.4008   47.2858    1.0106 C   0  0  0  0  0  0  0  0  0  0  0  0
   -2.0126   46.6056   -0.2078 C   0  0  0  0  0  0  0  0  0  0  0  0
   -3.4664   47.0148   -0.3781 C   0  0  0  0  0  0  0  0  0  0  0  0
   -3.6260   48.4807   -0.6852 N   0  0  0  0  0  0  0  0  0  0  0  0
    1.9536   45.9191    3.9659 O   0  0  0  0  0  0  0  0  0  0  0  0
  2  1  1  6  0  0  0
  2  3  1  0  0  0  0
  2  5  1  0  0  0  0
  3  4  1  0  0  0  0
  3 10  1  0  0  0  0
  5  6  1  0  0  0  0
  6  7  1  0  0  0  0
  7  8  1  0  0  0  0
  8  9  1  0  0  0  0
M  END
>  <CHROM.1>
-63.87428193,-74.06269031,-171.53431704,178.38158921,64.94801971,-0.18220509
47.12010770,1.52320155,-0.06812316,-0.59204947,0.13239687

>  <Name>
ligand

>  <RI>
0

>  <Rbt.Current_Directory>
/home/itssahil/PROJECTS/Mol_Feturizer/New_Systems/rnas/3DIZ

>  <Rbt.Executable>
rbdock ($Id: //depot/dev/client3/rdock/2013.1/src/exe/rbdock.cxx#4 $)

>  <Rbt.Library>
libRbt.so (2013.1, Build901 2013/11/27)

>  <Rbt.Parameter_File>
/export/apps/rDock/src/rDock_2013.1_src/data/scripts/dock_solv.prm

>  <Rbt.Receptor>
prm/blind_docking_100.prm

>  <SCORE>
-8.07448

>  <SCORE.INTER>
-7.29386

>  <SCORE.INTER.CONST>
1

>  <SCORE.INTER.POLAR>
0

>  <SCORE.INTER.ROT>
5

>  <SCORE.INTER.SOLV>
4.36505

>  <SCORE.INTER.VDW>
-13.2509

>  <SCORE.INTER.norm>
-0.729386

>  <SCORE.INTRA>
-0.780625

>  <SCORE.INTRA.DIHEDRAL>
-1.01208

>  <SCORE.INTRA.DIHEDRAL.0>
3.67053

>  <SCORE.INTRA.POLAR>
0

>  <SCORE.INTRA.POLAR.0>
0

>  <SCORE.INTRA.REPUL>
0

>  <SCORE.INTRA.REPUL.0>
0

>  <SCORE.INTRA.SOLV>
-0.142155

>  <SCORE.INTRA.SOLV.lig_0>
-32.0553

>  <SCORE.INTRA.VDW>
-0.203509

>  <SCORE.INTRA.VDW.0>
-0.571921

>  <SCORE.INTRA.norm>
-0.0780625

>  <SCORE.RESTR>
0

>  <SCORE.RESTR.CAVITY>
0

>  <SCORE.RESTR.norm>
0

>  <SCORE.SYSTEM>
0

>  <SCORE.SYSTEM.CONST>
0

>  <SCORE.SYSTEM.DIHEDRAL>
0

>  <SCORE.SYSTEM.SOLV>
0

>  <SCORE.SYSTEM.norm>
0

>  <SCORE.heavy>
10

>  <SCORE.norm>
-0.807448

>  <RMSD>
47.781

$$$$
ligand
 OpenBabel11021811473D
libRbt.so/2013.1/901 2013/11/27
 10  9  0  0  0  0  0  0  0  0999 V2000
    0.6387   48.8168    2.5186 N   0  0  0  0  0  0  0  0  0  0  0  0
    0.5028   47.3669    2.1858 C   0  0  2  0  0  0  0  0  0  0  0  0
    1.6150   46.5399    2.8168 C   0  0  0  0  0  0  0  0  0  0  0  0
    1.4131   45.8507    3.8107 O   0  0  0  0  0  0  0  0  0  0  0  0
    0.4566   47.1550    0.6705 C   0  0  0  0  0  0  0  0  0  0  0  0
   -0.8773   47.5213    0.0425 C   0  0  0  0  0  0  0  0  0  0  0  0
   -1.9884   46.5813    0.4934 C   0  0  0  0  0  0  0  0  0  0  0  0
   -3.3261   47.0153   -0.0829 C   0  0  0  0  0  0  0  0  0  0  0  0
   -4.0321   48.0258    0.7826 N   0  0  0  0  0  0  0  0  0  0  0  0
    2.7445   46.5014    2.3480 O   0  0  0  0  0  0  0  0  0  0  0  0
  2  1  1  6  0  0  0
  2  3  1  0  0  0  0
  2  5  1  0  0  0  0
  3  4  1  0  0  0  0
  3 10  1  0  0  0  0
  5  6  1  0  0  0  0
  6  7  1  0  0  0  0
  7  8  1  0  0  0  0
  8  9  1  0  0  0  0
M  END
>  <CHROM.1>
103.70913200,-76.05901116,-66.88255131,176.70999518,-87.43637470,-0.25160206
47.11708216,1.57862722,-0.49734961,0.01041143,-1.29723683

>  <Name>
ligand

>  <RI>
0

>  <Rbt.Current_Directory>
/home/itssahil/PROJECTS/Mol_Feturizer/New_Systems/rnas/3DIZ

>  <Rbt.Executable>
rbdock ($Id: //depot/dev/client3/rdock/2013.1/src/exe/rbdock.cxx#4 $)

>  <Rbt.Library>
libRbt.so (2013.1, Build901 2013/11/27)

>  <Rbt.Parameter_File>
/export/apps/rDock/src/rDock_2013.1_src/data/scripts/dock_solv.prm

>  <Rbt.Receptor>
prm/blind_docking_100.prm

>  <SCORE>
-6.07889

>  <SCORE.INTER>
-6.78404

>  <SCORE.INTER.CONST>
1

>  <SCORE.INTER.POLAR>
0

>  <SCORE.INTER.ROT>
5

>  <SCORE.INTER.SOLV>
5.21166

>  <SCORE.INTER.VDW>
-13.1932

>  <SCORE.INTER.norm>
-0.678404

>  <SCORE.INTRA>
0.70515

>  <SCORE.INTRA.DIHEDRAL>
1.50483

>  <SCORE.INTRA.DIHEDRAL.0>
3.67053

>  <SCORE.INTRA.POLAR>
0

>  <SCORE.INTRA.POLAR.0>
0

>  <SCORE.INTRA.REPUL>
0

>  <SCORE.INTRA.REPUL.0>
0

>  <SCORE.INTRA.SOLV>
-0.0402833

>  <SCORE.INTRA.SOLV.lig_0>
-32.0553

>  <SCORE.INTRA.VDW>
-0.0271217

>  <SCORE.INTRA.VDW.0>
-0.571921

>  <SCORE.INTRA.norm>
0.070515

>  <SCORE.RESTR>
0

>  <SCORE.RESTR.CAVITY>
0

>  <SCORE.RESTR.norm>
0

>  <SCORE.SYSTEM>
0

>  <SCORE.SYSTEM.CONST>
0

>  <SCORE.SYSTEM.DIHEDRAL>
0

>  <SCORE.SYSTEM.SOLV>
0

>  <SCORE.SYSTEM.norm>
0

>  <SCORE.heavy>
10

>  <SCORE.norm>
-0.607889

>  <RMSD>
47.801

$$$$
ligand
 OpenBabel11021811473D
libRbt.so/2013.1/901 2013/11/27
 10  9  0  0  0  0  0  0  0  0999 V2000
    0.7081   48.7153    2.5638 N   0  0  0  0  0  0  0  0  0  0  0  0
    0.4880   47.2852    2.1925 C   0  0  2  0  0  0  0  0  0  0  0  0
    1.5592   46.3803    2.7863 C   0  0  0  0  0  0  0  0  0  0  0  0
    2.7113   46.3939    2.3665 O   0  0  0  0  0  0  0  0  0  0  0  0
    0.4133   47.1194    0.6726 C   0  0  0  0  0  0  0  0  0  0  0  0
   -0.9208   47.5356    0.0772 C   0  0  0  0  0  0  0  0  0  0  0  0
   -2.0430   46.5953    0.4990 C   0  0  0  0  0  0  0  0  0  0  0  0
   -3.3448   46.9690   -0.1907 C   0  0  0  0  0  0  0  0  0  0  0  0
   -3.8516   48.3268    0.2197 N   0  0  0  0  0  0  0  0  0  0  0  0
    1.3296   45.6257    3.7216 O   0  0  0  0  0  0  0  0  0  0  0  0
  2  1  1  6  0  0  0
  2  3  1  0  0  0  0
  2  5  1  0  0  0  0
  3  4  1  0  0  0  0
  3 10  1  0  0  0  0
  5  6  1  0  0  0  0
  6  7  1  0  0  0  0
  7  8  1  0  0  0  0
  8  9  1  0  0  0  0
M  END
>  <CHROM.1>
-71.19629862,-77.88654330,-67.85839261,-175.74719793,-64.63658938,-0.26206554
47.07274779,1.51078868,-0.27170902,-0.48628174,-0.18507025

>  <Name>
ligand

>  <RI>
0

>  <Rbt.Current_Directory>
/home/itssahil/PROJECTS/Mol_Feturizer/New_Systems/rnas/3DIZ

>  <Rbt.Executable>
rbdock ($Id: //depot/dev/client3/rdock/2013.1/src/exe/rbdock.cxx#4 $)

>  <Rbt.Library>
libRbt.so (2013.1, Build901 2013/11/27)

>  <Rbt.Parameter_File>
/export/apps/rDock/src/rDock_2013.1_src/data/scripts/dock_solv.prm

>  <Rbt.Receptor>
prm/blind_docking_80.prm

>  <SCORE>
-7.27389

>  <SCORE.INTER>
-7.1193

>  <SCORE.INTER.CONST>
1

>  <SCORE.INTER.POLAR>
0

>  <SCORE.INTER.ROT>
5

>  <SCORE.INTER.SOLV>
4.38692

>  <SCORE.INTER.VDW>
-13.1418

>  <SCORE.INTER.norm>
-0.71193

>  <SCORE.INTRA>
-0.154587

>  <SCORE.INTRA.DIHEDRAL>
-0.587067

>  <SCORE.INTRA.DIHEDRAL.0>
3.67053

>  <SCORE.INTRA.POLAR>
0

>  <SCORE.INTRA.POLAR.0>
0

>  <SCORE.INTRA.REPUL>
0

>  <SCORE.INTRA.REPUL.0>
0

>  <SCORE.INTRA.SOLV>
0.229742

>  <SCORE.INTRA.SOLV.lig_0>
-32.0553

>  <SCORE.INTRA.VDW>
0.0240753

>  <SCORE.INTRA.VDW.0>
-0.571921

>  <SCORE.INTRA.norm>
-0.0154587

>  <SCORE.RESTR>
0

>  <SCORE.RESTR.CAVITY>
0

>  <SCORE.RESTR.norm>
0

>  <SCORE.SYSTEM>
0

>  <SCORE.SYSTEM.CONST>
0

>  <SCORE.SYSTEM.DIHEDRAL>
0

>  <SCORE.SYSTEM.SOLV>
0

>  <SCORE.SYSTEM.norm>
0

>  <SCORE.heavy>
10

>  <SCORE.norm>
-0.727389

>  <RMSD>
47.810

$$$$
ligand
 OpenBabel11021811473D
libRbt.so/2013.1/901 2013/11/27
 10  9  0  0  0  0  0  0  0  0999 V2000
    0.9879   48.8955    2.8524 N   0  0  0  0  0  0  0  0  0  0  0  0
    0.4551   47.6284    2.2675 C   0  0  2  0  0  0  0  0  0  0  0  0
    1.3714   46.4474    2.5588 C   0  0  0  0  0  0  0  0  0  0  0  0
    2.4524   46.3232    1.9936 O   0  0  0  0  0  0  0  0  0  0  0  0
    0.2172   47.7775    0.7628 C   0  0  0  0  0  0  0  0  0  0  0  0
   -0.5969   46.6468    0.1576 C   0  0  0  0  0  0  0  0  0  0  0  0
   -2.0631   46.7295    0.5635 C   0  0  0  0  0  0  0  0  0  0  0  0
   -2.7441   47.9046   -0.1188 C   0  0  0  0  0  0  0  0  0  0  0  0
   -4.2004   48.0251    0.2464 N   0  0  0  0  0  0  0  0  0  0  0  0
    1.0876   45.5909    3.3851 O   0  0  0  0  0  0  0  0  0  0  0  0
  2  1  1  6  0  0  0
  2  3  1  0  0  0  0
  2  5  1  0  0  0  0
  3  4  1  0  0  0  0
  3 10  1  0  0  0  0
  5  6  1  0  0  0  0
  6  7  1  0  0  0  0
  7  8  1  0  0  0  0
  8  9  1  0  0  0  0
M  END
>  <CHROM.1>
-72.40686062,-167.48259384,72.51596927,70.71712494,179.72753351,-0.27430402
47.16950929,1.47972883,-0.09891486,-0.51573754,0.19419583

>  <Name>
ligand

>  <RI>
0

>  <Rbt.Current_Directory>
/home/itssahil/PROJECTS/Mol_Feturizer/New_Systems/rnas/3DIZ

>  <Rbt.Executable>
rbdock ($Id: //depot/dev/client3/rdock/2013.1/src/exe/rbdock.cxx#4 $)

>  <Rbt.Library>
libRbt.so (2013.1, Build901 2013/11/27)

>  <Rbt.Parameter_File>
/export/apps/rDock/src/rDock_2013.1_src/data/scripts/dock_solv.prm

>  <Rbt.Receptor>
prm/blind_docking_100.prm

>  <SCORE>
-6.45625

>  <SCORE.INTER>
-6.03073

>  <SCORE.INTER.CONST>
1

>  <SCORE.INTER.POLAR>
0

>  <SCORE.INTER.ROT>
5

>  <SCORE.INTER.SOLV>
5.06298

>  <SCORE.INTER.VDW>
-12.6415

>  <SCORE.INTER.norm>
-0.603073

>  <SCORE.INTRA>
-0.425517

>  <SCORE.INTRA.DIHEDRAL>
-0.536205

>  <SCORE.INTRA.DIHEDRAL.0>
3.67053

>  <SCORE.INTRA.POLAR>
0

>  <SCORE.INTRA.POLAR.0>
0

>  <SCORE.INTRA.REPUL>
0

>  <SCORE.INTRA.REPUL.0>
0

>  <SCORE.INTRA.SOLV>
-1.23029

>  <SCORE.INTRA.SOLV.lig_0>
-32.0553

>  <SCORE.INTRA.VDW>
0.457733

>  <SCORE.INTRA.VDW.0>
-0.571921

>  <SCORE.INTRA.norm>
-0.0425517

>  <SCORE.RESTR>
0

>  <SCORE.RESTR.CAVITY>
0

>  <SCORE.RESTR.norm>
0

>  <SCORE.SYSTEM>
0

>  <SCORE.SYSTEM.CONST>
0

>  <SCORE.SYSTEM.DIHEDRAL>
0

>  <SCORE.SYSTEM.SOLV>
0

>  <SCORE.SYSTEM.norm>
0

>  <SCORE.heavy>
10

>  <SCORE.norm>
-0.645625

>  <RMSD>
47.896

$$$$
ligand
 OpenBabel11021811473D
libRbt.so/2013.1/901 2013/11/27
 10  9  0  0  0  0  0  0  0  0999 V2000
   -0.8298   48.9648    0.3675 N   0  0  0  0  0  0  0  0  0  0  0  0
   -0.4532   47.5472    0.0842 C   0  0  2  0  0  0  0  0  0  0  0  0
   -1.6379   46.7460   -0.4391 C   0  0  0  0  0  0  0  0  0  0  0  0
   -1.5018   45.5982   -0.8484 O   0  0  0  0  0  0  0  0  0  0  0  0
    0.1511   46.8830    1.3239 C   0  0  0  0  0  0  0  0  0  0  0  0
    1.5921   47.2829    1.5904 C   0  0  0  0  0  0  0  0  0  0  0  0
    2.2495   46.3674    2.6157 C   0  0  0  0  0  0  0  0  0  0  0  0
    1.5023   46.4178    3.9382 C   0  0  0  0  0  0  0  0  0  0  0  0
    1.3032   47.8237    4.4407 N   0  0  0  0  0  0  0  0  0  0  0  0
   -2.7758   47.1956   -0.4476 O   0  0  0  0  0  0  0  0  0  0  0  0
  2  1  1  1  0  0  0
  2  3  1  0  0  0  0
  2  5  1  0  0  0  0
  3  4  1  0  0  0  0
  3 10  1  0  0  0  0
  5  6  1  0  0  0  0
  6  7  1  0  0  0  0
  7  8  1  0  0  0  0
  8  9  1  0  0  0  0
M  END
>  <CHROM.1>
173.01086615,-77.30410155,-166.54741001,-59.93943157,-52.10789168,-0.07300355
47.06459928,1.24153262,2.79445873,0.79088355,-2.69052017

>  <Name>
ligand

>  <RI>
0

>  <Rbt.Current_Directory>
/home/itssahil/PROJECTS/Mol_Feturizer/New_Systems/rnas/3DIZ

>  <Rbt.Executable>
rbdock ($Id: //depot/dev/client3/rdock/2013.1/src/exe/rbdock.cxx#4 $)

>  <Rbt.Library>
libRbt.so (2013.1, Build901 2013/11/27)

>  <Rbt.Parameter_File>
/export/apps/rDock/src/rDock_2013.1_src/data/scripts/dock_solv.prm

>  <Rbt.Receptor>
prm/blind_docking_80.prm

>  <SCORE>
-4.00999

>  <SCORE.INTER>
-5.36826

>  <SCORE.INTER.CONST>
1

>  <SCORE.INTER.POLAR>
0

>  <SCORE.INTER.ROT>
5

>  <SCORE.INTER.SOLV>
11.3575

>  <SCORE.INTER.VDW>
-14.298

>  <SCORE.INTER.norm>
-0.536826

>  <SCORE.INTRA>
1.35828

>  <SCORE.INTRA.DIHEDRAL>
-0.0976025

>  <SCORE.INTRA.DIHEDRAL.0>
3.67053

>  <SCORE.INTRA.POLAR>
0

>  <SCORE.INTRA.POLAR.0>
0

>  <SCORE.INTRA.REPUL>
0

>  <SCORE.INTRA.REPUL.0>
0

>  <SCORE.INTRA.SOLV>
0.697768

>  <SCORE.INTRA.SOLV.lig_0>
-32.0553

>  <SCORE.INTRA.VDW>
1.05819

>  <SCORE.INTRA.VDW.0>
-0.571921

>  <SCORE.INTRA.norm>
0.135828

>  <SCORE.RESTR>
0

>  <SCORE.RESTR.CAVITY>
0

>  <SCORE.RESTR.norm>
0

>  <SCORE.SYSTEM>
0

>  <SCORE.SYSTEM.CONST>
0

>  <SCORE.SYSTEM.DIHEDRAL>
0

>  <SCORE.SYSTEM.SOLV>
0

>  <SCORE.SYSTEM.norm>
0

>  <SCORE.heavy>
10

>  <SCORE.norm>
-0.400999

>  <RMSD>
47.926

$$$$
ligand
 OpenBabel11021811473D
libRbt.so/2013.1/901 2013/11/27
 10  9  0  0  0  0  0  0  0  0999 V2000
    0.9606   48.7716    2.1692 N   0  0  0  0  0  0  0  0  0  0  0  0
    0.5340   47.3649    2.4351 C   0  0  2  0  0  0  0  0  0  0  0  0
    1.7258   46.4633    2.7284 C   0  0  0  0  0  0  0  0  0  0  0  0
    1.7831   45.7939    3.7542 O   0  0  0  0  0  0  0  0  0  0  0  0
   -0.2943   46.8147    1.2714 C   0  0  0  0  0  0  0  0  0  0  0  0
   -1.6415   47.4964    1.1040 C   0  0  0  0  0  0  0  0  0  0  0  0
   -2.4363   46.8960   -0.0490 C   0  0  0  0  0  0  0  0  0  0  0  0
   -3.7741   47.6007   -0.2037 C   0  0  0  0  0  0  0  0  0  0  0  0
   -4.5544   47.1124   -1.3959 N   0  0  0  0  0  0  0  0  0  0  0  0
    2.6595   46.3429    1.9470 O   0  0  0  0  0  0  0  0  0  0  0  0
  2  1  1  6  0  0  0
  2  3  1  0  0  0  0
  2  5  1  0  0  0  0
  3  4  1  0  0  0  0
  3 10  1  0  0  0  0
  5  6  1  0  0  0  0
  6  7  1  0  0  0  0
  7  8  1  0  0  0  0
  8  9  1  0  0  0  0
M  END
>  <CHROM.1>
125.22782710,-67.08244921,-178.93449400,-179.55392063,175.69725351,-0.46646154
47.04400711,1.39069193,-0.09135815,-0.54273591,0.02653522

>  <Name>
ligand

>  <RI>
0

>  <Rbt.Current_Directory>
/home/itssahil/PROJECTS/Mol_Feturizer/New_Systems/rnas/3DIZ

>  <Rbt.Executable>
rbdock ($Id: //depot/dev/client3/rdock/2013.1/src/exe/rbdock.cxx#4 $)

>  <Rbt.Library>
libRbt.so (2013.1, Build901 2013/11/27)

>  <Rbt.Parameter_File>
/export/apps/rDock/src/rDock_2013.1_src/data/scripts/dock_solv.prm

>  <Rbt.Receptor>
prm/blind_docking_80.prm

>  <SCORE>
-7.75367

>  <SCORE.INTER>
-6.04024

>  <SCORE.INTER.CONST>
1

>  <SCORE.INTER.POLAR>
0

>  <SCORE.INTER.ROT>
5

>  <SCORE.INTER.SOLV>
7.35535

>  <SCORE.INTER.VDW>
-13.4119

>  <SCORE.INTER.norm>
-0.604024

>  <SCORE.INTRA>
-1.71343

>  <SCORE.INTRA.DIHEDRAL>
-1.8934

>  <SCORE.INTRA.DIHEDRAL.0>
3.67053

>  <SCORE.INTRA.POLAR>
0

>  <SCORE.INTRA.POLAR.0>
0

>  <SCORE.INTRA.REPUL>
0

>  <SCORE.INTRA.REPUL.0>
0

>  <SCORE.INTRA.SOLV>
-0.928387

>  <SCORE.INTRA.SOLV.lig_0>
-32.0553

>  <SCORE.INTRA.VDW>
-0.302533

>  <SCORE.INTRA.VDW.0>
-0.571921

>  <SCORE.INTRA.norm>
-0.171343

>  <SCORE.RESTR>
0

>  <SCORE.RESTR.CAVITY>
0

>  <SCORE.RESTR.norm>
0

>  <SCORE.SYSTEM>
0

>  <SCORE.SYSTEM.CONST>
0

>  <SCORE.SYSTEM.DIHEDRAL>
0

>  <SCORE.SYSTEM.SOLV>
0

>  <SCORE.SYSTEM.norm>
0

>  <SCORE.heavy>
10

>  <SCORE.norm>
-0.775367

>  <RMSD>
47.964

$$$$
ligand
 OpenBabel11021811473D
libRbt.so/2013.1/901 2013/11/27
 10  9  0  0  0  0  0  0  0  0999 V2000
    0.9384   48.7364    2.1732 N   0  0  0  0  0  0  0  0  0  0  0  0
    0.4599   47.3557    2.4833 C   0  0  2  0  0  0  0  0  0  0  0  0
    1.6169   46.4215    2.8115 C   0  0  0  0  0  0  0  0  0  0  0  0
    2.5847   46.3171    2.0658 O   0  0  0  0  0  0  0  0  0  0  0  0
   -0.3842   46.7979    1.3347 C   0  0  0  0  0  0  0  0  0  0  0  0
   -1.7127   47.5110    1.1500 C   0  0  0  0  0  0  0  0  0  0  0  0
   -2.5008   46.9380   -0.0213 C   0  0  0  0  0  0  0  0  0  0  0  0
   -3.8325   47.6542   -0.1745 C   0  0  0  0  0  0  0  0  0  0  0  0
   -4.6160   47.1764   -1.3690 N   0  0  0  0  0  0  0  0  0  0  0  0
    1.6484   45.7598    3.8401 O   0  0  0  0  0  0  0  0  0  0  0  0
  2  1  1  6  0  0  0
  2  3  1  0  0  0  0
  2  5  1  0  0  0  0
  3  4  1  0  0  0  0
  3 10  1  0  0  0  0
  5  6  1  0  0  0  0
  6  7  1  0  0  0  0
  7  8  1  0  0  0  0
  8  9  1  0  0  0  0
M  END
>  <CHROM.1>
-51.66080672,-67.80913953,178.83396268,179.24541647,176.72291500,-0.54284464
47.04495560,1.44499783,-0.15724188,-0.54041318,-0.07572896

>  <Name>
ligand

>  <RI>
0

>  <Rbt.Current_Directory>
/home/itssahil/PROJECTS/Mol_Feturizer/New_Systems/rnas/3DIZ

>  <Rbt.Executable>
rbdock ($Id: //depot/dev/client3/rdock/2013.1/src/exe/rbdock.cxx#4 $)

>  <Rbt.Library>
libRbt.so (2013.1, Build901 2013/11/27)

>  <Rbt.Parameter_File>
/export/apps/rDock/src/rDock_2013.1_src/data/scripts/dock_solv.prm

>  <Rbt.Receptor>
prm/blind_docking_100.prm

>  <SCORE>
-7.75942

>  <SCORE.INTER>
-6.06285

>  <SCORE.INTER.CONST>
1

>  <SCORE.INTER.POLAR>
0

>  <SCORE.INTER.ROT>
5

>  <SCORE.INTER.SOLV>
7.13258

>  <SCORE.INTER.VDW>
-13.3528

>  <SCORE.INTER.norm>
-0.606285

>  <SCORE.INTRA>
-1.69657

>  <SCORE.INTRA.DIHEDRAL>
-1.84379

>  <SCORE.INTRA.DIHEDRAL.0>
3.67053

>  <SCORE.INTRA.POLAR>
0

>  <SCORE.INTRA.POLAR.0>
0

>  <SCORE.INTRA.REPUL>
0

>  <SCORE.INTRA.REPUL.0>
0

>  <SCORE.INTRA.SOLV>
-0.909436

>  <SCORE.INTRA.SOLV.lig_0>
-32.0553

>  <SCORE.INTRA.VDW>
-0.319954

>  <SCORE.INTRA.VDW.0>
-0.571921

>  <SCORE.INTRA.norm>
-0.169657

>  <SCORE.RESTR>
0

>  <SCORE.RESTR.CAVITY>
0

>  <SCORE.RESTR.norm>
0

>  <SCORE.SYSTEM>
0

>  <SCORE.SYSTEM.CONST>
0

>  <SCORE.SYSTEM.DIHEDRAL>
0

>  <SCORE.SYSTEM.SOLV>
0

>  <SCORE.SYSTEM.norm>
0

>  <SCORE.heavy>
10

>  <SCORE.norm>
-0.775942

>  <RMSD>
47.993

$$$$
ligand
 OpenBabel11021811473D
libRbt.so/2013.1/901 2013/11/27
 10  9  0  0  0  0  0  0  0  0999 V2000
    0.9860   48.7296    1.9078 N   0  0  0  0  0  0  0  0  0  0  0  0
    0.4599   47.4179    2.3915 C   0  0  2  0  0  0  0  0  0  0  0  0
    1.5850   46.4882    2.8264 C   0  0  0  0  0  0  0  0  0  0  0  0
    2.5984   46.3519    2.1497 O   0  0  0  0  0  0  0  0  0  0  0  0
   -0.4173   46.7537    1.3273 C   0  0  0  0  0  0  0  0  0  0  0  0
   -1.6394   47.5711    0.9454 C   0  0  0  0  0  0  0  0  0  0  0  0
   -2.5206   46.8322   -0.0541 C   0  0  0  0  0  0  0  0  0  0  0  0
   -3.6521   47.7253   -0.5359 C   0  0  0  0  0  0  0  0  0  0  0  0
   -4.5932   48.1206    0.5718 N   0  0  0  0  0  0  0  0  0  0  0  0
    1.5437   45.8624    3.8769 O   0  0  0  0  0  0  0  0  0  0  0  0
  2  1  1  6  0  0  0
  2  3  1  0  0  0  0
  2  5  1  0  0  0  0
  3  4  1  0  0  0  0
  3 10  1  0  0  0  0
  5  6  1  0  0  0  0
  6  7  1  0  0  0  0
  7  8  1  0  0  0  0
  8  9  1  0  0  0  0
M  END
>  <CHROM.1>
-44.71016292,-60.99752410,-176.65564975,-173.82608666,-63.51141379,-0.52895024
47.16309282,1.55748909,-0.35769871,-0.36126131,-0.42550600

>  <Name>
ligand

>  <RI>
0

>  <Rbt.Current_Directory>
/home/itssahil/PROJECTS/Mol_Feturizer/New_Systems/rnas/3DIZ

>  <Rbt.Executable>
rbdock ($Id: //depot/dev/client3/rdock/2013.1/src/exe/rbdock.cxx#4 $)

>  <Rbt.Library>
libRbt.so (2013.1, Build901 2013/11/27)

>  <Rbt.Parameter_File>
/export/apps/rDock/src/rDock_2013.1_src/data/scripts/dock_solv.prm

>  <Rbt.Receptor>
prm/blind_docking_100.prm

>  <SCORE>
-7.18286

>  <SCORE.INTER>
-6.10399

>  <SCORE.INTER.CONST>
1

>  <SCORE.INTER.POLAR>
0

>  <SCORE.INTER.ROT>
5

>  <SCORE.INTER.SOLV>
4.74738

>  <SCORE.INTER.VDW>
-12.5851

>  <SCORE.INTER.norm>
-0.610399

>  <SCORE.INTRA>
-1.07888

>  <SCORE.INTRA.DIHEDRAL>
-1.86979

>  <SCORE.INTRA.DIHEDRAL.0>
3.67053

>  <SCORE.INTRA.POLAR>
0

>  <SCORE.INTRA.POLAR.0>
0

>  <SCORE.INTRA.REPUL>
0

>  <SCORE.INTRA.REPUL.0>
0

>  <SCORE.INTRA.SOLV>
0.0616601

>  <SCORE.INTRA.SOLV.lig_0>
-32.0553

>  <SCORE.INTRA.VDW>
-0.174812

>  <SCORE.INTRA.VDW.0>
-0.571921

>  <SCORE.INTRA.norm>
-0.107888

>  <SCORE.RESTR>
0

>  <SCORE.RESTR.CAVITY>
0

>  <SCORE.RESTR.norm>
0

>  <SCORE.SYSTEM>
0

>  <SCORE.SYSTEM.CONST>
0

>  <SCORE.SYSTEM.DIHEDRAL>
0

>  <SCORE.SYSTEM.SOLV>
0

>  <SCORE.SYSTEM.norm>
0

>  <SCORE.heavy>
10

>  <SCORE.norm>
-0.718286

>  <RMSD>
48.020

$$$$
ligand
 OpenBabel11021811473D
libRbt.so/2013.1/901 2013/11/27
 10  9  0  0  0  0  0  0  0  0999 V2000
    1.1825   48.7547    1.9680 N   0  0  0  0  0  0  0  0  0  0  0  0
    0.5595   47.4495    2.3420 C   0  0  2  0  0  0  0  0  0  0  0  0
    1.6104   46.4146    2.7214 C   0  0  0  0  0  0  0  0  0  0  0  0
    2.6361   46.2754    2.0641 O   0  0  0  0  0  0  0  0  0  0  0  0
   -0.3387   46.9293    1.2170 C   0  0  0  0  0  0  0  0  0  0  0  0
   -1.4340   47.9004    0.8108 C   0  0  0  0  0  0  0  0  0  0  0  0
   -2.4102   48.1568    1.9521 C   0  0  0  0  0  0  0  0  0  0  0  0
   -3.5347   49.0746    1.5013 C   0  0  0  0  0  0  0  0  0  0  0  0
   -4.5320   49.3533    2.5952 N   0  0  0  0  0  0  0  0  0  0  0  0
    1.4952   45.7007    3.7083 O   0  0  0  0  0  0  0  0  0  0  0  0
  2  1  1  6  0  0  0
  2  3  1  0  0  0  0
  2  5  1  0  0  0  0
  3  4  1  0  0  0  0
  3 10  1  0  0  0  0
  5  6  1  0  0  0  0
  6  7  1  0  0  0  0
  7  8  1  0  0  0  0
  8  9  1  0  0  0  0
M  END
>  <CHROM.1>
-43.50028881,-56.74966880,-63.44932514,-177.13206207,179.71143883,-0.44238378
47.57345759,2.09942380,-0.34630327,0.28938421,-0.95074331

>  <Name>
ligand

>  <RI>
0

>  <Rbt.Current_Directory>
/home/itssahil/PROJECTS/Mol_Feturizer/New_Systems/rnas/3DIZ

>  <Rbt.Executable>
rbdock ($Id: //depot/dev/client3/rdock/2013.1/src/exe/rbdock.cxx#4 $)

>  <Rbt.Library>
libRbt.so (2013.1, Build901 2013/11/27)

>  <Rbt.Parameter_File>
/export/apps/rDock/src/rDock_2013.1_src/data/scripts/dock_solv.prm

>  <Rbt.Receptor>
prm/blind_docking_100.prm

>  <SCORE>
-5.71901

>  <SCORE.INTER>
-4.66889

>  <SCORE.INTER.CONST>
1

>  <SCORE.INTER.POLAR>
0

>  <SCORE.INTER.ROT>
5

>  <SCORE.INTER.SOLV>
4.41016

>  <SCORE.INTER.VDW>
-11.516

>  <SCORE.INTER.norm>
-0.466889

>  <SCORE.INTRA>
-1.05012

>  <SCORE.INTRA.DIHEDRAL>
-2.00621

>  <SCORE.INTRA.DIHEDRAL.0>
3.67053

>  <SCORE.INTRA.POLAR>
0

>  <SCORE.INTRA.POLAR.0>
0

>  <SCORE.INTRA.REPUL>
0

>  <SCORE.INTRA.REPUL.0>
0

>  <SCORE.INTRA.SOLV>
-0.187074

>  <SCORE.INTRA.SOLV.lig_0>
-32.0553

>  <SCORE.INTRA.VDW>
0.0465263

>  <SCORE.INTRA.VDW.0>
-0.571921

>  <SCORE.INTRA.norm>
-0.105012

>  <SCORE.RESTR>
0

>  <SCORE.RESTR.CAVITY>
0

>  <SCORE.RESTR.norm>
0

>  <SCORE.SYSTEM>
0

>  <SCORE.SYSTEM.CONST>
0

>  <SCORE.SYSTEM.DIHEDRAL>
0

>  <SCORE.SYSTEM.SOLV>
0

>  <SCORE.SYSTEM.norm>
0

>  <SCORE.heavy>
10

>  <SCORE.norm>
-0.571901

>  <RMSD>
48.038

$$$$
ligand
 OpenBabel11021811473D
libRbt.so/2013.1/901 2013/11/27
 10  9  0  0  0  0  0  0  0  0999 V2000
   -0.2230   47.1006    0.6841 N   0  0  0  0  0  0  0  0  0  0  0  0
    1.1285   47.4864    1.1899 C   0  0  2  0  0  0  0  0  0  0  0  0
    1.5946   46.5615    2.3064 C   0  0  0  0  0  0  0  0  0  0  0  0
    2.7833   46.3115    2.4742 O   0  0  0  0  0  0  0  0  0  0  0  0
    1.1456   48.9471    1.6472 C   0  0  0  0  0  0  0  0  0  0  0  0
    0.0863   49.2749    2.6856 C   0  0  0  0  0  0  0  0  0  0  0  0
   -1.3032   49.3549    2.0657 C   0  0  0  0  0  0  0  0  0  0  0  0
   -2.3037   49.9194    3.0609 C   0  0  0  0  0  0  0  0  0  0  0  0
   -3.7185   49.8874    2.5452 N   0  0  0  0  0  0  0  0  0  0  0  0
    0.8142   46.0531    3.0997 O   0  0  0  0  0  0  0  0  0  0  0  0
  2  1  1  1  0  0  0
  2  3  1  0  0  0  0
  2  5  1  0  0  0  0
  3  4  1  0  0  0  0
  3 10  1  0  0  0  0
  5  6  1  0  0  0  0
  6  7  1  0  0  0  0
  7  8  1  0  0  0  0
  8  9  1  0  0  0  0
M  END
>  <CHROM.1>
148.80914553,55.22133982,-74.30805480,-170.02577193,-174.11295404,0.02041156
48.06235905,2.19831082,0.56444587,-0.31703935,2.79035069

>  <Name>
ligand

>  <RI>
0

>  <Rbt.Current_Directory>
/home/itssahil/PROJECTS/Mol_Feturizer/New_Systems/rnas/3DIZ

>  <Rbt.Executable>
rbdock ($Id: //depot/dev/client3/rdock/2013.1/src/exe/rbdock.cxx#4 $)

>  <Rbt.Library>
libRbt.so (2013.1, Build901 2013/11/27)

>  <Rbt.Parameter_File>
/export/apps/rDock/src/rDock_2013.1_src/data/scripts/dock_solv.prm

>  <Rbt.Receptor>
prm/blind_docking_80.prm

>  <SCORE>
-3.73864

>  <SCORE.INTER>
-3.92489

>  <SCORE.INTER.CONST>
1

>  <SCORE.INTER.POLAR>
0

>  <SCORE.INTER.ROT>
5

>  <SCORE.INTER.SOLV>
8.33491

>  <SCORE.INTER.VDW>
-12.3282

>  <SCORE.INTER.norm>
-0.392489

>  <SCORE.INTRA>
0.186257

>  <SCORE.INTRA.DIHEDRAL>
-0.771607

>  <SCORE.INTRA.DIHEDRAL.0>
3.67053

>  <SCORE.INTRA.POLAR>
0

>  <SCORE.INTRA.POLAR.0>
0

>  <SCORE.INTRA.REPUL>
0

>  <SCORE.INTRA.REPUL.0>
0

>  <SCORE.INTRA.SOLV>
0.707693

>  <SCORE.INTRA.SOLV.lig_0>
-32.0553

>  <SCORE.INTRA.VDW>
0.218214

>  <SCORE.INTRA.VDW.0>
-0.571921

>  <SCORE.INTRA.norm>
0.0186257

>  <SCORE.RESTR>
0

>  <SCORE.RESTR.CAVITY>
0

>  <SCORE.RESTR.norm>
0

>  <SCORE.SYSTEM>
0

>  <SCORE.SYSTEM.CONST>
0

>  <SCORE.SYSTEM.DIHEDRAL>
0

>  <SCORE.SYSTEM.SOLV>
0

>  <SCORE.SYSTEM.norm>
0

>  <SCORE.heavy>
10

>  <SCORE.norm>
-0.373864

>  <RMSD>
48.047

$$$$
ligand
 OpenBabel11021811473D
libRbt.so/2013.1/901 2013/11/27
 10  9  0  0  0  0  0  0  0  0999 V2000
   -1.4594   48.6267    0.3717 N   0  0  0  0  0  0  0  0  0  0  0  0
   -0.5184   47.5055    0.0733 C   0  0  2  0  0  0  0  0  0  0  0  0
   -1.2486   46.1733   -0.0322 C   0  0  0  0  0  0  0  0  0  0  0  0
   -2.0352   45.8058    0.8337 O   0  0  0  0  0  0  0  0  0  0  0  0
    0.5985   47.4355    1.1178 C   0  0  0  0  0  0  0  0  0  0  0  0
    0.1198   47.0170    2.4974 C   0  0  0  0  0  0  0  0  0  0  0  0
    1.1912   47.2424    3.5569 C   0  0  0  0  0  0  0  0  0  0  0  0
    1.2015   48.6929    4.0107 C   0  0  0  0  0  0  0  0  0  0  0  0
    1.6503   49.6382    2.9274 N   0  0  0  0  0  0  0  0  0  0  0  0
   -1.1084   45.4277   -0.9921 O   0  0  0  0  0  0  0  0  0  0  0  0
  2  1  1  1  0  0  0
  2  3  1  0  0  0  0
  2  5  1  0  0  0  0
  3  4  1  0  0  0  0
  3 10  1  0  0  0  0
  5  6  1  0  0  0  0
  6  7  1  0  0  0  0
  7  8  1  0  0  0  0
  8  9  1  0  0  0  0
M  END
>  <CHROM.1>
-49.81726205,68.22857429,-168.01776269,81.77522841,-67.20047022,-0.18229700
47.32319660,1.42474827,2.98894596,1.01282500,2.72486479

>  <Name>
ligand

>  <RI>
0

>  <Rbt.Current_Directory>
/home/itssahil/PROJECTS/Mol_Feturizer/New_Systems/rnas/3DIZ

>  <Rbt.Executable>
rbdock ($Id: //depot/dev/client3/rdock/2013.1/src/exe/rbdock.cxx#4 $)

>  <Rbt.Library>
libRbt.so (2013.1, Build901 2013/11/27)

>  <Rbt.Parameter_File>
/export/apps/rDock/src/rDock_2013.1_src/data/scripts/dock_solv.prm

>  <Rbt.Receptor>
prm/blind_docking_80.prm

>  <SCORE>
-5.7414

>  <SCORE.INTER>
-7.4211

>  <SCORE.INTER.CONST>
1

>  <SCORE.INTER.POLAR>
0

>  <SCORE.INTER.ROT>
5

>  <SCORE.INTER.SOLV>
6.00086

>  <SCORE.INTER.VDW>
-13.881

>  <SCORE.INTER.norm>
-0.74211

>  <SCORE.INTRA>
1.6797

>  <SCORE.INTRA.DIHEDRAL>
0.662518

>  <SCORE.INTRA.DIHEDRAL.0>
3.67053

>  <SCORE.INTRA.POLAR>
0

>  <SCORE.INTRA.POLAR.0>
0

>  <SCORE.INTRA.REPUL>
0

>  <SCORE.INTRA.REPUL.0>
0

>  <SCORE.INTRA.SOLV>
1.91688

>  <SCORE.INTRA.SOLV.lig_0>
-32.0553

>  <SCORE.INTRA.VDW>
0.390003

>  <SCORE.INTRA.VDW.0>
-0.571921

>  <SCORE.INTRA.norm>
0.16797

>  <SCORE.RESTR>
0

>  <SCORE.RESTR.CAVITY>
0

>  <SCORE.RESTR.norm>
0

>  <SCORE.SYSTEM>
0

>  <SCORE.SYSTEM.CONST>
0

>  <SCORE.SYSTEM.DIHEDRAL>
0

>  <SCORE.SYSTEM.SOLV>
0

>  <SCORE.SYSTEM.norm>
0

>  <SCORE.heavy>
10

>  <SCORE.norm>
-0.57414

>  <RMSD>
48.098

$$$$
ligand
 OpenBabel11021811473D
libRbt.so/2013.1/901 2013/11/27
 10  9  0  0  0  0  0  0  0  0999 V2000
    0.7797   48.7530    2.0516 N   0  0  0  0  0  0  0  0  0  0  0  0
    0.3570   47.3487    2.3356 C   0  0  2  0  0  0  0  0  0  0  0  0
    1.5485   46.4605    2.6679 C   0  0  0  0  0  0  0  0  0  0  0  0
    1.5530   45.7436    3.6627 O   0  0  0  0  0  0  0  0  0  0  0  0
   -0.4459   46.7716    1.1670 C   0  0  0  0  0  0  0  0  0  0  0  0
   -1.8132   47.4094    0.9907 C   0  0  0  0  0  0  0  0  0  0  0  0
   -2.5980   46.7546   -0.1393 C   0  0  0  0  0  0  0  0  0  0  0  0
   -4.0201   47.2891   -0.1858 C   0  0  0  0  0  0  0  0  0  0  0  0
   -4.0771   48.7668   -0.4717 N   0  0  0  0  0  0  0  0  0  0  0  0
    2.5359   46.3987    1.9480 O   0  0  0  0  0  0  0  0  0  0  0  0
  2  1  1  6  0  0  0
  2  3  1  0  0  0  0
  2  5  1  0  0  0  0
  3  4  1  0  0  0  0
  3 10  1  0  0  0  0
  5  6  1  0  0  0  0
  6  7  1  0  0  0  0
  7  8  1  0  0  0  0
  8  9  1  0  0  0  0
M  END
>  <CHROM.1>
130.07548327,-69.02880469,-177.18285712,173.00616681,62.54001608,-0.58120064
47.14728335,1.41732296,-0.25759925,-0.47410070,-0.12034504

>  <Name>
ligand

>  <RI>
0

>  <Rbt.Current_Directory>
/home/itssahil/PROJECTS/Mol_Feturizer/New_Systems/rnas/3DIZ

>  <Rbt.Executable>
rbdock ($Id: //depot/dev/client3/rdock/2013.1/src/exe/rbdock.cxx#4 $)

>  <Rbt.Library>
libRbt.so (2013.1, Build901 2013/11/27)

>  <Rbt.Parameter_File>
/export/apps/rDock/src/rDock_2013.1_src/data/scripts/dock_solv.prm

>  <Rbt.Receptor>
prm/blind_docking_80.prm

>  <SCORE>
-7.95358

>  <SCORE.INTER>
-6.90611

>  <SCORE.INTER.CONST>
1

>  <SCORE.INTER.POLAR>
0

>  <SCORE.INTER.ROT>
5

>  <SCORE.INTER.SOLV>
3.31456

>  <SCORE.INTER.VDW>
-12.6423

>  <SCORE.INTER.norm>
-0.690611

>  <SCORE.INTRA>
-1.04747

>  <SCORE.INTRA.DIHEDRAL>
-1.59899

>  <SCORE.INTRA.DIHEDRAL.0>
3.67053

>  <SCORE.INTRA.POLAR>
0

>  <SCORE.INTRA.POLAR.0>
0

>  <SCORE.INTRA.REPUL>
0

>  <SCORE.INTRA.REPUL.0>
0

>  <SCORE.INTRA.SOLV>
-0.0489102

>  <SCORE.INTRA.SOLV.lig_0>
-32.0553

>  <SCORE.INTRA.VDW>
-0.223522

>  <SCORE.INTRA.VDW.0>
-0.571921

>  <SCORE.INTRA.norm>
-0.104747

>  <SCORE.RESTR>
0

>  <SCORE.RESTR.CAVITY>
0

>  <SCORE.RESTR.norm>
0

>  <SCORE.SYSTEM>
0

>  <SCORE.SYSTEM.CONST>
0

>  <SCORE.SYSTEM.DIHEDRAL>
0

>  <SCORE.SYSTEM.SOLV>
0

>  <SCORE.SYSTEM.norm>
0

>  <SCORE.heavy>
10

>  <SCORE.norm>
-0.795358

>  <RMSD>
48.100

$$$$
ligand
 OpenBabel11021811473D
libRbt.so/2013.1/901 2013/11/27
 10  9  0  0  0  0  0  0  0  0999 V2000
    1.3732   46.5489    2.8061 N   0  0  0  0  0  0  0  0  0  0  0  0
    0.9575   47.9399    2.4543 C   0  0  2  0  0  0  0  0  0  0  0  0
    1.3899   48.9405    3.5178 C   0  0  0  0  0  0  0  0  0  0  0  0
    1.2198   48.7173    4.7114 O   0  0  0  0  0  0  0  0  0  0  0  0
   -0.5523   48.0159    2.2139 C   0  0  0  0  0  0  0  0  0  0  0  0
   -1.0135   47.2603    0.9795 C   0  0  0  0  0  0  0  0  0  0  0  0
   -2.4972   47.4772    0.7088 C   0  0  0  0  0  0  0  0  0  0  0  0
   -2.9026   46.8348   -0.6077 C   0  0  0  0  0  0  0  0  0  0  0  0
   -4.3199   47.1594   -1.0012 N   0  0  0  0  0  0  0  0  0  0  0  0
    1.9494   49.9912    3.2348 O   0  0  0  0  0  0  0  0  0  0  0  0
  2  1  1  1  0  0  0
  2  3  1  0  0  0  0
  2  5  1  0  0  0  0
  3  4  1  0  0  0  0
  3 10  1  0  0  0  0
  5  6  1  0  0  0  0
  6  7  1  0  0  0  0
  7  8  1  0  0  0  0
  8  9  1  0  0  0  0
M  END
>  <CHROM.1>
-45.93041510,-67.20314627,-174.48193354,173.99938885,-173.19120600,-0.41880031
47.91442195,1.93292141,-0.40345142,0.64098591,-2.91700092

>  <Name>
ligand

>  <RI>
0

>  <Rbt.Current_Directory>
/home/itssahil/PROJECTS/Mol_Feturizer/New_Systems/rnas/3DIZ

>  <Rbt.Executable>
rbdock ($Id: //depot/dev/client3/rdock/2013.1/src/exe/rbdock.cxx#4 $)

>  <Rbt.Library>
libRbt.so (2013.1, Build901 2013/11/27)

>  <Rbt.Parameter_File>
/export/apps/rDock/src/rDock_2013.1_src/data/scripts/dock_solv.prm

>  <Rbt.Receptor>
prm/blind_docking_100.prm

>  <SCORE>
-4.31274

>  <SCORE.INTER>
-2.79003

>  <SCORE.INTER.CONST>
1

>  <SCORE.INTER.POLAR>
0

>  <SCORE.INTER.ROT>
5

>  <SCORE.INTER.SOLV>
9.8128

>  <SCORE.INTER.VDW>
-12.0643

>  <SCORE.INTER.norm>
-0.279003

>  <SCORE.INTRA>
-1.52271

>  <SCORE.INTRA.DIHEDRAL>
-1.46238

>  <SCORE.INTRA.DIHEDRAL.0>
3.67053

>  <SCORE.INTRA.POLAR>
0

>  <SCORE.INTRA.POLAR.0>
0

>  <SCORE.INTRA.REPUL>
0

>  <SCORE.INTRA.REPUL.0>
0

>  <SCORE.INTRA.SOLV>
-0.928478

>  <SCORE.INTRA.SOLV.lig_0>
-32.0553

>  <SCORE.INTRA.VDW>
-0.327283

>  <SCORE.INTRA.VDW.0>
-0.571921

>  <SCORE.INTRA.norm>
-0.152271

>  <SCORE.RESTR>
0

>  <SCORE.RESTR.CAVITY>
0

>  <SCORE.RESTR.norm>
0

>  <SCORE.SYSTEM>
0

>  <SCORE.SYSTEM.CONST>
0

>  <SCORE.SYSTEM.DIHEDRAL>
0

>  <SCORE.SYSTEM.SOLV>
0

>  <SCORE.SYSTEM.norm>
0

>  <SCORE.heavy>
10

>  <SCORE.norm>
-0.431274

>  <RMSD>
48.236

$$$$
ligand
 OpenBabel11021811473D
libRbt.so/2013.1/901 2013/11/27
 10  9  0  0  0  0  0  0  0  0999 V2000
   -0.7287   49.2459    2.4202 N   0  0  0  0  0  0  0  0  0  0  0  0
   -0.2682   47.8464    2.6668 C   0  0  2  0  0  0  0  0  0  0  0  0
    0.8697   47.8002    3.6777 C   0  0  0  0  0  0  0  0  0  0  0  0
    1.2353   48.8071    4.2743 O   0  0  0  0  0  0  0  0  0  0  0  0
    0.1358   47.1642    1.3574 C   0  0  0  0  0  0  0  0  0  0  0  0
   -1.0346   46.5761    0.5881 C   0  0  0  0  0  0  0  0  0  0  0  0
   -2.0082   47.6560    0.1329 C   0  0  0  0  0  0  0  0  0  0  0  0
   -3.2065   47.0380   -0.5687 C   0  0  0  0  0  0  0  0  0  0  0  0
   -4.2194   48.0646   -1.0032 N   0  0  0  0  0  0  0  0  0  0  0  0
    1.4474   46.7596    3.9614 O   0  0  0  0  0  0  0  0  0  0  0  0
  2  1  1  6  0  0  0
  2  3  1  0  0  0  0
  2  5  1  0  0  0  0
  3  4  1  0  0  0  0
  3 10  1  0  0  0  0
  5  6  1  0  0  0  0
  6  7  1  0  0  0  0
  7  8  1  0  0  0  0
  8  9  1  0  0  0  0
M  END
>  <CHROM.1>
6.18006696,-83.12991769,63.65386347,-176.97316185,178.33844569,-0.74519605
47.69542732,1.78308790,0.43425837,-0.69526684,0.54318216

>  <Name>
ligand

>  <RI>
0

>  <Rbt.Current_Directory>
/home/itssahil/PROJECTS/Mol_Feturizer/New_Systems/rnas/3DIZ

>  <Rbt.Executable>
rbdock ($Id: //depot/dev/client3/rdock/2013.1/src/exe/rbdock.cxx#4 $)

>  <Rbt.Library>
libRbt.so (2013.1, Build901 2013/11/27)

>  <Rbt.Parameter_File>
/export/apps/rDock/src/rDock_2013.1_src/data/scripts/dock_solv.prm

>  <Rbt.Receptor>
prm/blind_docking_100.prm

>  <SCORE>
-5.72334

>  <SCORE.INTER>
-5.99294

>  <SCORE.INTER.CONST>
1

>  <SCORE.INTER.POLAR>
0

>  <SCORE.INTER.ROT>
5

>  <SCORE.INTER.SOLV>
4.83246

>  <SCORE.INTER.VDW>
-12.5394

>  <SCORE.INTER.norm>
-0.599294

>  <SCORE.INTRA>
0.2696

>  <SCORE.INTRA.DIHEDRAL>
-0.173006

>  <SCORE.INTRA.DIHEDRAL.0>
3.67053

>  <SCORE.INTRA.POLAR>
0

>  <SCORE.INTRA.POLAR.0>
0

>  <SCORE.INTRA.REPUL>
0

>  <SCORE.INTRA.REPUL.0>
0

>  <SCORE.INTRA.SOLV>
0.208773

>  <SCORE.INTRA.SOLV.lig_0>
-32.0553

>  <SCORE.INTRA.VDW>
0.251716

>  <SCORE.INTRA.VDW.0>
-0.571921

>  <SCORE.INTRA.norm>
0.02696

>  <SCORE.RESTR>
0

>  <SCORE.RESTR.CAVITY>
0

>  <SCORE.RESTR.norm>
0

>  <SCORE.SYSTEM>
0

>  <SCORE.SYSTEM.CONST>
0

>  <SCORE.SYSTEM.DIHEDRAL>
0

>  <SCORE.SYSTEM.SOLV>
0

>  <SCORE.SYSTEM.norm>
0

>  <SCORE.heavy>
10

>  <SCORE.norm>
-0.572334

>  <RMSD>
48.405

$$$$
ligand
 OpenBabel11021811473D
libRbt.so/2013.1/901 2013/11/27
 10  9  0  0  0  0  0  0  0  0999 V2000
   -2.2965   48.5711   -0.6023 N   0  0  0  0  0  0  0  0  0  0  0  0
   -2.5066   47.1600   -0.1598 C   0  0  2  0  0  0  0  0  0  0  0  0
   -3.7294   47.0300    0.7386 C   0  0  0  0  0  0  0  0  0  0  0  0
   -4.6321   46.2418    0.4786 O   0  0  0  0  0  0  0  0  0  0  0  0
   -1.2574   46.6122    0.5348 C   0  0  0  0  0  0  0  0  0  0  0  0
   -0.7741   47.4716    1.6903 C   0  0  0  0  0  0  0  0  0  0  0  0
    0.4849   46.8988    2.3293 C   0  0  0  0  0  0  0  0  0  0  0  0
    0.9734   47.7974    3.4536 C   0  0  0  0  0  0  0  0  0  0  0  0
    1.3964   49.1590    2.9679 N   0  0  0  0  0  0  0  0  0  0  0  0
   -3.8531   47.6787    1.7686 O   0  0  0  0  0  0  0  0  0  0  0  0
  2  1  1  1  0  0  0
  2  3  1  0  0  0  0
  2  5  1  0  0  0  0
  3  4  1  0  0  0  0
  3 10  1  0  0  0  0
  5  6  1  0  0  0  0
  6  7  1  0  0  0  0
  7  8  1  0  0  0  0
  8  9  1  0  0  0  0
M  END
>  <CHROM.1>
125.08120279,54.38480174,-178.88467732,178.24851637,-63.90218143,-1.65664592
47.45597025,1.33338493,-2.76727255,0.34685720,1.87224476

>  <Name>
ligand

>  <RI>
0

>  <Rbt.Current_Directory>
/home/itssahil/PROJECTS/Mol_Feturizer/New_Systems/rnas/3DIZ

>  <Rbt.Executable>
rbdock ($Id: //depot/dev/client3/rdock/2013.1/src/exe/rbdock.cxx#4 $)

>  <Rbt.Library>
libRbt.so (2013.1, Build901 2013/11/27)

>  <Rbt.Parameter_File>
/export/apps/rDock/src/rDock_2013.1_src/data/scripts/dock_solv.prm

>  <Rbt.Receptor>
prm/blind_docking_80.prm

>  <SCORE>
-5.79014

>  <SCORE.INTER>
-4.87792

>  <SCORE.INTER.CONST>
1

>  <SCORE.INTER.POLAR>
0

>  <SCORE.INTER.ROT>
5

>  <SCORE.INTER.SOLV>
5.55623

>  <SCORE.INTER.VDW>
-12.0374

>  <SCORE.INTER.norm>
-0.487792

>  <SCORE.INTRA>
-0.91222

>  <SCORE.INTRA.DIHEDRAL>
-1.96809

>  <SCORE.INTRA.DIHEDRAL.0>
3.67053

>  <SCORE.INTRA.POLAR>
0

>  <SCORE.INTRA.POLAR.0>
0

>  <SCORE.INTRA.REPUL>
0

>  <SCORE.INTRA.REPUL.0>
0

>  <SCORE.INTRA.SOLV>
0.170715

>  <SCORE.INTRA.SOLV.lig_0>
-32.0553

>  <SCORE.INTRA.VDW>
-0.0135344

>  <SCORE.INTRA.VDW.0>
-0.571921

>  <SCORE.INTRA.norm>
-0.091222

>  <SCORE.RESTR>
0

>  <SCORE.RESTR.CAVITY>
0

>  <SCORE.RESTR.norm>
0

>  <SCORE.SYSTEM>
0

>  <SCORE.SYSTEM.CONST>
0

>  <SCORE.SYSTEM.DIHEDRAL>
0

>  <SCORE.SYSTEM.SOLV>
0

>  <SCORE.SYSTEM.norm>
0

>  <SCORE.heavy>
10

>  <SCORE.norm>
-0.579014

>  <RMSD>
49.178

$$$$
ligand
 OpenBabel11021811473D
libRbt.so/2013.1/901 2013/11/27
 10  9  0  0  0  0  0  0  0  0999 V2000
   -2.8344   48.5867   -0.9707 N   0  0  0  0  0  0  0  0  0  0  0  0
   -2.8410   47.1113   -0.7372 C   0  0  2  0  0  0  0  0  0  0  0  0
   -4.2569   46.5507   -0.7309 C   0  0  0  0  0  0  0  0  0  0  0  0
   -4.9573   46.5963    0.2745 O   0  0  0  0  0  0  0  0  0  0  0  0
   -2.1077   46.7589    0.5594 C   0  0  0  0  0  0  0  0  0  0  0  0
   -0.6225   47.0760    0.5273 C   0  0  0  0  0  0  0  0  0  0  0  0
    0.0424   46.7925    1.8686 C   0  0  0  0  0  0  0  0  0  0  0  0
    1.5468   46.9873    1.7743 C   0  0  0  0  0  0  0  0  0  0  0  0
    2.2780   46.4638    2.9826 N   0  0  0  0  0  0  0  0  0  0  0  0
   -4.7678   46.0599   -1.7284 O   0  0  0  0  0  0  0  0  0  0  0  0
  2  1  1  1  0  0  0
  2  3  1  0  0  0  0
  2  5  1  0  0  0  0
  3  4  1  0  0  0  0
  3 10  1  0  0  0  0
  5  6  1  0  0  0  0
  6  7  1  0  0  0  0
  7  8  1  0  0  0  0
  8  9  1  0  0  0  0
M  END
>  <CHROM.1>
-82.91021922,-65.26643105,176.28478283,174.49454454,-168.71939978,-1.89523154
46.88568472,0.37465302,-2.79812004,0.35398926,2.32507105

>  <Name>
ligand

>  <RI>
0

>  <Rbt.Current_Directory>
/home/itssahil/PROJECTS/Mol_Feturizer/New_Systems/rnas/3DIZ

>  <Rbt.Executable>
rbdock ($Id: //depot/dev/client3/rdock/2013.1/src/exe/rbdock.cxx#4 $)

>  <Rbt.Library>
libRbt.so (2013.1, Build901 2013/11/27)

>  <Rbt.Parameter_File>
/export/apps/rDock/src/rDock_2013.1_src/data/scripts/dock_solv.prm

>  <Rbt.Receptor>
prm/blind_docking_100.prm

>  <SCORE>
-5.86733

>  <SCORE.INTER>
-4.6956

>  <SCORE.INTER.CONST>
1

>  <SCORE.INTER.POLAR>
0

>  <SCORE.INTER.ROT>
5

>  <SCORE.INTER.SOLV>
9.80134

>  <SCORE.INTER.VDW>
-13.3308

>  <SCORE.INTER.norm>
-0.46956

>  <SCORE.INTRA>
-1.17173

>  <SCORE.INTRA.DIHEDRAL>
-1.4552

>  <SCORE.INTRA.DIHEDRAL.0>
3.67053

>  <SCORE.INTRA.POLAR>
0

>  <SCORE.INTRA.POLAR.0>
0

>  <SCORE.INTRA.REPUL>
0

>  <SCORE.INTRA.REPUL.0>
0

>  <SCORE.INTRA.SOLV>
-0.864559

>  <SCORE.INTRA.SOLV.lig_0>
-32.0553

>  <SCORE.INTRA.VDW>
-0.0118548

>  <SCORE.INTRA.VDW.0>
-0.571921

>  <SCORE.INTRA.norm>
-0.117173

>  <SCORE.RESTR>
0

>  <SCORE.RESTR.CAVITY>
0

>  <SCORE.RESTR.norm>
0

>  <SCORE.SYSTEM>
0

>  <SCORE.SYSTEM.CONST>
0

>  <SCORE.SYSTEM.DIHEDRAL>
0

>  <SCORE.SYSTEM.SOLV>
0

>  <SCORE.SYSTEM.norm>
0

>  <SCORE.heavy>
10

>  <SCORE.norm>
-0.586733

>  <RMSD>
49.392

$$$$
ligand
 OpenBabel11021811473D
libRbt.so/2013.1/901 2013/11/27
 10  9  0  0  0  0  0  0  0  0999 V2000
   -2.7169   48.7479   -0.4385 N   0  0  0  0  0  0  0  0  0  0  0  0
   -2.6277   47.2571   -0.4709 C   0  0  2  0  0  0  0  0  0  0  0  0
   -4.0068   46.6137   -0.5262 C   0  0  0  0  0  0  0  0  0  0  0  0
   -4.4936   46.2366   -1.5866 O   0  0  0  0  0  0  0  0  0  0  0  0
   -1.8263   46.7305    0.7223 C   0  0  0  0  0  0  0  0  0  0  0  0
   -0.3890   47.2207    0.7575 C   0  0  0  0  0  0  0  0  0  0  0  0
    0.3107   46.8199    2.0502 C   0  0  0  0  0  0  0  0  0  0  0  0
    1.7591   47.2804    2.0424 C   0  0  0  0  0  0  0  0  0  0  0  0
    1.8924   48.7804    2.0098 N   0  0  0  0  0  0  0  0  0  0  0  0
   -4.6751   46.4174    0.4798 O   0  0  0  0  0  0  0  0  0  0  0  0
  2  1  1  1  0  0  0
  2  3  1  0  0  0  0
  2  5  1  0  0  0  0
  3  4  1  0  0  0  0
  3 10  1  0  0  0  0
  5  6  1  0  0  0  0
  6  7  1  0  0  0  0
  7  8  1  0  0  0  0
  8  9  1  0  0  0  0
M  END
>  <CHROM.1>
97.97358758,-61.34422612,172.60568213,178.10450065,64.14725664,-1.71889285
47.19351813,0.49601002,-3.07689586,0.46064050,2.60227534

>  <Name>
ligand

>  <RI>
0

>  <Rbt.Current_Directory>
/home/itssahil/PROJECTS/Mol_Feturizer/New_Systems/rnas/3DIZ

>  <Rbt.Executable>
rbdock ($Id: //depot/dev/client3/rdock/2013.1/src/exe/rbdock.cxx#4 $)

>  <Rbt.Library>
libRbt.so (2013.1, Build901 2013/11/27)

>  <Rbt.Parameter_File>
/export/apps/rDock/src/rDock_2013.1_src/data/scripts/dock_solv.prm

>  <Rbt.Receptor>
prm/blind_docking_80.prm

>  <SCORE>
-6.88869

>  <SCORE.INTER>
-6.13589

>  <SCORE.INTER.CONST>
1

>  <SCORE.INTER.POLAR>
0

>  <SCORE.INTER.ROT>
5

>  <SCORE.INTER.SOLV>
6.08217

>  <SCORE.INTER.VDW>
-13.0513

>  <SCORE.INTER.norm>
-0.613589

>  <SCORE.INTRA>
-0.752803

>  <SCORE.INTRA.DIHEDRAL>
-1.79369

>  <SCORE.INTRA.DIHEDRAL.0>
3.67053

>  <SCORE.INTRA.POLAR>
0

>  <SCORE.INTRA.POLAR.0>
0

>  <SCORE.INTRA.REPUL>
0

>  <SCORE.INTRA.REPUL.0>
0

>  <SCORE.INTRA.SOLV>
0.0951276

>  <SCORE.INTRA.SOLV.lig_0>
-32.0553

>  <SCORE.INTRA.VDW>
0.0964797

>  <SCORE.INTRA.VDW.0>
-0.571921

>  <SCORE.INTRA.norm>
-0.0752803

>  <SCORE.RESTR>
0

>  <SCORE.RESTR.CAVITY>
0

>  <SCORE.RESTR.norm>
0

>  <SCORE.SYSTEM>
0

>  <SCORE.SYSTEM.CONST>
0

>  <SCORE.SYSTEM.DIHEDRAL>
0

>  <SCORE.SYSTEM.SOLV>
0

>  <SCORE.SYSTEM.norm>
0

>  <SCORE.heavy>
10

>  <SCORE.norm>
-0.688869

>  <RMSD>
49.417

$$$$
ligand
 OpenBabel11021811473D
libRbt.so/2013.1/901 2013/11/27
 10  9  0  0  0  0  0  0  0  0999 V2000
   -2.9015   48.4855    0.9041 N   0  0  0  0  0  0  0  0  0  0  0  0
   -2.7528   47.4047   -0.1163 C   0  0  2  0  0  0  0  0  0  0  0  0
   -4.0641   46.6650   -0.3451 C   0  0  0  0  0  0  0  0  0  0  0  0
   -4.4213   46.3311   -1.4696 O   0  0  0  0  0  0  0  0  0  0  0  0
   -1.6376   46.4320    0.2750 C   0  0  0  0  0  0  0  0  0  0  0  0
   -0.2417   47.0151    0.1375 C   0  0  0  0  0  0  0  0  0  0  0  0
    0.1241   47.8869    1.3323 C   0  0  0  0  0  0  0  0  0  0  0  0
    0.5478   47.0293    2.5134 C   0  0  0  0  0  0  0  0  0  0  0  0
    0.9869   47.8482    3.6990 N   0  0  0  0  0  0  0  0  0  0  0  0
   -4.8016   46.3457    0.5775 O   0  0  0  0  0  0  0  0  0  0  0  0
  2  1  1  1  0  0  0
  2  3  1  0  0  0  0
  2  5  1  0  0  0  0
  3  4  1  0  0  0  0
  3 10  1  0  0  0  0
  5  6  1  0  0  0  0
  6  7  1  0  0  0  0
  7  8  1  0  0  0  0
  8  9  1  0  0  0  0
M  END
>  <CHROM.1>
139.40567756,-71.70647713,80.74567243,79.30748626,177.08547772,-1.95514781
47.12653035,0.73873326,2.57416411,0.00220176,-1.88450350

>  <Name>
ligand

>  <RI>
0

>  <Rbt.Current_Directory>
/home/itssahil/PROJECTS/Mol_Feturizer/New_Systems/rnas/3DIZ

>  <Rbt.Executable>
rbdock ($Id: //depot/dev/client3/rdock/2013.1/src/exe/rbdock.cxx#4 $)

>  <Rbt.Library>
libRbt.so (2013.1, Build901 2013/11/27)

>  <Rbt.Parameter_File>
/export/apps/rDock/src/rDock_2013.1_src/data/scripts/dock_solv.prm

>  <Rbt.Receptor>
prm/blind_docking_80.prm

>  <SCORE>
-3.39351

>  <SCORE.INTER>
-4.45813

>  <SCORE.INTER.CONST>
1

>  <SCORE.INTER.POLAR>
0

>  <SCORE.INTER.ROT>
5

>  <SCORE.INTER.SOLV>
8.53861

>  <SCORE.INTER.VDW>
-12.7516

>  <SCORE.INTER.norm>
-0.445813

>  <SCORE.INTRA>
1.06462

>  <SCORE.INTRA.DIHEDRAL>
1.43265

>  <SCORE.INTRA.DIHEDRAL.0>
3.67053

>  <SCORE.INTRA.POLAR>
0

>  <SCORE.INTRA.POLAR.0>
0

>  <SCORE.INTRA.REPUL>
0

>  <SCORE.INTRA.REPUL.0>
0

>  <SCORE.INTRA.SOLV>
0.640527

>  <SCORE.INTRA.SOLV.lig_0>
-32.0553

>  <SCORE.INTRA.VDW>
0.0280316

>  <SCORE.INTRA.VDW.0>
-0.571921

>  <SCORE.INTRA.norm>
0.106462

>  <SCORE.RESTR>
0

>  <SCORE.RESTR.CAVITY>
0

>  <SCORE.RESTR.norm>
0

>  <SCORE.SYSTEM>
0

>  <SCORE.SYSTEM.CONST>
0

>  <SCORE.SYSTEM.DIHEDRAL>
0

>  <SCORE.SYSTEM.SOLV>
0

>  <SCORE.SYSTEM.norm>
0

>  <SCORE.heavy>
10

>  <SCORE.norm>
-0.339351

>  <RMSD>
49.417

$$$$
ligand
 OpenBabel11021811473D
libRbt.so/2013.1/901 2013/11/27
 10  9  0  0  0  0  0  0  0  0999 V2000
   -2.8203   48.8373   -0.1149 N   0  0  0  0  0  0  0  0  0  0  0  0
   -2.6375   47.3826   -0.4011 C   0  0  2  0  0  0  0  0  0  0  0  0
   -3.9740   46.6668   -0.5441 C   0  0  0  0  0  0  0  0  0  0  0  0
   -4.3682   46.2613   -1.6321 O   0  0  0  0  0  0  0  0  0  0  0  0
   -1.7734   46.7176    0.6732 C   0  0  0  0  0  0  0  0  0  0  0  0
   -0.3738   47.2986    0.7780 C   0  0  0  0  0  0  0  0  0  0  0  0
    0.3643   46.7705    2.0019 C   0  0  0  0  0  0  0  0  0  0  0  0
    1.7757   47.3314    2.0616 C   0  0  0  0  0  0  0  0  0  0  0  0
    1.8005   48.8236    2.2648 N   0  0  0  0  0  0  0  0  0  0  0  0
   -4.6968   46.4384    0.4164 O   0  0  0  0  0  0  0  0  0  0  0  0
  2  1  1  1  0  0  0
  2  3  1  0  0  0  0
  2  5  1  0  0  0  0
  3  4  1  0  0  0  0
  3 10  1  0  0  0  0
  5  6  1  0  0  0  0
  6  7  1  0  0  0  0
  7  8  1  0  0  0  0
  8  9  1  0  0  0  0
M  END
>  <CHROM.1>
109.19250560,-60.81568266,170.54399113,178.22519402,65.08380042,-1.71088162
47.23456383,0.54026007,3.07912595,0.47497057,2.89762529

>  <Name>
ligand

>  <RI>
0

>  <Rbt.Current_Directory>
/home/itssahil/PROJECTS/Mol_Feturizer/New_Systems/rnas/3DIZ

>  <Rbt.Executable>
rbdock ($Id: //depot/dev/client3/rdock/2013.1/src/exe/rbdock.cxx#4 $)

>  <Rbt.Library>
libRbt.so (2013.1, Build901 2013/11/27)

>  <Rbt.Parameter_File>
/export/apps/rDock/src/rDock_2013.1_src/data/scripts/dock_solv.prm

>  <Rbt.Receptor>
prm/blind_docking_80.prm

>  <SCORE>
-6.69631

>  <SCORE.INTER>
-5.87549

>  <SCORE.INTER.CONST>
1

>  <SCORE.INTER.POLAR>
0

>  <SCORE.INTER.ROT>
5

>  <SCORE.INTER.SOLV>
5.36951

>  <SCORE.INTER.VDW>
-12.6402

>  <SCORE.INTER.norm>
-0.587549

>  <SCORE.INTRA>
-0.820822

>  <SCORE.INTRA.DIHEDRAL>
-1.64889

>  <SCORE.INTRA.DIHEDRAL.0>
3.67053

>  <SCORE.INTRA.POLAR>
0

>  <SCORE.INTRA.POLAR.0>
0

>  <SCORE.INTRA.REPUL>
0

>  <SCORE.INTRA.REPUL.0>
0

>  <SCORE.INTRA.SOLV>
0.103571

>  <SCORE.INTRA.SOLV.lig_0>
-32.0553

>  <SCORE.INTRA.VDW>
-0.0481645

>  <SCORE.INTRA.VDW.0>
-0.571921

>  <SCORE.INTRA.norm>
-0.0820822

>  <SCORE.RESTR>
0

>  <SCORE.RESTR.CAVITY>
0

>  <SCORE.RESTR.norm>
0

>  <SCORE.SYSTEM>
0

>  <SCORE.SYSTEM.CONST>
0

>  <SCORE.SYSTEM.DIHEDRAL>
0

>  <SCORE.SYSTEM.SOLV>
0

>  <SCORE.SYSTEM.norm>
0

>  <SCORE.heavy>
10

>  <SCORE.norm>
-0.669631

>  <RMSD>
49.422

$$$$
ligand
 OpenBabel11021811473D
libRbt.so/2013.1/901 2013/11/27
 10  9  0  0  0  0  0  0  0  0999 V2000
   -2.7380   48.7493   -0.4552 N   0  0  0  0  0  0  0  0  0  0  0  0
   -2.6303   47.2597   -0.4857 C   0  0  2  0  0  0  0  0  0  0  0  0
   -4.0013   46.5994   -0.5460 C   0  0  0  0  0  0  0  0  0  0  0  0
   -4.6698   46.4220    0.4666 O   0  0  0  0  0  0  0  0  0  0  0  0
   -1.8274   46.7442    0.7112 C   0  0  0  0  0  0  0  0  0  0  0  0
   -0.3969   47.2535    0.7527 C   0  0  0  0  0  0  0  0  0  0  0  0
    0.3116   46.8368    2.0356 C   0  0  0  0  0  0  0  0  0  0  0  0
    1.7564   47.3085    2.0290 C   0  0  0  0  0  0  0  0  0  0  0  0
    1.8782   48.8097    2.0152 N   0  0  0  0  0  0  0  0  0  0  0  0
   -4.5081   46.2454   -1.6018 O   0  0  0  0  0  0  0  0  0  0  0  0
  2  1  1  1  0  0  0
  2  3  1  0  0  0  0
  2  5  1  0  0  0  0
  3  4  1  0  0  0  0
  3 10  1  0  0  0  0
  5  6  1  0  0  0  0
  6  7  1  0  0  0  0
  7  8  1  0  0  0  0
  8  9  1  0  0  0  0
M  END
>  <CHROM.1>
-82.48923852,-61.26867675,173.82561172,177.68388789,63.93173883,-1.72426533
47.20619607,0.48426235,-3.08099623,0.46436616,2.60624864

>  <Name>
ligand

>  <RI>
0

>  <Rbt.Current_Directory>
/home/itssahil/PROJECTS/Mol_Feturizer/New_Systems/rnas/3DIZ

>  <Rbt.Executable>
rbdock ($Id: //depot/dev/client3/rdock/2013.1/src/exe/rbdock.cxx#4 $)

>  <Rbt.Library>
libRbt.so (2013.1, Build901 2013/11/27)

>  <Rbt.Parameter_File>
/export/apps/rDock/src/rDock_2013.1_src/data/scripts/dock_solv.prm

>  <Rbt.Receptor>
prm/blind_docking_100.prm

>  <SCORE>
-6.93553

>  <SCORE.INTER>
-6.11088

>  <SCORE.INTER.CONST>
1

>  <SCORE.INTER.POLAR>
0

>  <SCORE.INTER.ROT>
5

>  <SCORE.INTER.SOLV>
6.0053

>  <SCORE.INTER.VDW>
-13.009

>  <SCORE.INTER.norm>
-0.611088

>  <SCORE.INTRA>
-0.824645

>  <SCORE.INTRA.DIHEDRAL>
-1.97842

>  <SCORE.INTRA.DIHEDRAL.0>
3.67053

>  <SCORE.INTRA.POLAR>
0

>  <SCORE.INTRA.POLAR.0>
0

>  <SCORE.INTRA.REPUL>
0

>  <SCORE.INTRA.REPUL.0>
0

>  <SCORE.INTRA.SOLV>
0.105494

>  <SCORE.INTRA.SOLV.lig_0>
-32.0553

>  <SCORE.INTRA.VDW>
0.11182

>  <SCORE.INTRA.VDW.0>
-0.571921

>  <SCORE.INTRA.norm>
-0.0824645

>  <SCORE.RESTR>
0

>  <SCORE.RESTR.CAVITY>
0

>  <SCORE.RESTR.norm>
0

>  <SCORE.SYSTEM>
0

>  <SCORE.SYSTEM.CONST>
0

>  <SCORE.SYSTEM.DIHEDRAL>
0

>  <SCORE.SYSTEM.SOLV>
0

>  <SCORE.SYSTEM.norm>
0

>  <SCORE.heavy>
10

>  <SCORE.norm>
-0.693553

>  <RMSD>
49.434

$$$$
ligand
 OpenBabel11021811473D
libRbt.so/2013.1/901 2013/11/27
 10  9  0  0  0  0  0  0  0  0999 V2000
   -2.8774   48.3990    0.9290 N   0  0  0  0  0  0  0  0  0  0  0  0
   -2.7275   47.3557   -0.1295 C   0  0  2  0  0  0  0  0  0  0  0  0
   -4.0509   46.6628   -0.4256 C   0  0  0  0  0  0  0  0  0  0  0  0
   -4.8092   46.3223    0.4758 O   0  0  0  0  0  0  0  0  0  0  0  0
   -1.6511   46.3372    0.2541 C   0  0  0  0  0  0  0  0  0  0  0  0
   -0.2619   46.9371    0.3878 C   0  0  0  0  0  0  0  0  0  0  0  0
   -0.0973   47.6873    1.7037 C   0  0  0  0  0  0  0  0  0  0  0  0
    1.3089   48.2502    1.8289 C   0  0  0  0  0  0  0  0  0  0  0  0
    1.5032   49.0557    3.0867 N   0  0  0  0  0  0  0  0  0  0  0  0
   -4.4297   46.4424   -1.5679 O   0  0  0  0  0  0  0  0  0  0  0  0
  2  1  1  1  0  0  0
  2  3  1  0  0  0  0
  2  5  1  0  0  0  0
  3  4  1  0  0  0  0
  3 10  1  0  0  0  0
  5  6  1  0  0  0  0
  6  7  1  0  0  0  0
  7  8  1  0  0  0  0
  8  9  1  0  0  0  0
M  END
>  <CHROM.1>
-42.95027900,-62.83582431,77.52690864,178.67783098,177.37352552,-1.84961057
47.32732582,0.64138634,2.59777783,0.06557438,-2.26069022

>  <Name>
ligand

>  <RI>
0

>  <Rbt.Current_Directory>
/home/itssahil/PROJECTS/Mol_Feturizer/New_Systems/rnas/3DIZ

>  <Rbt.Executable>
rbdock ($Id: //depot/dev/client3/rdock/2013.1/src/exe/rbdock.cxx#4 $)

>  <Rbt.Library>
libRbt.so (2013.1, Build901 2013/11/27)

>  <Rbt.Parameter_File>
/export/apps/rDock/src/rDock_2013.1_src/data/scripts/dock_solv.prm

>  <Rbt.Receptor>
prm/blind_docking_80.prm

>  <SCORE>
-5.07784

>  <SCORE.INTER>
-4.84416

>  <SCORE.INTER.CONST>
1

>  <SCORE.INTER.POLAR>
0

>  <SCORE.INTER.ROT>
5

>  <SCORE.INTER.SOLV>
5.31374

>  <SCORE.INTER.VDW>
-11.934

>  <SCORE.INTER.norm>
-0.484416

>  <SCORE.INTRA>
-0.233678

>  <SCORE.INTRA.DIHEDRAL>
-0.85161

>  <SCORE.INTRA.DIHEDRAL.0>
3.67053

>  <SCORE.INTRA.POLAR>
0

>  <SCORE.INTRA.POLAR.0>
0

>  <SCORE.INTRA.REPUL>
0

>  <SCORE.INTRA.REPUL.0>
0

>  <SCORE.INTRA.SOLV>
0.544241

>  <SCORE.INTRA.SOLV.lig_0>
-32.0553

>  <SCORE.INTRA.VDW>
-0.0799936

>  <SCORE.INTRA.VDW.0>
-0.571921

>  <SCORE.INTRA.norm>
-0.0233678

>  <SCORE.RESTR>
0

>  <SCORE.RESTR.CAVITY>
0

>  <SCORE.RESTR.norm>
0

>  <SCORE.SYSTEM>
0

>  <SCORE.SYSTEM.CONST>
0

>  <SCORE.SYSTEM.DIHEDRAL>
0

>  <SCORE.SYSTEM.SOLV>
0

>  <SCORE.SYSTEM.norm>
0

>  <SCORE.heavy>
10

>  <SCORE.norm>
-0.507784

>  <RMSD>
49.530

$$$$
ligand
 OpenBabel11021811473D
libRbt.so/2013.1/901 2013/11/27
 10  9  0  0  0  0  0  0  0  0999 V2000
   -0.7344   50.5950   11.4597 N   0  0  0  0  0  0  0  0  0  0  0  0
   -2.1031   51.1707   11.2962 C   0  0  2  0  0  0  0  0  0  0  0  0
   -2.7440   50.7305    9.9868 C   0  0  0  0  0  0  0  0  0  0  0  0
   -3.9416   50.4770    9.9154 O   0  0  0  0  0  0  0  0  0  0  0  0
   -2.0713   52.6973   11.4032 C   0  0  0  0  0  0  0  0  0  0  0  0
   -1.6752   53.2056   12.7788 C   0  0  0  0  0  0  0  0  0  0  0  0
   -1.5616   54.7247   12.8060 C   0  0  0  0  0  0  0  0  0  0  0  0
   -1.2341   55.2140   14.2072 C   0  0  0  0  0  0  0  0  0  0  0  0
    0.0827   54.6871   14.7145 N   0  0  0  0  0  0  0  0  0  0  0  0
   -2.1054   50.6391    8.9472 O   0  0  0  0  0  0  0  0  0  0  0  0
  2  1  1  6  0  0  0
  2  3  1  0  0  0  0
  2  5  1  0  0  0  0
  3  4  1  0  0  0  0
  3 10  1  0  0  0  0
  5  6  1  0  0  0  0
  6  7  1  0  0  0  0
  7  8  1  0  0  0  0
  8  9  1  0  0  0  0
M  END
>  <CHROM.1>
142.50524165,-65.61077803,175.92056260,177.12027339,61.32285349,-1.82771540
52.39506398,11.71469738,-1.91773353,-0.49518657,0.61445325

>  <Name>
ligand

>  <RI>
0

>  <Rbt.Current_Directory>
/home/itssahil/PROJECTS/Mol_Feturizer/New_Systems/rnas/3DIZ

>  <Rbt.Executable>
rbdock ($Id: //depot/dev/client3/rdock/2013.1/src/exe/rbdock.cxx#4 $)

>  <Rbt.Library>
libRbt.so (2013.1, Build901 2013/11/27)

>  <Rbt.Parameter_File>
/export/apps/rDock/src/rDock_2013.1_src/data/scripts/dock_solv.prm

>  <Rbt.Receptor>
prm/blind_docking_100.prm

>  <SCORE>
-4.71475

>  <SCORE.INTER>
-3.56736

>  <SCORE.INTER.CONST>
1

>  <SCORE.INTER.POLAR>
0

>  <SCORE.INTER.ROT>
5

>  <SCORE.INTER.SOLV>
11.0358

>  <SCORE.INTER.VDW>
-12.9902

>  <SCORE.INTER.norm>
-0.356736

>  <SCORE.INTRA>
-1.14739

>  <SCORE.INTRA.DIHEDRAL>
-1.97636

>  <SCORE.INTRA.DIHEDRAL.0>
3.67053

>  <SCORE.INTRA.POLAR>
0

>  <SCORE.INTRA.POLAR.0>
0

>  <SCORE.INTRA.REPUL>
0

>  <SCORE.INTRA.REPUL.0>
0

>  <SCORE.INTRA.SOLV>
0.0742484

>  <SCORE.INTRA.SOLV.lig_0>
-32.0553

>  <SCORE.INTRA.VDW>
-0.196331

>  <SCORE.INTRA.VDW.0>
-0.571921

>  <SCORE.INTRA.norm>
-0.114739

>  <SCORE.RESTR>
0

>  <SCORE.RESTR.CAVITY>
0

>  <SCORE.RESTR.norm>
0

>  <SCORE.SYSTEM>
0

>  <SCORE.SYSTEM.CONST>
0

>  <SCORE.SYSTEM.DIHEDRAL>
0

>  <SCORE.SYSTEM.SOLV>
0

>  <SCORE.SYSTEM.norm>
0

>  <SCORE.heavy>
10

>  <SCORE.norm>
-0.471475

>  <RMSD>
49.693

$$$$
ligand
 OpenBabel11021811473D
libRbt.so/2013.1/901 2013/11/27
 10  9  0  0  0  0  0  0  0  0999 V2000
   -3.3590   48.6499    0.4317 N   0  0  0  0  0  0  0  0  0  0  0  0
   -2.7916   47.5952   -0.4612 C   0  0  2  0  0  0  0  0  0  0  0  0
   -3.8287   47.0799   -1.4501 C   0  0  0  0  0  0  0  0  0  0  0  0
   -4.5827   46.1569   -1.1618 O   0  0  0  0  0  0  0  0  0  0  0  0
   -2.1985   46.4457    0.3575 C   0  0  0  0  0  0  0  0  0  0  0  0
   -1.0729   46.8724    1.2840 C   0  0  0  0  0  0  0  0  0  0  0  0
    0.1643   47.3020    0.5054 C   0  0  0  0  0  0  0  0  0  0  0  0
    1.3094   47.6244    1.4514 C   0  0  0  0  0  0  0  0  0  0  0  0
    1.0506   48.8555    2.2798 N   0  0  0  0  0  0  0  0  0  0  0  0
   -3.9769   47.5782   -2.5576 O   0  0  0  0  0  0  0  0  0  0  0  0
  2  1  1  1  0  0  0
  2  3  1  0  0  0  0
  2  5  1  0  0  0  0
  3  4  1  0  0  0  0
  3 10  1  0  0  0  0
  5  6  1  0  0  0  0
  6  7  1  0  0  0  0
  7  8  1  0  0  0  0
  8  9  1  0  0  0  0
M  END
>  <CHROM.1>
-87.51330127,-60.16439575,-67.97935010,-175.76155846,-67.75626510,-1.96124479
47.40383028,0.03910077,2.89208597,0.54154276,-2.94975470

>  <Name>
ligand

>  <RI>
0

>  <Rbt.Current_Directory>
/home/itssahil/PROJECTS/Mol_Feturizer/New_Systems/rnas/3DIZ

>  <Rbt.Executable>
rbdock ($Id: //depot/dev/client3/rdock/2013.1/src/exe/rbdock.cxx#4 $)

>  <Rbt.Library>
libRbt.so (2013.1, Build901 2013/11/27)

>  <Rbt.Parameter_File>
/export/apps/rDock/src/rDock_2013.1_src/data/scripts/dock_solv.prm

>  <Rbt.Receptor>
prm/blind_docking_80.prm

>  <SCORE>
-4.63293

>  <SCORE.INTER>
-4.41974

>  <SCORE.INTER.CONST>
1

>  <SCORE.INTER.POLAR>
0

>  <SCORE.INTER.ROT>
5

>  <SCORE.INTER.SOLV>
3.49164

>  <SCORE.INTER.VDW>
-11.0437

>  <SCORE.INTER.norm>
-0.441974

>  <SCORE.INTRA>
-0.213188

>  <SCORE.INTRA.DIHEDRAL>
-1.6666

>  <SCORE.INTRA.DIHEDRAL.0>
3.67053

>  <SCORE.INTRA.POLAR>
0

>  <SCORE.INTRA.POLAR.0>
0

>  <SCORE.INTRA.REPUL>
0

>  <SCORE.INTRA.REPUL.0>
0

>  <SCORE.INTRA.SOLV>
0.521734

>  <SCORE.INTRA.SOLV.lig_0>
-32.0553

>  <SCORE.INTRA.VDW>
0.359247

>  <SCORE.INTRA.VDW.0>
-0.571921

>  <SCORE.INTRA.norm>
-0.0213188

>  <SCORE.RESTR>
0

>  <SCORE.RESTR.CAVITY>
0

>  <SCORE.RESTR.norm>
0

>  <SCORE.SYSTEM>
0

>  <SCORE.SYSTEM.CONST>
0

>  <SCORE.SYSTEM.DIHEDRAL>
0

>  <SCORE.SYSTEM.SOLV>
0

>  <SCORE.SYSTEM.norm>
0

>  <SCORE.heavy>
10

>  <SCORE.norm>
-0.463293

>  <RMSD>
49.882

$$$$
ligand
 OpenBabel11021811473D
libRbt.so/2013.1/901 2013/11/27
 10  9  0  0  0  0  0  0  0  0999 V2000
   -4.6429   46.5610    0.5085 N   0  0  0  0  0  0  0  0  0  0  0  0
   -3.7782   47.2081   -0.5235 C   0  0  2  0  0  0  0  0  0  0  0  0
   -4.2383   46.8674   -1.9347 C   0  0  0  0  0  0  0  0  0  0  0  0
   -4.0021   47.6110   -2.8805 O   0  0  0  0  0  0  0  0  0  0  0  0
   -2.3086   46.8304   -0.3216 C   0  0  0  0  0  0  0  0  0  0  0  0
   -1.7343   47.2970    1.0050 C   0  0  0  0  0  0  0  0  0  0  0  0
   -0.2612   46.9319    1.1399 C   0  0  0  0  0  0  0  0  0  0  0  0
    0.2886   47.4017    2.4767 C   0  0  0  0  0  0  0  0  0  0  0  0
    1.7446   47.0618    2.6587 N   0  0  0  0  0  0  0  0  0  0  0  0
   -4.8338   45.8303   -2.1932 O   0  0  0  0  0  0  0  0  0  0  0  0
  2  1  1  1  0  0  0
  2  3  1  0  0  0  0
  2  5  1  0  0  0  0
  3  4  1  0  0  0  0
  3 10  1  0  0  0  0
  5  6  1  0  0  0  0
  6  7  1  0  0  0  0
  7  8  1  0  0  0  0
  8  9  1  0  0  0  0
M  END
>  <CHROM.1>
154.33693700,-62.45383532,-178.37102127,-179.69094000,179.92868423,-2.39735246
46.95297447,-0.04642158,2.48458008,-0.20540243,-1.41482760

>  <Name>
ligand

>  <RI>
0

>  <Rbt.Current_Directory>
/home/itssahil/PROJECTS/Mol_Feturizer/New_Systems/rnas/3DIZ

>  <Rbt.Executable>
rbdock ($Id: //depot/dev/client3/rdock/2013.1/src/exe/rbdock.cxx#4 $)

>  <Rbt.Library>
libRbt.so (2013.1, Build901 2013/11/27)

>  <Rbt.Parameter_File>
/export/apps/rDock/src/rDock_2013.1_src/data/scripts/dock_solv.prm

>  <Rbt.Receptor>
prm/blind_docking_60.prm

>  <SCORE>
-5.489

>  <SCORE.INTER>
-3.7133

>  <SCORE.INTER.CONST>
1

>  <SCORE.INTER.POLAR>
0

>  <SCORE.INTER.ROT>
5

>  <SCORE.INTER.SOLV>
13.6143

>  <SCORE.INTER.VDW>
-13.947

>  <SCORE.INTER.norm>
-0.37133

>  <SCORE.INTRA>
-1.7759

>  <SCORE.INTRA.DIHEDRAL>
-2.18842

>  <SCORE.INTRA.DIHEDRAL.0>
3.67053

>  <SCORE.INTRA.POLAR>
0

>  <SCORE.INTRA.POLAR.0>
0

>  <SCORE.INTRA.REPUL>
0

>  <SCORE.INTRA.REPUL.0>
0

>  <SCORE.INTRA.SOLV>
-0.856786

>  <SCORE.INTRA.SOLV.lig_0>
-32.0553

>  <SCORE.INTRA.VDW>
-0.253303

>  <SCORE.INTRA.VDW.0>
-0.571921

>  <SCORE.INTRA.norm>
-0.17759

>  <SCORE.RESTR>
0.000202014

>  <SCORE.RESTR.CAVITY>
0.000202014

>  <SCORE.RESTR.norm>
2.02014e-05

>  <SCORE.SYSTEM>
0

>  <SCORE.SYSTEM.CONST>
0

>  <SCORE.SYSTEM.DIHEDRAL>
0

>  <SCORE.SYSTEM.SOLV>
0

>  <SCORE.SYSTEM.norm>
0

>  <SCORE.heavy>
10

>  <SCORE.norm>
-0.5489

>  <RMSD>
49.944

$$$$
ligand
 OpenBabel11021811473D
libRbt.so/2013.1/901 2013/11/27
 10  9  0  0  0  0  0  0  0  0999 V2000
   -0.1699   51.8221   11.4827 N   0  0  0  0  0  0  0  0  0  0  0  0
   -1.3701   52.5037   10.9115 C   0  0  2  0  0  0  0  0  0  0  0  0
   -0.9889   53.4744    9.8018 C   0  0  0  0  0  0  0  0  0  0  0  0
    0.0316   54.1510    9.8678 O   0  0  0  0  0  0  0  0  0  0  0  0
   -2.1702   53.2128   12.0070 C   0  0  0  0  0  0  0  0  0  0  0  0
   -1.3748   54.2647   12.7610 C   0  0  0  0  0  0  0  0  0  0  0  0
   -2.2279   54.9732   13.8058 C   0  0  0  0  0  0  0  0  0  0  0  0
   -1.3981   55.9822   14.5826 C   0  0  0  0  0  0  0  0  0  0  0  0
   -2.1958   56.7015   15.6387 N   0  0  0  0  0  0  0  0  0  0  0  0
   -1.6615   53.6013    8.7876 O   0  0  0  0  0  0  0  0  0  0  0  0
  2  1  1  1  0  0  0
  2  3  1  0  0  0  0
  2  5  1  0  0  0  0
  3  4  1  0  0  0  0
  3 10  1  0  0  0  0
  5  6  1  0  0  0  0
  6  7  1  0  0  0  0
  7  8  1  0  0  0  0
  8  9  1  0  0  0  0
M  END
>  <CHROM.1>
-37.53671511,59.14329378,178.03808848,177.82788162,-179.46928168,-1.34265756
54.08290754,11.92889952,-0.30589192,-1.38598261,2.31567399

>  <Name>
ligand

>  <RI>
0

>  <Rbt.Current_Directory>
/home/itssahil/PROJECTS/Mol_Feturizer/New_Systems/rnas/3DIZ

>  <Rbt.Executable>
rbdock ($Id: //depot/dev/client3/rdock/2013.1/src/exe/rbdock.cxx#4 $)

>  <Rbt.Library>
libRbt.so (2013.1, Build901 2013/11/27)

>  <Rbt.Parameter_File>
/export/apps/rDock/src/rDock_2013.1_src/data/scripts/dock_solv.prm

>  <Rbt.Receptor>
prm/blind_docking_100.prm

>  <SCORE>
-4.07375

>  <SCORE.INTER>
-2.46147

>  <SCORE.INTER.CONST>
1

>  <SCORE.INTER.POLAR>
0

>  <SCORE.INTER.ROT>
5

>  <SCORE.INTER.SOLV>
5.91799

>  <SCORE.INTER.VDW>
-10.547

>  <SCORE.INTER.norm>
-0.246147

>  <SCORE.INTRA>
-1.61228

>  <SCORE.INTRA.DIHEDRAL>
-2.07183

>  <SCORE.INTRA.DIHEDRAL.0>
3.67053

>  <SCORE.INTRA.POLAR>
0

>  <SCORE.INTRA.POLAR.0>
0

>  <SCORE.INTRA.REPUL>
0

>  <SCORE.INTRA.REPUL.0>
0

>  <SCORE.INTRA.SOLV>
-0.814284

>  <SCORE.INTRA.SOLV.lig_0>
-32.0553

>  <SCORE.INTRA.VDW>
-0.169226

>  <SCORE.INTRA.VDW.0>
-0.571921

>  <SCORE.INTRA.norm>
-0.161228

>  <SCORE.RESTR>
0

>  <SCORE.RESTR.CAVITY>
0

>  <SCORE.RESTR.norm>
0

>  <SCORE.SYSTEM>
0

>  <SCORE.SYSTEM.CONST>
0

>  <SCORE.SYSTEM.DIHEDRAL>
0

>  <SCORE.SYSTEM.SOLV>
0

>  <SCORE.SYSTEM.norm>
0

>  <SCORE.heavy>
10

>  <SCORE.norm>
-0.407375

>  <RMSD>
50.525

$$$$
ligand
 OpenBabel11021811473D
libRbt.so/2013.1/901 2013/11/27
 10  9  0  0  0  0  0  0  0  0999 V2000
   -4.0107   47.7615   -2.0823 N   0  0  0  0  0  0  0  0  0  0  0  0
   -4.5222   47.4680   -0.7098 C   0  0  2  0  0  0  0  0  0  0  0  0
   -5.0043   48.7311   -0.0089 C   0  0  0  0  0  0  0  0  0  0  0  0
   -6.0578   48.7511    0.6182 O   0  0  0  0  0  0  0  0  0  0  0  0
   -3.4617   46.7490    0.1276 C   0  0  0  0  0  0  0  0  0  0  0  0
   -2.1323   47.4813    0.1901 C   0  0  0  0  0  0  0  0  0  0  0  0
   -1.1232   46.7423    1.0602 C   0  0  0  0  0  0  0  0  0  0  0  0
    0.1796   47.5199    1.1506 C   0  0  0  0  0  0  0  0  0  0  0  0
    1.1690   46.8894    2.0952 N   0  0  0  0  0  0  0  0  0  0  0  0
   -4.3539   49.7674   -0.0135 O   0  0  0  0  0  0  0  0  0  0  0  0
  2  1  1  6  0  0  0
  2  3  1  0  0  0  0
  2  5  1  0  0  0  0
  3  4  1  0  0  0  0
  3 10  1  0  0  0  0
  5  6  1  0  0  0  0
  6  7  1  0  0  0  0
  7  8  1  0  0  0  0
  8  9  1  0  0  0  0
M  END
>  <CHROM.1>
135.80781500,54.15916622,178.67778604,-177.83140274,175.08738435,-2.95477725
47.81619793,0.25487646,-3.06145918,-0.40646802,0.92339875

>  <Name>
ligand

>  <RI>
0

>  <Rbt.Current_Directory>
/home/itssahil/PROJECTS/Mol_Feturizer/New_Systems/rnas/3DIZ

>  <Rbt.Executable>
rbdock ($Id: //depot/dev/client3/rdock/2013.1/src/exe/rbdock.cxx#4 $)

>  <Rbt.Library>
libRbt.so (2013.1, Build901 2013/11/27)

>  <Rbt.Parameter_File>
/export/apps/rDock/src/rDock_2013.1_src/data/scripts/dock_solv.prm

>  <Rbt.Receptor>
prm/blind_docking_100.prm

>  <SCORE>
-1.6846

>  <SCORE.INTER>
-0.160314

>  <SCORE.INTER.CONST>
1

>  <SCORE.INTER.POLAR>
0

>  <SCORE.INTER.ROT>
5

>  <SCORE.INTER.SOLV>
8.16765

>  <SCORE.INTER.VDW>
-9.76276

>  <SCORE.INTER.norm>
-0.0160314

>  <SCORE.INTRA>
-1.52429

>  <SCORE.INTRA.DIHEDRAL>
-1.94568

>  <SCORE.INTRA.DIHEDRAL.0>
3.67053

>  <SCORE.INTRA.POLAR>
0

>  <SCORE.INTRA.POLAR.0>
0

>  <SCORE.INTRA.REPUL>
0

>  <SCORE.INTRA.REPUL.0>
0

>  <SCORE.INTRA.SOLV>
-0.765772

>  <SCORE.INTRA.SOLV.lig_0>
-32.0553

>  <SCORE.INTRA.VDW>
-0.168559

>  <SCORE.INTRA.VDW.0>
-0.571921

>  <SCORE.INTRA.norm>
-0.152429

>  <SCORE.RESTR>
0

>  <SCORE.RESTR.CAVITY>
0

>  <SCORE.RESTR.norm>
0

>  <SCORE.SYSTEM>
0

>  <SCORE.SYSTEM.CONST>
0

>  <SCORE.SYSTEM.DIHEDRAL>
0

>  <SCORE.SYSTEM.SOLV>
0

>  <SCORE.SYSTEM.norm>
0

>  <SCORE.heavy>
10

>  <SCORE.norm>
-0.16846

>  <RMSD>
50.659

$$$$
ligand
 OpenBabel11021811473D
libRbt.so/2013.1/901 2013/11/27
 10  9  0  0  0  0  0  0  0  0999 V2000
   -0.5193   58.7071   19.7587 N   0  0  0  0  0  0  0  0  0  0  0  0
   -0.7880   58.7738   21.2266 C   0  0  2  0  0  0  0  0  0  0  0  0
   -2.1753   59.3301   21.5182 C   0  0  0  0  0  0  0  0  0  0  0  0
   -2.9036   58.8198   22.3624 O   0  0  0  0  0  0  0  0  0  0  0  0
    0.2901   59.5899   21.9441 C   0  0  0  0  0  0  0  0  0  0  0  0
    1.6345   58.8875   22.0271 C   0  0  0  0  0  0  0  0  0  0  0  0
    2.6612   59.7248   22.7795 C   0  0  0  0  0  0  0  0  0  0  0  0
    3.9866   58.9876   22.8794 C   0  0  0  0  0  0  0  0  0  0  0  0
    5.0822   59.8376   23.4676 N   0  0  0  0  0  0  0  0  0  0  0  0
   -2.6122   60.3217   20.9500 O   0  0  0  0  0  0  0  0  0  0  0  0
  2  1  1  6  0  0  0
  2  3  1  0  0  0  0
  2  5  1  0  0  0  0
  3  4  1  0  0  0  0
  3 10  1  0  0  0  0
  5  6  1  0  0  0  0
  6  7  1  0  0  0  0
  7  8  1  0  0  0  0
  8  9  1  0  0  0  0
M  END
>  <CHROM.1>
136.21315173,-71.58385619,-178.55778558,178.60121930,173.09295208,0.42167327
59.30892091,21.89494311,-2.87884349,-0.04558785,1.33040857

>  <Name>
ligand

>  <RI>
0

>  <Rbt.Current_Directory>
/home/itssahil/PROJECTS/Mol_Feturizer/New_Systems/rnas/3DIZ

>  <Rbt.Executable>
rbdock ($Id: //depot/dev/client3/rdock/2013.1/src/exe/rbdock.cxx#4 $)

>  <Rbt.Library>
libRbt.so (2013.1, Build901 2013/11/27)

>  <Rbt.Parameter_File>
/export/apps/rDock/src/rDock_2013.1_src/data/scripts/dock_solv.prm

>  <Rbt.Receptor>
prm/blind_docking_100.prm

>  <SCORE>
-4.46883

>  <SCORE.INTER>
-2.87823

>  <SCORE.INTER.CONST>
1

>  <SCORE.INTER.POLAR>
0

>  <SCORE.INTER.ROT>
5

>  <SCORE.INTER.SOLV>
5.0902

>  <SCORE.INTER.VDW>
-10.5489

>  <SCORE.INTER.norm>
-0.287823

>  <SCORE.INTRA>
-1.59061

>  <SCORE.INTRA.DIHEDRAL>
-1.47754

>  <SCORE.INTRA.DIHEDRAL.0>
3.67053

>  <SCORE.INTRA.POLAR>
0

>  <SCORE.INTRA.POLAR.0>
0

>  <SCORE.INTRA.REPUL>
0

>  <SCORE.INTRA.REPUL.0>
0

>  <SCORE.INTRA.SOLV>
-0.982815

>  <SCORE.INTRA.SOLV.lig_0>
-32.0553

>  <SCORE.INTRA.VDW>
-0.360428

>  <SCORE.INTRA.VDW.0>
-0.571921

>  <SCORE.INTRA.norm>
-0.159061

>  <SCORE.RESTR>
0

>  <SCORE.RESTR.CAVITY>
0

>  <SCORE.RESTR.norm>
0

>  <SCORE.SYSTEM>
0

>  <SCORE.SYSTEM.CONST>
0

>  <SCORE.SYSTEM.DIHEDRAL>
0

>  <SCORE.SYSTEM.SOLV>
0

>  <SCORE.SYSTEM.norm>
0

>  <SCORE.heavy>
10

>  <SCORE.norm>
-0.446883

>  <RMSD>
52.900

$$$$
ligand
 OpenBabel11021811473D
libRbt.so/2013.1/901 2013/11/27
 10  9  0  0  0  0  0  0  0  0999 V2000
    6.9393   62.9931   19.2572 N   0  0  0  0  0  0  0  0  0  0  0  0
    7.0128   64.4848   19.2284 C   0  0  2  0  0  0  0  0  0  0  0  0
    7.4259   64.9997   17.8561 C   0  0  0  0  0  0  0  0  0  0  0  0
    7.3380   66.1880   17.5668 O   0  0  0  0  0  0  0  0  0  0  0  0
    7.9557   65.0076   20.3150 C   0  0  0  0  0  0  0  0  0  0  0  0
    7.5617   64.5869   21.7205 C   0  0  0  0  0  0  0  0  0  0  0  0
    6.2754   65.2677   22.1716 C   0  0  0  0  0  0  0  0  0  0  0  0
    5.8212   64.7216   23.5153 C   0  0  0  0  0  0  0  0  0  0  0  0
    6.8271   64.9609   24.6106 N   0  0  0  0  0  0  0  0  0  0  0  0
    7.8889   64.2629   16.9960 O   0  0  0  0  0  0  0  0  0  0  0  0
  2  1  1  6  0  0  0
  2  3  1  0  0  0  0
  2  5  1  0  0  0  0
  3  4  1  0  0  0  0
  3 10  1  0  0  0  0
  5  6  1  0  0  0  0
  6  7  1  0  0  0  0
  7  8  1  0  0  0  0
  8  9  1  0  0  0  0
M  END
>  <CHROM.1>
168.22462618,-58.15855022,-68.93314191,173.92758183,61.33034696,7.11495041
64.75919169,20.28132838,0.16474865,-1.39894454,-2.98266305

>  <Name>
ligand

>  <RI>
0

>  <Rbt.Current_Directory>
/home/itssahil/PROJECTS/Mol_Feturizer/New_Systems/rnas/3DIZ

>  <Rbt.Executable>
rbdock ($Id: //depot/dev/client3/rdock/2013.1/src/exe/rbdock.cxx#4 $)

>  <Rbt.Library>
libRbt.so (2013.1, Build901 2013/11/27)

>  <Rbt.Parameter_File>
/export/apps/rDock/src/rDock_2013.1_src/data/scripts/dock_solv.prm

>  <Rbt.Receptor>
prm/blind_docking_100.prm

>  <SCORE>
-4.3107

>  <SCORE.INTER>
-3.94127

>  <SCORE.INTER.CONST>
1

>  <SCORE.INTER.POLAR>
0

>  <SCORE.INTER.ROT>
5

>  <SCORE.INTER.SOLV>
4.25127

>  <SCORE.INTER.VDW>
-10.9779

>  <SCORE.INTER.norm>
-0.394127

>  <SCORE.INTRA>
-0.36943

>  <SCORE.INTRA.DIHEDRAL>
-1.70998

>  <SCORE.INTRA.DIHEDRAL.0>
3.67053

>  <SCORE.INTRA.POLAR>
0

>  <SCORE.INTRA.POLAR.0>
0

>  <SCORE.INTRA.REPUL>
0

>  <SCORE.INTRA.REPUL.0>
0

>  <SCORE.INTRA.SOLV>
0.651309

>  <SCORE.INTRA.SOLV.lig_0>
-32.0553

>  <SCORE.INTRA.VDW>
0.159906

>  <SCORE.INTRA.VDW.0>
-0.571921

>  <SCORE.INTRA.norm>
-0.036943

>  <SCORE.RESTR>
0

>  <SCORE.RESTR.CAVITY>
0

>  <SCORE.RESTR.norm>
0

>  <SCORE.SYSTEM>
0

>  <SCORE.SYSTEM.CONST>
0

>  <SCORE.SYSTEM.DIHEDRAL>
0

>  <SCORE.SYSTEM.SOLV>
0

>  <SCORE.SYSTEM.norm>
0

>  <SCORE.heavy>
10

>  <SCORE.norm>
-0.43107

>  <RMSD>
54.142

$$$$
