@<TRIPOS>MOLECULE
3DIZ_rdock.pdb
 3728 4173 0 0 0
SMALL
GASTEIGER

@<TRIPOS>ATOM
      1  P         38.7120   -8.6610   15.5710 P.3     1  G1          0.1280
      2  C5'       39.1550   -8.4780   12.9790 C.3     1  G1          0.1795
      3  O5'       38.5000   -9.1530   14.0550 O.3     1  G1         -0.3259
      4  C4'       38.4970   -8.7610   11.6400 C.3     1  G1          0.1772
      5  O4'       38.4550  -10.1940   11.4150 O.3     1  G1         -0.3307
      6  C3'       37.0430   -8.3280   11.4840 C.3     1  G1          0.1860
      7  O3'       36.9170   -6.9330   11.1850 O.3     1  G1         -0.3112
      8  C2'       36.6140   -9.2090   10.3120 C.3     1  G1          0.2309
      9  O2'       37.0550   -8.7350    9.0540 O.3     1  G1         -0.2156
     10  C1'       37.2910  -10.5270   10.6800 C.3     1  G1          0.2408
     11  N1        32.9720  -13.2410   10.8830 N.ar    1  G1         -0.1709
     12  C2        33.5200  -12.5510    9.8230 C.ar    1  G1          0.2606
     13  N2        32.8310  -12.5820    8.6760 N.pl3   1  G1         -0.0859
     14  N3        34.6620  -11.8730    9.8900 N.ar    1  G1         -0.1918
     15  C4        35.2310  -11.9400   11.1240 C.ar    1  G1          0.1723
     16  C5        34.7650  -12.6000   12.2450 C.ar    1  G1          0.1748
     17  C6        33.5400  -13.3180   12.1580 C.ar    1  G1          0.3023
     18  O6        32.9630  -13.9660   13.0430 O.2     1  G1         -0.2633
     19  N7        35.6360  -12.4270   13.3170 N.ar    1  G1         -0.2173
     20  C8        36.5920  -11.6810   12.8340 C.ar    1  G1          0.1817
     21  N9        36.4170  -11.3520   11.5090 N.ar    1  G1         -0.2693
     22  OP1       38.6680   -7.1750   15.6310 O.3     1  G1         -0.1955
     23  OP2       37.7590   -9.4500   16.3930 O.co2   1  G1         -0.7863
     24  P         35.5040   -6.1740   11.3010 P.3     2  G2          0.2141
     25  C5'       34.7750   -6.0790    8.7700 C.3     2  G2          0.1812
     26  O5'       34.6940   -6.7100   10.0370 O.3     2  G2         -0.3114
     27  C4'       33.7010   -6.6800    7.8910 C.3     2  G2          0.1773
     28  O4'       33.7100   -8.1270    8.0130 O.3     2  G2         -0.3307
     29  C3'       32.2890   -6.2960    8.2900 C.3     2  G2          0.1860
     30  O3'       31.9790   -5.0180    7.7840 O.3     2  G2         -0.3112
     31  C2'       31.4850   -7.4160    7.6370 C.3     2  G2          0.2309
     32  O2'       31.2770   -7.2460    6.2430 O.3     2  G2         -0.2156
     33  C1'       32.3840   -8.6220    7.9270 C.3     2  G2          0.2408
     34  N1        28.8910  -11.4430   10.3460 N.ar    2  G2         -0.1709
     35  C2        28.8820  -10.9510    9.0640 C.ar    2  G2          0.2606
     36  N2        27.8110  -11.2410    8.3190 N.pl3   2  G2         -0.0859
     37  N3        29.8610  -10.2280    8.5450 N.ar    2  G2         -0.1918
     38  C4        30.8740  -10.0220    9.4250 C.ar    2  G2          0.1723
     39  C5        30.9750  -10.4660   10.7270 C.ar    2  G2          0.1748
     40  C6        29.9160  -11.2460   11.2700 C.ar    2  G2          0.3023
     41  O6        29.8090  -11.7400   12.4040 O.2     2  G2         -0.2633
     42  N7        32.1710  -10.0380   11.2930 N.ar    2  G2         -0.2173
     43  C8        32.7550   -9.3590   10.3450 C.ar    2  G2          0.1817
     44  N9        32.0290   -9.3080    9.1760 N.ar    2  G2         -0.2693
     45  OP1       35.7480   -4.7260   11.1250 O.2     2  G2         -0.5172
     46  OP2       34.7990   -6.6920   12.4970 O.co2   2  G2         -0.4373
     47  P         31.0930   -4.0110    8.6500 P.3     3  C3          0.2141
     48  C5'       28.9170   -4.7900    7.4490 C.3     3  C3          0.1812
     49  O5'       29.6570   -4.7020    8.6470 O.3     3  C3         -0.3114
     50  C4'       27.6850   -5.6380    7.6620 C.3     3  C3          0.1773
     51  O4'       28.0820   -6.9780    8.0320 O.3     3  C3         -0.3307
     52  C3'       26.7930   -5.2090    8.8140 C.3     3  C3          0.1860
     53  O3'       25.9780   -4.1030    8.4610 O.3     3  C3         -0.3112
     54  C2'       26.0040   -6.4930    9.0410 C.3     3  C3          0.2309
     55  O2'       25.0140   -6.7470    8.0610 O.3     3  C3         -0.2156
     56  C1'       27.1360   -7.5130    8.9410 C.3     3  C3          0.2420
     57  N1        27.8120   -7.7690   10.2540 N.ar    3  C3         -0.2535
     58  C2        27.1820   -8.5470   11.2410 C.ar    3  C3          0.3532
     59  O2        26.0630   -9.0250   11.0370 O.2     3  C3         -0.2443
     60  N3        27.8260   -8.7630   12.4150 N.ar    3  C3         -0.1739
     61  C4        29.0360   -8.2350   12.6200 C.ar    3  C3          0.1759
     62  N4        29.6340   -8.4650   13.7900 N.pl3   3  C3         -0.1070
     63  C5        29.6930   -7.4400   11.6350 C.ar    3  C3          0.0566
     64  C6        29.0510   -7.2390   10.4820 C.ar    3  C3          0.0850
     65  OP1       31.0190   -2.7400    7.9030 O.2     3  C3         -0.5172
     66  OP2       31.5630   -4.0180   10.0540 O.co2   3  C3         -0.4373
     67  P         25.6350   -2.9910    9.5610 P.3     4  C4          0.2141
     68  C5'       23.2780   -4.0860    9.8530 C.3     4  C4          0.1812
     69  O5'       24.5190   -3.7210   10.4460 O.3     4  C4         -0.3114
     70  C4'       22.4720   -4.9810   10.7700 C.3     4  C4          0.1773
     71  O4'       23.1810   -6.2230   11.0120 O.3     4  C4         -0.3307
     72  C3'       22.2700   -4.4200   12.1630 C.3     4  C4          0.1860
     73  O3'       21.2650   -3.4230   12.1660 O.3     4  C4         -0.3112
     74  C2'       21.8900   -5.6860   12.9190 C.3     4  C4          0.2309
     75  O2'       20.5790   -6.1340   12.6410 O.3     4  C4         -0.2156
     76  C1'       22.9260   -6.6500   12.3420 C.3     4  C4          0.2420
     77  N1        24.2060   -6.6720   13.1400 N.ar    4  C4         -0.2535
     78  C2        24.2750   -7.4130   14.3330 C.ar    4  C4          0.3532
     79  O2        23.2900   -8.0560   14.7150 O.2     4  C4         -0.2443
     80  N3        25.4370   -7.4180   15.0390 N.ar    4  C4         -0.1739
     81  C4        26.4930   -6.7200   14.6110 C.ar    4  C4          0.1759
     82  N4        27.6080   -6.7620   15.3420 N.pl3   4  C4         -0.1070
     83  C5        26.4520   -5.9510   13.4110 C.ar    4  C4          0.0566
     84  C6        25.3040   -5.9610   12.7160 C.ar    4  C4          0.0850
     85  OP1       25.0370   -1.8450    8.8320 O.2     4  C4         -0.5172
     86  OP2       26.8160   -2.7800   10.4360 O.co2   4  C4         -0.4373
     87  P         21.4200   -2.1110   13.0880 P.3     5  G5          0.2141
     88  C5'       19.9170   -3.2070   14.9510 C.3     5  G5          0.1812
     89  O5'       21.1820   -2.6650   14.5790 O.3     5  G5         -0.3114
     90  C4'       20.0100   -4.0000   16.2350 C.3     5  G5          0.1773
     91  O4'       20.9800   -5.0650   16.1030 O.3     5  G5         -0.3307
     92  C3'       20.5290   -3.2450   17.4510 C.3     5  G5          0.1860
     93  O3'       19.5550   -2.4050   18.0190 O.3     5  G5         -0.3112
     94  C2'       20.8050   -4.4100   18.3810 C.3     5  G5          0.2309
     95  O2'       19.6220   -4.9760   18.9100 O.3     5  G5         -0.2156
     96  C1'       21.4850   -5.3570   17.4020 C.3     5  G5          0.2408
     97  N1        25.6520   -6.4130   20.0860 N.ar    5  G5         -0.1709
     98  C2        24.3340   -6.7140   20.3470 C.ar    5  G5          0.2606
     99  N2        24.0740   -7.3930   21.4710 N.pl3   5  G5         -0.0859
    100  N3        23.3290   -6.3750   19.5520 N.ar    5  G5         -0.1918
    101  C4        23.7490   -5.6960   18.4550 C.ar    5  G5          0.1723
    102  C5        25.0320   -5.3470   18.1030 C.ar    5  G5          0.1748
    103  C6        26.0970   -5.7170   18.9610 C.ar    5  G5          0.3023
    104  O6        27.3050   -5.4970   18.8190 O.2     5  G5         -0.2633
    105  N7        25.0370   -4.6530   16.9000 N.ar    5  G5         -0.2173
    106  C8        23.7780   -4.5970   16.5550 C.ar    5  G5          0.1817
    107  N9        22.9400   -5.2160   17.4540 N.ar    5  G5         -0.2693
    108  OP1       20.3190   -1.2110   12.6730 O.2     5  G5         -0.5172
    109  OP2       22.8130   -1.6070   13.0490 O.co2   5  G5         -0.4373
    110  P         20.0280   -1.1070   18.8180 P.3     6  A6          0.2141
    111  C5'       19.1700   -2.2570   21.0080 C.3     6  A6          0.1812
    112  O5'       20.1980   -1.5770   20.3350 O.3     6  A6         -0.3114
    113  C4'       19.7930   -2.9900   22.1680 C.3     6  A6          0.1773
    114  O4'       20.7560   -3.9570   21.6910 O.3     6  A6         -0.3307
    115  C3'       20.6050   -2.1010   23.0860 C.3     6  A6          0.1860
    116  O3'       19.7280   -1.4530   23.9660 O.3     6  A6         -0.3112
    117  C2'       21.4640   -3.1380   23.7970 C.3     6  A6          0.2309
    118  O2'       20.7530   -3.8460   24.7880 O.3     6  A6         -0.2156
    119  C1'       21.8010   -4.0670   22.6410 C.3     6  A6          0.2408
    120  N1        26.9560   -3.9940   22.8980 N.ar    6  A6         -0.2040
    121  C2        26.0280   -4.4070   23.7730 C.ar    6  A6          0.2016
    122  N3        24.6980   -4.4000   23.6580 N.ar    6  A6         -0.2048
    123  C4        24.3280   -3.8960   22.4720 C.ar    6  A6          0.1692
    124  C5        25.1620   -3.4360   21.4710 C.ar    6  A6          0.1518
    125  C6        26.5440   -3.4970   21.7110 C.ar    6  A6          0.1919
    126  N6        27.4380   -3.0790   20.8110 N.pl3   6  A6         -0.1054
    127  N7        24.4410   -2.9910   20.3790 N.ar    6  A6         -0.2193
    128  C8        23.1970   -3.1870   20.7380 C.ar    6  A6          0.1816
    129  N9        23.0560   -3.7310   21.9830 N.ar    6  A6         -0.2693
    130  OP1       18.9050   -0.1460   18.7400 O.3     6  A6         -0.4373
    131  OP2       21.3950   -0.7460   18.3620 O.co2   6  A6         -0.5172
    132  P         20.1590   -0.1020   24.6960 P.3     7  C7          0.2141
    133  C5'       21.0660   -1.0290   26.9260 C.3     7  C7          0.1812
    134  O5'       21.3720   -0.5520   25.6310 O.3     7  C7         -0.3114
    135  C4'       22.3040   -1.5960   27.5770 C.3     7  C7          0.1773
    136  O4'       23.0090   -2.4660   26.6570 O.3     7  C7         -0.3307
    137  C3'       23.3460   -0.5460   27.9060 C.3     7  C7          0.1860
    138  O3'       23.0070    0.1540   29.0850 O.3     7  C7         -0.3112
    139  C2'       24.5810   -1.4230   28.0600 C.3     7  C7          0.2309
    140  O2'       24.5860   -2.1890   29.2480 O.3     7  C7         -0.2156
    141  C1'       24.4100   -2.2960   26.8230 C.3     7  C7          0.2420
    142  N1        25.0710   -1.6840   25.5940 N.ar    7  C7         -0.2535
    143  C2        26.4720   -1.7400   25.4820 C.ar    7  C7          0.3532
    144  O2        27.1310   -2.2920   26.3670 O.2     7  C7         -0.2443
    145  N3        27.0870   -1.2070   24.3990 N.ar    7  C7         -0.1739
    146  C4        26.3690   -0.6160   23.4510 C.ar    7  C7          0.1759
    147  N4        27.0410   -0.1010   22.4190 N.pl3   7  C7         -0.1070
    148  C5        24.9430   -0.5350   23.5310 C.ar    7  C7          0.0566
    149  C6        24.3430   -1.0750   24.6040 C.ar    7  C7          0.0850
    150  OP1       19.0150    0.2580   25.5660 O.3     7  C7         -0.4373
    151  OP2       20.6630    0.8650   23.6950 O.co2   7  C7         -0.5172
    152  P         23.4860    1.6690   29.2440 P.3     8  G8          0.2141
    153  C5'       25.5530    0.8550   30.6080 C.3     8  G8          0.1812
    154  O5'       25.0590    1.5150   29.4630 O.3     8  G8         -0.3114
    155  C4'       27.0570    0.9980   30.6550 C.3     8  G8          0.1773
    156  O4'       27.6310    0.3060   29.5270 O.3     8  G8         -0.3307
    157  C3'       27.6020    2.4110   30.5130 C.3     8  G8          0.1860
    158  O3'       27.5020    3.1020   31.7510 O.3     8  G8         -0.3112
    159  C2'       29.0410    2.1090   30.1160 C.3     8  G8          0.2309
    160  O2'       29.8150    1.6380   31.2010 O.3     8  G8         -0.2156
    161  C1'       28.8260    0.9660   29.1410 C.3     8  G8          0.2408
    162  N1        31.3850    2.4200   24.9510 N.ar    8  G8         -0.1709
    163  C2        31.8490    2.1710   26.2210 C.ar    8  G8          0.2606
    164  N2        33.1660    2.3300   26.4010 N.pl3   8  G8         -0.0859
    165  N3        31.0800    1.7990   27.2440 N.ar    8  G8         -0.1918
    166  C4        29.7730    1.6930   26.8990 C.ar    8  G8          0.1723
    167  C5        29.2090    1.9150   25.6600 C.ar    8  G8          0.1748
    168  C6        30.0530    2.3080   24.5790 C.ar    8  G8          0.3023
    169  O6        29.7610    2.5600   23.4100 O.2     8  G8         -0.2633
    170  N7        27.8360    1.6900   25.7160 N.ar    8  G8         -0.2173
    171  C8        27.6040    1.3450   26.9510 C.ar    8  G8          0.1817
    172  N9        28.7360    1.3300   27.7280 N.ar    8  G8         -0.2693
    173  OP1       22.8690    2.1870   30.4860 O.3     8  G8         -0.4373
    174  OP2       23.2960    2.3790   27.9600 O.co2   8  G8         -0.5172
    175  P         27.6430    4.6960   31.7880 P.3     9  G9          0.2141
    176  C5'       29.4760    5.7620   30.2510 C.3     9  G9          0.1812
    177  O5'       29.1540    4.9080   31.3220 O.3     9  G9         -0.3114
    178  C4'       30.9720    5.7050   30.0690 C.3     9  G9          0.1773
    179  O4'       31.2880    4.6630   29.1240 O.3     9  G9         -0.3307
    180  C3'       31.5650    6.9790   29.5120 C.3     9  G9          0.1860
    181  O3'       32.0890    7.7090   30.6040 O.3     9  G9         -0.3112
    182  C2'       32.6710    6.4530   28.6040 C.3     9  G9          0.2309
    183  O2'       33.8320    6.0820   29.3230 O.3     9  G9         -0.2156
    184  C1'       32.0200    5.2040   28.0380 C.3     9  G9          0.2408
    185  N1        31.7300    6.1740   22.9990 N.ar    9  G9         -0.1709
    186  C2        32.8430    6.0830   23.8150 C.ar    9  G9          0.2606
    187  N2        34.0280    6.2700   23.2200 N.pl3   9  G9         -0.0859
    188  N3        32.8050    5.8230   25.1230 N.ar    9  G9         -0.1918
    189  C4        31.5320    5.6600   25.5640 C.ar    9  G9          0.1723
    190  C5        30.3570    5.7320   24.8300 C.ar    9  G9          0.1748
    191  C6        30.4120    6.0060   23.4310 C.ar    9  G9          0.3023
    192  O6        29.4690    6.1030   22.6250 O.2     9  G9         -0.2633
    193  N7        29.2540    5.5080   25.6460 N.ar    9  G9         -0.2173
    194  C8        29.7710    5.3080   26.8210 C.ar    9  G9          0.1817
    195  N9        31.1480    5.3910   26.8610 N.ar    9  G9         -0.2693
    196  OP1       27.5940    5.1250   33.2030 O.3     9  G9         -0.4373
    197  OP2       26.7200    5.2840   30.7870 O.co2   9  G9         -0.5172
    198  P         32.1050    9.3080   30.6050 P.3    10  A10         0.2141
    199  C5'       34.5750    9.3490   29.8480 C.3    10  A10         0.1812
    200  O5'       33.2350    9.6960   29.5430 O.3    10  A10        -0.3114
    201  C4'       35.5390    9.7960   28.7720 C.3    10  A10         0.1773
    202  O4'       35.3480    8.9900   27.5880 O.3    10  A10        -0.3307
    203  C3'       35.3350   11.2300   28.3230 C.3    10  A10         0.1860
    204  O3'       36.0480   12.1060   29.2050 O.3    10  A10        -0.3112
    205  C2'       35.8620   11.1940   26.8880 C.3    10  A10         0.2309
    206  O2'       37.2640   11.3760   26.8260 O.3    10  A10        -0.2156
    207  C1'       35.4670    9.7920   26.4320 C.3    10  A10         0.2408
    208  N1        33.0990    9.6920   21.8440 N.ar   10  A10        -0.2040
    209  C2        34.3910    9.8230   22.1720 C.ar   10  A10         0.2016
    210  N3        34.9360    9.8450   23.3930 N.ar   10  A10        -0.2048
    211  C4        34.0030    9.7110   24.3560 C.ar   10  A10         0.1692
    212  C5        32.6420    9.5660   24.1690 C.ar   10  A10         0.1518
    213  C6        32.1900    9.5580   22.8350 C.ar   10  A10         0.1919
    214  N6        30.9070    9.4220   22.5170 N.pl3  10  A10        -0.1054
    215  N7        31.9810    9.4510   25.3780 N.ar   10  A10        -0.2193
    216  C8        32.9460    9.5210   26.2650 C.ar   10  A10         0.1816
    217  N9        34.1940    9.6870   25.7180 N.ar   10  A10        -0.2693
    218  OP1       32.5560    9.6840   31.9620 O.3    10  A10        -0.4373
    219  OP2       30.8100    9.8070   30.0760 O.co2  10  A10        -0.5172
    220  P         35.7510   13.6860   29.2070 P.3    11  G11         0.2141
    221  C5'       36.5040   15.3780   27.3730 C.3    11  G11         0.1812
    222  O5'       36.1650   14.0660   27.7110 O.3    11  G11        -0.3114
    223  C4'       37.1600   15.3790   26.0090 C.3    11  G11         0.1773
    224  O4'       36.5460   14.4130   25.1150 O.3    11  G11        -0.3307
    225  C3'       37.0620   16.7140   25.2970 C.3    11  G11         0.1860
    226  O3'       38.2890   16.9920   24.6190 O.3    11  G11        -0.3112
    227  C2'       35.8690   16.5010   24.3730 C.3    11  G11         0.2309
    228  O2'       35.8760   17.3820   23.2710 O.3    11  G11        -0.2156
    229  C1'       36.0750   15.0610   23.9520 C.3    11  G11         0.2408
    230  N1        31.7390   12.7430   25.3410 N.ar   11  G11        -0.1709
    231  C2        32.7290   13.2590   26.1380 C.ar   11  G11         0.2606
    232  N2        32.5380   13.1430   27.4570 N.pl3  11  G11        -0.0859
    233  N3        33.8230   13.8440   25.6690 N.ar   11  G11        -0.1918
    234  C4        33.8510   13.8780   24.3150 C.ar   11  G11         0.1723
    235  C5        32.9140   13.3870   23.4390 C.ar   11  G11         0.1748
    236  C6        31.7550   12.7690   23.9550 C.ar   11  G11         0.3023
    237  O6        30.8100   12.2820   23.3360 O.2    11  G11        -0.2633
    238  N7        33.2950   13.6040   22.1220 N.ar   11  G11        -0.2173
    239  C8        34.4400   14.2100   22.2290 C.ar   11  G11         0.1817
    240  N9        34.8410   14.4150   23.5260 N.ar   11  G11        -0.2693
    241  OP1       36.6990   14.2890   30.1810 O.3    11  G11        -0.4373
    242  OP2       34.3010   13.9550   29.3660 O.co2  11  G11        -0.5172
    243  P         39.4080   17.8440   25.3840 P.3    12  G12         0.2141
    244  C5'       38.0890   20.0560   24.7980 C.3    12  G12         0.1812
    245  O5'       38.6590   19.1980   25.7500 O.3    12  G12        -0.3114
    246  C4'       36.9730   20.8290   25.4880 C.3    12  G12         0.1773
    247  O4'       35.9410   19.9070   25.9610 O.3    12  G12        -0.3307
    248  C3'       37.3980   21.6670   26.6910 C.3    12  G12         0.1860
    249  O3'       36.8660   22.9790   26.5840 O.3    12  G12        -0.3112
    250  C2'       36.7750   20.9290   27.8680 C.3    12  G12         0.2309
    251  O2'       36.4430   21.8000   28.9280 O.3    12  G12        -0.2156
    252  C1'       35.5080   20.3760   27.2210 C.3    12  G12         0.2408
    253  N1        32.0110   16.5650   27.3540 N.ar   12  G12        -0.1709
    254  C2        32.4000   17.3360   26.2880 C.ar   12  G12         0.2606
    255  N2        31.7780   17.0570   25.1380 N.pl3  12  G12        -0.0859
    256  N3        33.3210   18.3060   26.3440 N.ar   12  G12        -0.1918
    257  C4        33.8430   18.4460   27.5910 C.ar   12  G12         0.1723
    258  C5        33.5120   17.7190   28.7190 C.ar   12  G12         0.1748
    259  C6        32.5320   16.6970   28.6380 C.ar   12  G12         0.3023
    260  O6        32.1240   15.9510   29.5400 O.2    12  G12        -0.2633
    261  N7        34.2450   18.1390   29.8110 N.ar   12  G12        -0.2173
    262  C8        34.9870   19.0940   29.3380 C.ar   12  G12         0.1817
    263  N9        34.8120   19.3420   27.9980 N.ar   12  G12        -0.2693
    264  OP1       40.5160   18.1620   24.4630 O.2    12  G12        -0.5172
    265  OP2       39.6820   17.1760   26.6810 O.co2  12  G12        -0.4373
    266  P         37.6490   24.1650   25.8410 P.3    13  C13         0.2141
    267  C5'       37.0730   25.4090   28.0510 C.3    13  C13         0.1812
    268  O5'       37.0970   25.4300   26.6300 O.3    13  C13        -0.3114
    269  C4'       35.7550   25.9520   28.5840 C.3    13  C13         0.1773
    270  O4'       35.6800   27.3970   28.4200 O.3    13  C13        -0.3307
    271  C3'       34.5200   25.3920   27.9020 C.3    13  C13         0.1860
    272  O3'       33.5800   25.0400   28.8950 O.3    13  C13        -0.3112
    273  C2'       34.0250   26.5290   27.0000 C.3    13  C13         0.2309
    274  O2'       32.6180   26.5120   26.8390 O.3    13  C13        -0.2156
    275  C1'       34.4940   27.7740   27.7540 C.3    13  C13         0.2420
    276  N1        34.7960   28.9720   26.8950 N.ar   13  C13        -0.2535
    277  C2        33.9780   30.1210   26.9570 C.ar   13  C13         0.3532
    278  O2        33.0050   30.1330   27.7240 O.2    13  C13        -0.2443
    279  N3        34.2660   31.2000   26.1710 N.ar   13  C13        -0.1739
    280  C4        35.3160   31.1550   25.3450 C.ar   13  C13         0.1759
    281  N4        35.5630   32.2250   24.5850 N.pl3  13  C13        -0.1070
    282  C5        36.1630   30.0050   25.2590 C.ar   13  C13         0.0566
    283  C6        35.8710   28.9550   26.0410 C.ar   13  C13         0.0850
    284  OP1       37.1600   24.1380   24.4470 O.2    13  C13        -0.5172
    285  OP2       39.1090   24.1180   26.0920 O.co2  13  C13        -0.4373
    286  P         32.8950   23.6010   28.8640 P.3    14  G14         0.2141
    287  C5'       32.8240   23.1360   26.2510 C.3    14  G14         0.1812
    288  O5'       32.1660   23.5770   27.4290 O.3    14  G14        -0.3114
    289  C4'       31.8880   22.4510   25.2740 C.3    14  G14         0.1773
    290  O4'       32.0710   21.0070   25.3600 O.3    14  G14        -0.3307
    291  C3'       30.3890   22.6660   25.4540 C.3    14  G14         0.1860
    292  O3'       29.9600   23.8380   24.7420 O.3    14  G14        -0.3112
    293  C2'       29.8590   21.3630   24.8560 C.3    14  G14         0.2309
    294  O2'       29.9700   21.3370   23.4480 O.3    14  G14        -0.2156
    295  C1'       30.8230   20.3520   25.4650 C.3    14  G14         0.2408
    296  N1        27.6790   17.9970   28.7210 N.ar   14  G14        -0.1709
    297  C2        27.6400   18.0590   27.3430 C.ar   14  G14         0.2606
    298  N2        26.6440   17.4230   26.7130 N.pl3  14  G14        -0.0859
    299  N3        28.5300   18.7040   26.6080 N.ar   14  G14        -0.1918
    300  C4        29.4880   19.3010   27.3550 C.ar   14  G14         0.1723
    301  C5        29.6160   19.3030   28.7260 C.ar   14  G14         0.1748
    302  C6        28.6600   18.6120   29.5030 C.ar   14  G14         0.3023
    303  O6        28.6280   18.5120   30.7330 O.2    14  G14        -0.2633
    304  N7        30.7300   20.0280   29.1160 N.ar   14  G14        -0.2173
    305  C8        31.2400   20.4480   27.9920 C.ar   14  G14         0.1817
    306  N9        30.5430   20.0440   26.8710 N.ar   14  G14        -0.2693
    307  OP1       31.8610   23.5810   29.9270 O.3    14  G14        -0.4373
    308  OP2       33.9530   22.5720   28.9190 O.co2  14  G14        -0.5172
    309  P         28.6450   24.6600   25.1530 P.3    15  C15         0.2141
    310  C5'       27.2900   23.2710   23.3470 C.3    15  C15         0.1812
    311  O5'       27.4840   23.6610   24.6970 O.3    15  C15        -0.3114
    312  C4'       26.0550   22.4060   23.2850 C.3    15  C15         0.1773
    313  O4'       26.2920   21.1760   24.0140 O.3    15  C15        -0.3307
    314  C3'       24.8700   23.0240   23.9990 C.3    15  C15         0.1860
    315  O3'       24.2190   23.9560   23.1310 O.3    15  C15        -0.3112
    316  C2'       24.0540   21.7830   24.3470 C.3    15  C15         0.2309
    317  O2'       23.3410   21.2650   23.2470 O.3    15  C15        -0.2156
    318  C1'       25.1410   20.7880   24.7440 C.3    15  C15         0.2420
    319  N1        25.4270   20.7570   26.2330 N.ar   15  C15        -0.2535
    320  C2        24.6050   20.0340   27.1250 C.ar   15  C15         0.3532
    321  O2        23.6350   19.3990   26.7040 O.2    15  C15        -0.2443
    322  N3        24.8870   20.0380   28.4530 N.ar   15  C15        -0.1739
    323  C4        25.9400   20.7260   28.9010 C.ar   15  C15         0.1759
    324  N4        26.2040   20.7180   30.2090 N.pl3  15  C15        -0.1070
    325  C5        26.7840   21.4620   28.0220 C.ar   15  C15         0.0566
    326  C6        26.4950   21.4480   26.7180 C.ar   15  C15         0.0850
    327  OP1       28.5970   25.8750   24.3120 O.2    15  C15        -0.5172
    328  OP2       28.5710   24.7920   26.6320 O.co2  15  C15        -0.4373
    329  P         23.5160   25.2790   23.7060 P.3    16  G16         0.2141
    330  C5'       21.0650   24.4570   23.5950 C.3    16  G16         0.1812
    331  O5'       22.2170   24.6570   24.4000 O.3    16  G16        -0.3114
    332  C4'       20.1030   23.4480   24.1950 C.3    16  G16         0.1773
    333  O4'       20.8160   22.3290   24.7670 O.3    16  G16        -0.3307
    334  C3'       19.2250   23.9710   25.3160 C.3    16  G16         0.1860
    335  O3'       18.0750   24.5320   24.7690 O.3    16  G16        -0.3112
    336  C2'       18.8480   22.6840   26.0220 C.3    16  G16         0.2309
    337  O2'       17.7940   21.9560   25.4150 O.3    16  G16        -0.2156
    338  C1'       20.1570   21.9130   25.9450 C.3    16  G16         0.2408
    339  N1        20.5920   21.3170   30.9840 N.ar   16  G16        -0.1709
    340  C2        19.5730   20.9260   30.1460 C.ar   16  G16         0.2606
    341  N2        18.5450   20.2890   30.7180 N.pl3  16  G16        -0.0859
    342  N3        19.5740   21.1330   28.8310 N.ar   16  G16        -0.1918
    343  C4        20.6920   21.7910   28.4120 C.ar   16  G16         0.1723
    344  C5        21.7560   22.2290   29.1690 C.ar   16  G16         0.1748
    345  C6        21.7380   21.9850   30.5600 C.ar   16  G16         0.3023
    346  O6        22.5910   22.3000   31.3770 O.2    16  G16        -0.2633
    347  N7        22.7090   22.8600   28.3830 N.ar   16  G16        -0.2173
    348  C8        22.2080   22.7980   27.1820 C.ar   16  G16         0.1817
    349  N9        20.9910   22.1620   27.1230 N.ar   16  G16        -0.2693
    350  OP1       23.1110   26.1100   22.5520 O.2    16  G16        -0.5172
    351  OP2       24.3650   25.9010   24.7510 O.co2  16  G16        -0.4373
    352  P         17.3910   25.8040   25.4330 P.3    17  C17         0.2141
    353  C5'       15.4360   24.3930   26.3860 C.3    17  C17         0.1812
    354  O5'       16.5990   25.1650   26.6610 O.3    17  C17        -0.3114
    355  C4'       14.8500   23.8860   27.6840 C.3    17  C17         0.1773
    356  O4'       15.8070   22.9960   28.2960 O.3    17  C17        -0.3307
    357  C3'       14.6770   24.9670   28.7280 C.3    17  C17         0.1860
    358  O3'       13.4710   25.6700   28.5480 O.3    17  C17        -0.3112
    359  C2'       14.7430   24.1960   30.0390 C.3    17  C17         0.2309
    360  O2'       13.5420   23.5510   30.4070 O.3    17  C17        -0.2156
    361  C1'       15.8240   23.1790   29.6990 C.3    17  C17         0.2420
    362  N1        17.1890   23.6180   30.1640 N.ar   17  C17        -0.2535
    363  C2        17.5230   23.4330   31.5190 C.ar   17  C17         0.3532
    364  O2        16.6990   22.9190   32.2850 O.2    17  C17        -0.2443
    365  N3        18.7460   23.8240   31.9550 N.ar   17  C17        -0.1739
    366  C4        19.6100   24.3800   31.1060 C.ar   17  C17         0.1759
    367  N4        20.7980   24.7360   31.5960 N.pl3  17  C17        -0.1070
    368  C5        19.2920   24.5860   29.7230 C.ar   17  C17         0.0566
    369  C6        18.0840   24.1950   29.2970 C.ar   17  C17         0.0850
    370  OP1       16.3680   26.2880   24.4730 O.2    17  C17        -0.5172
    371  OP2       18.4720   26.7000   25.9230 O.co2  17  C17        -0.4373
    372  P         13.4630   27.2280   28.9090 P.3    18  C18         0.2141
    373  C5'       12.4140   26.8460   31.2440 C.3    18  C18         0.1812
    374  O5'       13.5820   27.1570   30.5080 O.3    18  C18        -0.3114
    375  C4'       12.7080   26.5130   32.6890 C.3    18  C18         0.1773
    376  O4'       13.8250   25.5980   32.8100 O.3    18  C18        -0.3307
    377  C3'       13.1120   27.6910   33.5510 C.3    18  C18         0.1860
    378  O3'       11.9520   28.4010   33.8780 O.3    18  C18        -0.3112
    379  C2'       13.6890   26.9400   34.7420 C.3    18  C18         0.2309
    380  O2'       12.7050   26.3010   35.5290 O.3    18  C18        -0.2156
    381  C1'       14.5210   25.8840   34.0150 C.3    18  C18         0.2420
    382  N1        15.9350   26.3260   33.7050 N.ar   18  C18        -0.2535
    383  C2        16.8490   26.5160   34.7530 C.ar   18  C18         0.3532
    384  O2        16.4860   26.3150   35.9210 O.2    18  C18        -0.2443
    385  N3        18.1170   26.9110   34.4640 N.ar   18  C18        -0.1739
    386  C4        18.4770   27.1170   33.1940 C.ar   18  C18         0.1759
    387  N4        19.7310   27.5090   32.9570 N.pl3  18  C18        -0.1070
    388  C5        17.5650   26.9350   32.1090 C.ar   18  C18         0.0566
    389  C6        16.3230   26.5430   32.4090 C.ar   18  C18         0.0850
    390  OP1       12.1260   27.7120   28.5150 O.3    18  C18        -0.4373
    391  OP2       14.6540   27.9350   28.3810 O.co2  18  C18        -0.5172
    392  P         11.9660   29.9880   33.9860 P.3    19  C19         0.2141
    393  C5'       11.9000   29.8150   36.6140 C.3    19  C19         0.1812
    394  O5'       12.6230   30.1820   35.4380 O.3    19  C19        -0.3114
    395  C4'       12.8100   29.7550   37.8270 C.3    19  C19         0.1773
    396  O4'       14.0160   29.0120   37.5310 O.3    19  C19        -0.3307
    397  C3'       13.3370   31.0870   38.3050 C.3    19  C19         0.1860
    398  O3'       12.3630   31.6410   39.1350 O.3    19  C19        -0.3112
    399  C2'       14.5880   30.6940   39.0850 C.3    19  C19         0.2309
    400  O2'       14.3190   30.2350   40.3920 O.3    19  C19        -0.2156
    401  C1'       15.1180   29.5400   38.2480 C.3    19  C19         0.2420
    402  N1        16.2130   29.8650   37.2560 N.ar   19  C19        -0.2535
    403  C2        17.5170   30.1860   37.6800 C.ar   19  C19         0.3532
    404  O2        17.7820   30.2300   38.8860 O.2    19  C19        -0.2443
    405  N3        18.4660   30.4490   36.7460 N.ar   19  C19        -0.1739
    406  C4        18.1570   30.3930   35.4450 C.ar   19  C19         0.1759
    407  N4        19.1130   30.6560   34.5560 N.pl3  19  C19        -0.1070
    408  C5        16.8490   30.0640   34.9860 C.ar   19  C19         0.0566
    409  C6        15.9240   29.8090   35.9170 C.ar   19  C19         0.0850
    410  OP1       10.5530   30.4360   34.0140 O.3    19  C19        -0.4373
    411  OP2       12.8910   30.5240   32.9550 O.co2  19  C19        -0.5172
    412  P         11.7510   33.0750   38.7990 P.3    20  G20         0.2141
    413  C5'       13.2690   34.2880   40.4900 C.3    20  G20         0.1812
    414  O5'       12.9630   34.0450   39.1280 O.3    20  G20        -0.3114
    415  C4'       14.6810   34.8120   40.5810 C.3    20  G20         0.1773
    416  O4'       15.5490   33.8830   39.9000 O.3    20  G20        -0.3307
    417  C3'       14.8750   36.1300   39.8620 C.3    20  G20         0.1860
    418  O3'       14.5800   37.1780   40.7580 O.3    20  G20        -0.3112
    419  C2'       16.3500   36.0710   39.5110 C.3    20  G20         0.2309
    420  O2'       17.1660   36.4120   40.6170 O.3    20  G20        -0.2156
    421  C1'       16.5410   34.5930   39.1910 C.3    20  G20         0.2408
    422  N1        19.1660   33.9700   34.8720 N.ar   20  G20        -0.1709
    423  C2        19.6130   34.3570   36.1160 C.ar   20  G20         0.2606
    424  N2        20.9180   34.6140   36.2470 N.pl3  20  G20        -0.0859
    425  N3        18.8210   34.4870   37.1700 N.ar   20  G20        -0.1918
    426  C4        17.5220   34.1960   36.8870 C.ar   20  G20         0.1723
    427  C5        16.9850   33.8010   35.6790 C.ar   20  G20         0.1748
    428  C6        17.8410   33.6650   34.5580 C.ar   20  G20         0.3023
    429  O6        17.5430   33.3390   33.4020 O.2    20  G20        -0.2633
    430  N7        15.6170   33.6010   35.7980 N.ar   20  G20        -0.2173
    431  C8        15.3590   33.8680   37.0540 C.ar   20  G20         0.1817
    432  N9        16.4670   34.2400   37.7750 N.ar   20  G20        -0.2693
    433  OP1       10.6670   33.3030   39.7860 O.3    20  G20        -0.4373
    434  OP2       11.4890   33.1820   37.3470 O.co2  20  G20        -0.5172
    435  P         13.2110   37.9830   40.6030 P.3    21  A21         0.2141
    436  C5'       13.6340   39.7510   42.5350 C.3    21  A21         0.1812
    437  O5'       13.6030   39.4420   41.1460 O.3    21  A21        -0.3114
    438  C4'       14.8930   40.5060   42.9350 C.3    21  A21         0.1773
    439  O4'       16.0740   39.7010   42.7040 O.3    21  A21        -0.3307
    440  C3'       15.2020   41.7720   42.1590 C.3    21  A21         0.1860
    441  O3'       14.4080   42.8480   42.5980 O.3    21  A21        -0.3112
    442  C2'       16.6840   41.9780   42.4770 C.3    21  A21         0.2309
    443  O2'       16.9590   42.5610   43.7390 O.3    21  A21        -0.2156
    444  C1'       17.1790   40.5390   42.4260 C.3    21  A21         0.2408
    445  N1        21.0370   40.7620   38.9820 N.ar   21  A21        -0.2040
    446  C2        20.9350   41.2500   40.2290 C.ar   21  A21         0.2016
    447  N3        19.9100   41.1660   41.0840 N.ar   21  A21        -0.2048
    448  C4        18.8870   40.4820   40.5470 C.ar   21  A21         0.1692
    449  C5        18.8480   39.9180   39.2850 C.ar   21  A21         0.1518
    450  C6        19.9870   40.0750   38.4780 C.ar   21  A21         0.1919
    451  N6        20.0420   39.5750   37.2470 N.pl3  21  A21        -0.1054
    452  N7        17.6440   39.2830   39.0540 N.ar   21  A21        -0.2193
    453  C8        16.9800   39.4760   40.1640 C.ar   21  A21         0.1816
    454  N9        17.6700   40.1810   41.1080 N.ar   21  A21        -0.2693
    455  OP1       12.2170   37.3640   41.5090 O.3    21  A21        -0.4373
    456  OP2       12.9390   38.0970   39.1420 O.co2  21  A21        -0.5172
    457  P         13.6950   43.7900   41.5240 P.3    22  G22         0.2141
    458  C5'       15.8590   45.2180   41.0410 C.3    22  G22         0.1812
    459  O5'       14.8830   44.2990   40.5840 O.3    22  G22        -0.3114
    460  C4'       17.1050   45.1260   40.1790 C.3    22  G22         0.1773
    461  O4'       17.4400   43.7520   39.8630 O.3    22  G22        -0.3307
    462  C3'       16.9870   45.7520   38.8000 C.3    22  G22         0.1860
    463  O3'       17.0850   47.1450   38.9180 O.3    22  G22        -0.3112
    464  C2'       18.1770   45.1240   38.0880 C.3    22  G22         0.2309
    465  O2'       19.4290   45.6250   38.5190 O.3    22  G22        -0.2156
    466  C1'       18.0170   43.6890   38.5630 C.3    22  G22         0.2408
    467  N1        17.6840   41.1530   34.1400 N.ar   22  G22        -0.1709
    468  C2        18.7410   41.8730   34.6440 C.ar   22  G22         0.2606
    469  N2        19.8390   41.9110   33.8730 N.pl3  22  G22        -0.0859
    470  N3        18.7140   42.5060   35.8170 N.ar   22  G22        -0.1918
    471  C4        17.5240   42.3480   36.4570 C.ar   22  G22         0.1723
    472  C5        16.4160   41.6500   36.0320 C.ar   22  G22         0.1748
    473  C6        16.4550   40.9890   34.7840 C.ar   22  G22         0.3023
    474  O6        15.5570   40.3190   34.2510 O.2    22  G22        -0.2633
    475  N7        15.3930   41.7180   36.9600 N.ar   22  G22        -0.2173
    476  C8        15.8910   42.4480   37.9170 C.ar   22  G22         0.1817
    477  N9        17.1800   42.8670   37.6850 N.ar   22  G22        -0.2693
    478  OP1       13.1530   44.9250   42.3050 O.3    22  G22        -0.4373
    479  OP2       12.8020   42.9720   40.6710 O.co2  22  G22        -0.5172
    480  P         16.2840   48.0700   37.9010 P.3    23  A23         0.2141
    481  C5'       18.5710   48.6210   36.7050 C.3    23  A23         0.1812
    482  O5'       17.2710   48.0520   36.6400 O.3    23  A23        -0.3114
    483  C4'       19.4120   48.2410   35.4990 C.3    23  A23         0.1773
    484  O4'       19.5360   46.8050   35.4370 O.3    23  A23        -0.3307
    485  C3'       18.8310   48.6100   34.1460 C.3    23  A23         0.1860
    486  O3'       19.2090   49.9070   33.8000 O.3    23  A23        -0.3112
    487  C2'       19.5120   47.6170   33.2280 C.3    23  A23         0.2309
    488  O2'       20.8330   48.0030   32.9200 O.3    23  A23        -0.2156
    489  C1'       19.4750   46.3660   34.0900 C.3    23  A23         0.2408
    490  N1        17.1230   42.9920   31.0110 N.ar   23  A23        -0.2040
    491  C2        18.3270   43.5860   30.9450 C.ar   23  A23         0.2016
    492  N3        18.8720   44.4610   31.7910 N.ar   23  A23        -0.2048
    493  C4        18.0390   44.7240   32.8120 C.ar   23  A23         0.1692
    494  C5        16.7790   44.1930   33.0200 C.ar   23  A23         0.1518
    495  C6        16.3080   43.2760   32.0530 C.ar   23  A23         0.1919
    496  N6        15.1090   42.6870   32.1200 N.pl3  23  A23        -0.1054
    497  N7        16.2210   44.6940   34.1760 N.ar   23  A23        -0.2193
    498  C8        17.1390   45.5060   34.6370 C.ar   23  A23         0.1816
    499  N9        18.2660   45.5670   33.8670 N.ar   23  A23        -0.2693
    500  OP1       16.1920   49.4070   38.5270 O.3    23  A23        -0.4373
    501  OP2       15.0460   47.3910   37.4630 O.co2  23  A23        -0.5172
    502  P         18.2270   50.8100   32.9260 P.3    24  U24         0.2141
    503  C5'       19.3420   50.0700   30.6590 C.3    24  U24         0.1812
    504  O5'       18.2100   50.0080   31.5390 O.3    24  U24        -0.3114
    505  C4'       19.2360   49.0450   29.5460 C.3    24  U24         0.1773
    506  O4'       18.9640   47.7380   30.0990 O.3    24  U24        -0.3307
    507  C3'       18.0750   49.2900   28.5960 C.3    24  U24         0.1860
    508  O3'       18.4030   50.2480   27.5900 O.3    24  U24        -0.3112
    509  C2'       17.8360   47.9020   28.0220 C.3    24  U24         0.2309
    510  O2'       18.7100   47.5910   26.9560 O.3    24  U24        -0.2156
    511  C1'       18.0970   47.0200   29.2410 C.3    24  U24         0.2420
    512  N1        16.8210   46.6430   29.9450 N.ar   24  U24        -0.2534
    513  C2        16.0480   45.6000   29.4470 C.ar   24  U24         0.3546
    514  O2        16.3440   44.9410   28.4590 O.2    24  U24        -0.2443
    515  N3        14.8940   45.3340   30.1550 N.ar   24  U24        -0.1530
    516  C4        14.4350   45.9880   31.2840 C.ar   24  U24         0.2846
    517  O4        13.3810   45.6370   31.8120 O.2    24  U24        -0.2650
    518  C5        15.2870   47.0580   31.7390 C.ar   24  U24         0.0814
    519  C6        16.4150   47.3380   31.0700 C.ar   24  U24         0.0870
    520  OP1       18.8940   52.1210   32.7350 O.2    24  U24        -0.5172
    521  OP2       16.8710   50.7620   33.5170 O.co2  24  U24        -0.4373
    522  P         17.3710   51.4390   27.3100 P.3    25  G25         0.2141
    523  C5'       16.1020   49.9910   25.5600 C.3    25  G25         0.1812
    524  O5'       16.0790   50.6450   26.8100 O.3    25  G25        -0.3114
    525  C4'       15.0100   48.9490   25.4750 C.3    25  G25         0.1773
    526  O4'       14.8770   48.2340   26.7250 O.3    25  G25        -0.3307
    527  C3'       13.6350   49.5330   25.2280 C.3    25  G25         0.1860
    528  O3'       13.4910   49.8510   23.8450 O.3    25  G25        -0.3112
    529  C2'       12.7280   48.4050   25.7180 C.3    25  G25         0.2309
    530  O2'       12.5210   47.3960   24.7500 O.3    25  G25        -0.2156
    531  C1'       13.5260   47.8460   26.8950 C.3    25  G25         0.2408
    532  N1        10.5440   46.8840   30.9340 N.ar   25  G25        -0.1709
    533  C2        10.7220   46.1440   29.7930 C.ar   25  G25         0.2606
    534  N2        10.0220   45.0100   29.7210 N.pl3  25  G25        -0.0859
    535  N3        11.5310   46.4900   28.7980 N.ar   25  G25        -0.1918
    536  C4        12.1660   47.6720   29.0380 C.ar   25  G25         0.1723
    537  C5        12.0520   48.4860   30.1490 C.ar   25  G25         0.1748
    538  C6        11.1860   48.0940   31.2040 C.ar   25  G25         0.3023
    539  O6        10.9530   48.6790   32.2730 O.2    25  G25        -0.2633
    540  N7        12.8610   49.6050   30.0210 N.ar   25  G25        -0.2173
    541  C8        13.4360   49.4520   28.8620 C.ar   25  G25         0.1817
    542  N9        13.0640   48.3050   28.2030 N.ar   25  G25        -0.2693
    543  OP1       17.9060   52.2800   26.2140 O.2    25  G25        -0.5172
    544  OP2       17.0270   52.0770   28.6010 O.co2  25  G25        -0.4373
    545  P         13.1780   51.3640   23.4210 P.3    26  A26         0.2141
    546  C5'       14.2240   53.6610   24.0730 C.3    26  A26         0.1812
    547  O5'       14.2170   52.2510   24.2410 O.3    26  A26        -0.3114
    548  C4'       13.7020   54.3460   25.3230 C.3    26  A26         0.1773
    549  O4'       12.5040   53.6880   25.8100 O.3    26  A26        -0.3307
    550  C3'       14.6680   54.3780   26.5050 C.3    26  A26         0.1860
    551  O3'       14.6870   55.6870   27.0490 O.3    26  A26        -0.3112
    552  C2'       14.0510   53.3800   27.4850 C.3    26  A26         0.2309
    553  O2'       14.3850   53.6360   28.8390 O.3    26  A26        -0.2156
    554  C1'       12.5750   53.6410   27.2180 C.3    26  A26         0.2408
    555  N1         9.7140   52.0410   31.2110 N.ar   26  A26        -0.2040
    556  C2        10.4810   53.1260   31.0290 C.ar   26  A26         0.2016
    557  N3        11.2000   53.4830   29.9600 N.ar   26  A26        -0.2048
    558  C4        11.0860   52.5790   28.9730 C.ar   26  A26         0.1692
    559  C5        10.3360   51.4160   29.0080 C.ar   26  A26         0.1518
    560  C6         9.6190   51.1520   30.1990 C.ar   26  A26         0.1919
    561  N6         8.8500   50.0770   30.3800 N.pl3  26  A26        -0.1054
    562  N7        10.4560   50.7270   27.8120 N.ar   26  A26        -0.2193
    563  C8        11.2600   51.4800   27.0960 C.ar   26  A26         0.1816
    564  N9        11.6800   52.6120   27.7340 N.ar   26  A26        -0.2693
    565  OP1       11.8200   51.6540   23.9250 O.3    26  A26        -0.4373
    566  OP2       13.5140   51.5330   21.9920 O.co2  26  A26        -0.5172
    567  P         15.7840   56.7560   26.5990 P.3    27  G27         0.2141
    568  C5'       14.4590   59.0140   27.0050 C.3    27  G27         0.1812
    569  O5'       15.3610   58.0210   27.4830 O.3    27  G27        -0.3114
    570  C4'       13.0170   58.5230   26.9690 C.3    27  G27         0.1773
    571  O4'       12.4630   58.3700   28.3110 O.3    27  G27        -0.3307
    572  C3'       12.0500   59.4420   26.2230 C.3    27  G27         0.1860
    573  O3'       11.1530   58.6210   25.4700 O.3    27  G27        -0.3112
    574  C2'       11.3830   60.1830   27.3820 C.3    27  G27         0.2309
    575  O2'       10.1480   60.7810   27.0540 O.3    27  G27        -0.2156
    576  C1'       11.2010   59.0130   28.3460 C.3    27  G27         0.2408
    577  N1         8.5320   57.7810   32.5420 N.ar   27  G27        -0.1709
    578  C2         8.6030   57.1170   31.3370 C.ar   27  G27         0.2606
    579  N2         7.8790   55.9940   31.2380 N.pl3  27  G27        -0.0859
    580  N3         9.3370   57.5280   30.3040 N.ar   27  G27        -0.1918
    581  C4        10.0060   58.6820   30.5720 C.ar   27  G27         0.1723
    582  C5         9.9950   59.4160   31.7410 C.ar   27  G27         0.1748
    583  C6         9.2150   58.9640   32.8320 C.ar   27  G27         0.3023
    584  O6         9.0990   59.5010   33.9440 O.2    27  G27        -0.2633
    585  N7        10.8060   60.5370   31.6400 N.ar   27  G27        -0.2173
    586  C8        11.2860   60.4670   30.4320 C.ar   27  G27         0.1817
    587  N9        10.8480   59.3710   29.7210 N.ar   27  G27        -0.2693
    588  OP1       15.6110   57.0580   25.1600 O.2    27  G27        -0.5172
    589  OP2       17.1010   56.2880   27.0840 O.co2  27  G27        -0.4373
    590  P         10.0200   59.2420   24.5280 P.3    28  U28         0.2141
    591  C5'       10.9000   57.3820   22.8720 C.3    28  U28         0.1812
    592  O5'        9.7990   58.1030   23.4220 O.3    28  U28        -0.3114
    593  C4'       10.5220   55.9500   22.5260 C.3    28  U28         0.1773
    594  O4'       10.8950   55.0700   23.6100 O.3    28  U28        -0.3307
    595  C3'        9.0390   55.6900   22.3250 C.3    28  U28         0.1860
    596  O3'        8.7180   55.9490   20.9810 O.3    28  U28        -0.3112
    597  C2'        8.9250   54.2090   22.6360 C.3    28  U28         0.2309
    598  O2'        9.3370   53.4010   21.5570 O.3    28  U28        -0.2156
    599  C1'        9.9230   54.0530   23.7710 C.3    28  U28         0.2420
    600  N1         9.3430   54.1150   25.1580 N.ar   28  U28        -0.2534
    601  C2         8.5720   53.0700   25.6530 C.ar   28  U28         0.3546
    602  O2         8.3010   52.0650   25.0320 O.2    28  U28        -0.2443
    603  N3         8.1070   53.2380   26.9330 N.ar   28  U28        -0.1530
    604  C4         8.3330   54.3250   27.7570 C.ar   28  U28         0.2846
    605  O4         7.8570   54.3450   28.8840 O.2    28  U28        -0.2650
    606  C5         9.1430   55.3730   27.1830 C.ar   28  U28         0.0814
    607  C6         9.6060   55.2310   25.9350 C.ar   28  U28         0.0870
    608  OP1       10.5780   60.4520   23.8920 O.2    28  U28        -0.5172
    609  OP2        8.7760   59.3520   25.3230 O.co2  28  U28        -0.4373
    610  P          7.2480   56.3910   20.5370 P.3    29  A29         0.2141
    611  C5'        6.3920   53.9940   19.8060 C.3    29  A29         0.1812
    612  O5'        6.3780   55.0590   20.7590 O.3    29  A29        -0.3114
    613  C4'        5.5100   52.8460   20.2610 C.3    29  A29         0.1773
    614  O4'        5.9930   52.3630   21.5350 O.3    29  A29        -0.3307
    615  C3'        4.0580   53.1990   20.5490 C.3    29  A29         0.1860
    616  O3'        3.2670   53.1480   19.3800 O.3    29  A29        -0.3112
    617  C2'        3.6500   52.1080   21.5260 C.3    29  A29         0.2309
    618  O2'        3.3770   50.8770   20.8870 O.3    29  A29        -0.2156
    619  C1'        4.9070   52.0150   22.3780 C.3    29  A29         0.2408
    620  N1         3.0160   52.9740   27.1140 N.ar   29  A29        -0.2040
    621  C2         2.7980   51.9620   26.2570 C.ar   29  A29         0.2016
    622  N3         3.3200   51.7610   25.0420 N.ar   29  A29        -0.2048
    623  C4         4.1590   52.7620   24.7040 C.ar   29  A29         0.1692
    624  C5         4.4760   53.8660   25.4790 C.ar   29  A29         0.1518
    625  C6         3.8640   53.9610   26.7450 C.ar   29  A29         0.1919
    626  N6         4.0870   54.9810   27.5780 N.pl3  29  A29        -0.1054
    627  N7         5.3680   54.6920   24.8240 N.ar   29  A29        -0.2193
    628  C8         5.5730   54.0820   23.6820 C.ar   29  A29         0.1816
    629  N9         4.8800   52.9120   23.5360 N.ar   29  A29        -0.2693
    630  OP1        7.3190   56.6760   19.0860 O.2    29  A29        -0.5172
    631  OP2        6.7820   57.4440   21.4730 O.co2  29  A29        -0.4373
    632  P          2.1670   54.2810   19.1340 P.3    30  G30         0.2141
    633  C5'        0.2030   53.1180   20.4210 C.3    30  G30         0.1812
    634  O5'        1.1790   54.1500   20.3870 O.3    30  G30        -0.3114
    635  C4'       -0.3280   52.9070   21.8280 C.3    30  G30         0.1773
    636  O4'        0.7470   52.8560   22.8020 O.3    30  G30        -0.3307
    637  C3'       -1.2040   54.0200   22.3700 C.3    30  G30         0.1860
    638  O3'       -2.4890   53.9670   21.8010 O.3    30  G30        -0.3112
    639  C2'       -1.1990   53.6710   23.8510 C.3    30  G30         0.2309
    640  O2'       -1.9430   52.5040   24.1510 O.3    30  G30        -0.2156
    641  C1'        0.2980   53.4210   24.0250 C.3    30  G30         0.2408
    642  N1         1.3380   57.1370   27.3840 N.ar   30  G30        -0.1709
    643  C2         0.4670   56.0770   27.5070 C.ar   30  G30         0.2606
    644  N2        -0.2130   55.9900   28.6590 N.pl3  30  G30        -0.0859
    645  N3         0.2770   55.1640   26.5620 N.ar   30  G30        -0.1918
    646  C4         1.0390   55.3990   25.4610 C.ar   30  G30         0.1723
    647  C5         1.9340   56.4280   25.2500 C.ar   30  G30         0.1748
    648  C6         2.1280   57.3920   26.2630 C.ar   30  G30         0.3023
    649  O6         2.8820   58.3730   26.2400 O.2    30  G30        -0.2633
    650  N7         2.5220   56.3290   23.9990 N.ar   30  G30        -0.2173
    651  C8         1.9820   55.2590   23.4850 C.ar   30  G30         0.1817
    652  N9         1.0720   54.6370   24.3110 N.ar   30  G30        -0.2693
    653  OP1        1.4390   53.8850   17.9050 O.2    30  G30        -0.5172
    654  OP2        2.8350   55.6050   19.2130 O.co2  30  G30        -0.4373
    655  P         -3.1770   55.3390   21.3570 P.3    31  G31         0.2141
    656  C5'       -4.6670   55.3330   23.4970 C.3    31  G31         0.1812
    657  O5'       -3.6260   55.9600   22.7620 O.3    31  G31        -0.3114
    658  C4'       -4.9290   56.0720   24.7890 C.3    31  G31         0.1773
    659  O4'       -3.7510   55.9910   25.6290 O.3    31  G31        -0.3307
    660  C3'       -5.1560   57.5630   24.6310 C.3    31  G31         0.1860
    661  O3'       -6.4880   57.8540   24.2490 O.3    31  G31        -0.3112
    662  C2'       -4.8200   58.0520   26.0340 C.3    31  G31         0.2309
    663  O2'       -5.8390   57.7970   26.9810 O.3    31  G31        -0.2156
    664  C1'       -3.5710   57.2200   26.3130 C.3    31  G31         0.2408
    665  N1        -0.2830   61.0600   26.9910 N.ar   31  G31        -0.1709
    666  C2        -1.3690   60.7000   27.7610 C.ar   31  G31         0.2606
    667  N2        -1.6180   61.4510   28.8440 N.pl3  31  G31        -0.0859
    668  N3        -2.1570   59.6650   27.4810 N.ar   31  G31        -0.1918
    669  C4        -1.7740   59.0060   26.3540 C.ar   31  G31         0.1723
    670  C5        -0.7120   59.2880   25.5220 C.ar   31  G31         0.1748
    671  C6         0.1220   60.3910   25.8300 C.ar   31  G31         0.3023
    672  O6         1.1120   60.7850   25.1980 O.2    31  G31        -0.2633
    673  N7        -0.6490   58.3840   24.4690 N.ar   31  G31        -0.2173
    674  C8        -1.6550   57.5860   24.6780 C.ar   31  G31         0.1817
    675  N9        -2.3800   57.8980   25.8060 N.ar   31  G31        -0.2693
    676  OP1       -4.3780   54.9920   20.5640 O.2    31  G31        -0.5172
    677  OP2       -2.1420   56.2170   20.7610 O.co2  31  G31        -0.4373
    678  P         -6.7760   59.1120   23.2950 P.3    32  C32         0.2141
    679  C5'       -7.4670   60.5820   25.4000 C.3    32  C32         0.1812
    680  O5'       -6.6240   60.3830   24.2640 O.3    32  C32        -0.3114
    681  C4'       -7.0200   61.8010   26.1860 C.3    32  C32         0.1773
    682  O4'       -5.6780   61.5900   26.6990 O.3    32  C32        -0.3307
    683  C3'       -6.8530   63.0670   25.3650 C.3    32  C32         0.1860
    684  O3'       -8.0830   63.7090   25.0570 O.3    32  C32        -0.3112
    685  C2'       -5.9480   63.8900   26.2760 C.3    32  C32         0.2309
    686  O2'       -6.5910   64.4130   27.4260 O.3    32  C32        -0.2156
    687  C1'       -4.9370   62.8040   26.6360 C.3    32  C32         0.2420
    688  N1        -3.8030   62.7250   25.6250 N.ar   32  C32        -0.2535
    689  C2        -2.7400   63.6560   25.6730 C.ar   32  C32         0.3532
    690  O2        -2.7160   64.5370   26.5440 O.2    32  C32        -0.2443
    691  N3        -1.7450   63.5640   24.7480 N.ar   32  C32        -0.1739
    692  C4        -1.7760   62.6110   23.8090 C.ar   32  C32         0.1759
    693  N4        -0.7740   62.5640   22.9260 N.pl3  32  C32        -0.1070
    694  C5        -2.8390   61.6610   23.7330 C.ar   32  C32         0.0566
    695  C6        -3.8120   61.7590   24.6470 C.ar   32  C32         0.0850
    696  OP1       -8.1760   59.0080   22.8280 O.3    32  C32        -0.4373
    697  OP2       -5.6850   59.1790   22.2950 O.co2  32  C32        -0.5172
    698  P         -8.3160   64.2280   23.5550 P.3    33  U33         0.2141
    699  C5'       -7.3980   66.6260   24.2040 C.3    33  U33         0.1812
    700  O5'       -7.2810   65.4420   23.4090 O.3    33  U33        -0.3114
    701  C4'       -6.1230   67.4480   24.1280 C.3    33  U33         0.1773
    702  O4'       -4.9630   66.6050   24.3490 O.3    33  U33        -0.3307
    703  C3'       -5.8410   68.0550   22.7650 C.3    33  U33         0.1860
    704  O3'       -6.5930   69.2380   22.5600 O.3    33  U33        -0.3112
    705  C2'       -4.3390   68.3180   22.8430 C.3    33  U33         0.2309
    706  O2'       -4.0000   69.4570   23.6120 O.3    33  U33        -0.2156
    707  C1'       -3.8770   67.0490   23.5460 C.3    33  U33         0.2420
    708  N1        -3.4150   65.9730   22.5920 N.ar   33  U33        -0.2534
    709  C2        -2.1320   66.0420   22.0680 C.ar   33  U33         0.3546
    710  O2        -1.3380   66.9320   22.3300 O.2    33  U33        -0.2443
    711  N3        -1.8040   65.0140   21.2110 N.ar   33  U33        -0.1530
    712  C4        -2.6080   63.9510   20.8260 C.ar   33  U33         0.2846
    713  O4        -2.1730   63.1080   20.0490 O.2    33  U33        -0.2650
    714  C5        -3.9260   63.9440   21.4070 C.ar   33  U33         0.0814
    715  C6        -4.2660   64.9320   22.2480 C.ar   33  U33         0.0870
    716  OP1       -9.6860   64.7890   23.4680 O.3    33  U33        -0.4373
    717  OP2       -7.8920   63.1440   22.6320 O.co2  33  U33        -0.5172
    718  P         -6.7950   69.7720   21.0640 P.3    34  G34         0.2141
    719  C5'       -5.2520   71.8650   21.6130 C.3    34  G34         0.1812
    720  O5'       -5.4940   70.6820   20.8450 O.3    34  G34        -0.3114
    721  C4'       -3.9510   72.5080   21.1690 C.3    34  G34         0.1773
    722  O4'       -2.8720   71.5780   21.4390 O.3    34  G34        -0.3307
    723  C3'       -3.8660   72.7780   19.6720 C.3    34  G34         0.1860
    724  O3'       -4.3680   74.0650   19.3360 O.3    34  G34        -0.3112
    725  C2'       -2.3780   72.6450   19.3610 C.3    34  G34         0.2309
    726  O2'       -1.6760   73.8720   19.4130 O.3    34  G34        -0.2156
    727  C1'       -1.8830   71.6630   20.4260 C.3    34  G34         0.2408
    728  N1         1.4180   68.8900   17.7110 N.ar   34  G34        -0.1709
    729  C2         1.5050   70.2000   18.1270 C.ar   34  G34         0.2606
    730  N2         2.6100   70.8720   17.7770 N.pl3  34  G34        -0.0859
    731  N3         0.5640   70.8110   18.8390 N.ar   34  G34        -0.1918
    732  C4        -0.4940   70.0010   19.1130 C.ar   34  G34         0.1723
    733  C5        -0.6750   68.6850   18.7440 C.ar   34  G34         0.1748
    734  C6         0.3410   68.0470   17.9820 C.ar   34  G34         0.3023
    735  O6         0.3690   66.8880   17.5570 O.2    34  G34        -0.2633
    736  N7        -1.8930   68.2090   19.2200 N.ar   34  G34        -0.2173
    737  C8        -2.4120   69.2260   19.8540 C.ar   34  G34         0.1817
    738  N9        -1.6150   70.3480   19.8370 N.ar   34  G34        -0.2693
    739  OP1       -8.0060   70.6270   21.0580 O.3    34  G34        -0.4373
    740  OP2       -6.6940   68.6210   20.1300 O.co2  34  G34        -0.5172
    741  P         -5.1760   74.2500   17.9670 P.3    35  U35         0.2141
    742  C5'       -3.3480   75.5180   16.5710 C.3    35  U35         0.1812
    743  O5'       -4.0200   74.3010   16.8670 O.3    35  U35        -0.3114
    744  C4'       -2.0110   75.2400   15.9170 C.3    35  U35         0.1773
    745  O4'       -1.3560   74.1510   16.6230 O.3    35  U35        -0.3307
    746  C3'       -2.0710   74.7400   14.4770 C.3    35  U35         0.1860
    747  O3'       -2.2840   75.7960   13.5320 O.3    35  U35        -0.3112
    748  C2'       -0.6910   74.0990   14.3570 C.3    35  U35         0.2309
    749  O2'        0.3510   75.0400   14.1740 O.3    35  U35        -0.2156
    750  C1'       -0.5630   73.4020   15.7140 C.3    35  U35         0.2420
    751  N1        -0.9640   71.9350   15.6800 N.ar   35  U35        -0.2534
    752  C2        -0.0190   70.9830   15.3160 C.ar   35  U35         0.3546
    753  O2         1.1380   71.2400   15.0270 O.2    35  U35        -0.2443
    754  N3        -0.4700   69.6840   15.3040 N.ar   35  U35        -0.1530
    755  C4        -1.7450   69.2430   15.6070 C.ar   35  U35         0.2846
    756  O4        -1.9920   68.0440   15.5490 O.2    35  U35        -0.2650
    757  C5        -2.6820   70.2790   15.9720 C.ar   35  U35         0.0814
    758  C6        -2.2640   71.5540   15.9920 C.ar   35  U35         0.0870
    759  OP1       -5.8650   75.5580   18.0390 O.3    35  U35        -0.4373
    760  OP2       -5.9630   73.0240   17.7040 O.co2  35  U35        -0.5172
    761  P         -3.0950   75.5420   12.1670 P.3    36  C36         0.2141
    762  C5'       -0.8710   75.3910   10.7640 C.3    36  C36         0.1812
    763  O5'       -2.0510   74.7600   11.2450 O.3    36  C36        -0.3114
    764  C4'        0.1200   74.3400   10.3160 C.3    36  C36         0.1773
    765  O4'        0.3520   73.4250   11.4150 O.3    36  C36        -0.3307
    766  C3'       -0.3810   73.4260    9.2100 C.3    36  C36         0.1860
    767  O3'       -0.2210   74.0070    7.9290 O.3    36  C36        -0.3112
    768  C2'        0.4980   72.1990    9.4100 C.3    36  C36         0.2309
    769  O2'        1.8190   72.3720    8.9340 O.3    36  C36        -0.2156
    770  C1'        0.4840   72.0970   10.9310 C.3    36  C36         0.2420
    771  N1        -0.6100   71.1860   11.4620 N.ar   36  C36        -0.2535
    772  C2        -0.4090   69.7940   11.4580 C.ar   36  C36         0.3532
    773  O2         0.6550   69.3440   11.0240 O.2    36  C36        -0.2443
    774  N3        -1.3850   68.9690   11.9300 N.ar   36  C36        -0.1739
    775  C4        -2.5300   69.4800   12.3930 C.ar   36  C36         0.1759
    776  N4        -3.4590   68.6310   12.8470 N.pl3  36  C36        -0.1070
    777  C5        -2.7650   70.8900   12.4080 C.ar   36  C36         0.0566
    778  C6        -1.7950   71.6910   11.9380 C.ar   36  C36         0.0850
    779  OP1       -3.3680   76.8690   11.5740 O.2    36  C36        -0.5172
    780  OP2       -4.2080   74.6000   12.4280 O.co2  36  C36        -0.4373
    781  P         -1.2040   73.5640    6.7440 P.3    37  C37         0.2141
    782  C5'        0.6920   72.0590    5.7110 C.3    37  C37         0.1812
    783  O5'       -0.6070   72.1480    6.2940 O.3    37  C37        -0.3114
    784  C4'        1.1220   70.6170    5.5390 C.3    37  C37         0.1773
    785  O4'        1.1080   69.9330    6.8160 O.3    37  C37        -0.3307
    786  C3'        0.1950   69.7630    4.6940 C.3    37  C37         0.1860
    787  O3'        0.3720   70.0140    3.3090 O.3    37  C37        -0.3112
    788  C2'        0.6450   68.3690    5.1100 C.3    37  C37         0.2309
    789  O2'        1.8770   67.9690    4.5350 O.3    37  C37        -0.2156
    790  C1'        0.7910   68.5640    6.6160 C.3    37  C37         0.2420
    791  N1        -0.4470   68.1700    7.3970 N.ar   37  C37        -0.2535
    792  C2        -0.7770   66.8090    7.5520 C.ar   37  C37         0.3532
    793  O2        -0.0530   65.9340    7.0600 O.2    37  C37        -0.2443
    794  N3        -1.8880   66.4730    8.2590 N.ar   37  C37        -0.1739
    795  C4        -2.6570   67.4240    8.7930 C.ar   37  C37         0.1759
    796  N4        -3.7350   67.0330    9.4750 N.pl3  37  C37        -0.1070
    797  C5        -2.3520   68.8120    8.6470 C.ar   37  C37         0.0566
    798  C6        -1.2530   69.1330    7.9500 C.ar   37  C37         0.0850
    799  OP1       -1.0550   74.5490    5.6470 O.2    37  C37        -0.5172
    800  OP2       -2.5430   73.3060    7.3190 O.co2  37  C37        -0.4373
    801  P         -0.8490   69.7380    2.3080 P.3    38  C38         0.2141
    802  C5'        0.0960   67.3490    1.7030 C.3    38  C38         0.1812
    803  O5'       -0.9330   68.1390    2.3000 O.3    38  C38        -0.3114
    804  C4'       -0.2630   65.8810    1.7810 C.3    38  C38         0.1773
    805  O4'       -0.4630   65.5280    3.1710 O.3    38  C38        -0.3307
    806  C3'       -1.5640   65.5100    1.0830 C.3    38  C38         0.1860
    807  O3'       -1.3170   65.1670   -0.2810 O.3    38  C38        -0.3112
    808  C2'       -2.0530   64.3080    1.8820 C.3    38  C38         0.2309
    809  O2'       -1.5740   63.0820    1.3600 O.3    38  C38        -0.2156
    810  C1'       -1.4880   64.5550    3.2820 C.3    38  C38         0.2420
    811  N1        -2.5310   65.0130    4.2690 N.ar   38  C38        -0.2535
    812  C2        -3.3810   64.0800    4.8950 C.ar   38  C38         0.3532
    813  O2        -3.2750   62.8720    4.6440 O.2    38  C38        -0.2443
    814  N3        -4.3110   64.5300    5.7760 N.ar   38  C38        -0.1739
    815  C4        -4.4140   65.8360    6.0380 C.ar   38  C38         0.1759
    816  N4        -5.3450   66.2310    6.9090 N.pl3  38  C38        -0.1070
    817  C5        -3.5670   66.8000    5.4160 C.ar   38  C38         0.0566
    818  C6        -2.6530   66.3480    4.5490 C.ar   38  C38         0.0850
    819  OP1       -0.4440   70.2050    0.9680 O.2    38  C38        -0.5172
    820  OP2       -2.0980   70.2600    2.9100 O.co2  38  C38        -0.4373
    821  P         -2.1180   65.8670   -1.4840 P.3    39  A39         0.2141
    822  C5'       -3.6270   63.6640   -1.2510 C.3    39  A39         0.1812
    823  O5'       -3.0430   64.6920   -2.0680 O.3    39  A39        -0.3114
    824  C4'       -5.0870   63.9440   -0.9240 C.3    39  A39         0.1773
    825  O4'       -5.2010   64.5040    0.4080 O.3    39  A39        -0.3307
    826  C3'       -5.8260   64.9070   -1.8640 C.3    39  A39         0.1860
    827  O3'       -6.9900   64.2790   -2.4200 O.3    39  A39        -0.3112
    828  C2'       -6.1820   66.0950   -0.9660 C.3    39  A39         0.2309
    829  O2'       -7.4030   66.7330   -1.2960 O.3    39  A39        -0.2156
    830  C1'       -6.2790   65.4150    0.3960 C.3    39  A39         0.2408
    831  N1        -8.3860   67.1120    4.8090 N.ar   39  A39        -0.2040
    832  C2        -8.7980   66.1890    3.9260 C.ar   39  A39         0.2016
    833  N3        -8.2020   65.7950    2.7960 N.ar   39  A39        -0.2048
    834  C4        -7.0430   66.4580    2.5910 C.ar   39  A39         0.1692
    835  C5        -6.4930   67.4310    3.4110 C.ar   39  A39         0.1518
    836  C6        -7.2190   67.7630    4.5800 C.ar   39  A39         0.1919
    837  N6        -6.8070   68.6830    5.4610 N.pl3  39  A39        -0.1054
    838  N7        -5.2960   67.8960    2.8890 N.ar   39  A39        -0.2193
    839  C8        -5.1430   67.2050    1.7840 C.ar   39  A39         0.1816
    840  N9        -6.1590   66.3200    1.5380 N.ar   39  A39        -0.2693
    841  OP1       -1.1290   66.2020   -2.5300 O.2    39  A39        -0.5172
    842  OP2       -2.9730   66.9440   -0.9370 O.co2  39  A39        -0.4373
    843  P         -6.9050   63.0570   -3.4590 P.3    40  U40         0.2141
    844  C5'       -6.3200   60.5460   -2.9060 C.3    40  U40         0.1812
    845  O5'       -6.8600   61.7910   -2.4870 O.3    40  U40        -0.3114
    846  C4'       -6.8710   59.4320   -2.0280 C.3    40  U40         0.1773
    847  O4'       -7.3130   59.9520   -0.7400 O.3    40  U40        -0.3307
    848  C3'       -8.0820   58.6880   -2.5840 C.3    40  U40         0.1860
    849  O3'       -8.0680   57.3380   -2.0980 O.3    40  U40        -0.3112
    850  C2'       -9.2360   59.4970   -1.9910 C.3    40  U40         0.2309
    851  O2'      -10.4610   58.7940   -2.0120 O.3    40  U40        -0.2156
    852  C1'       -8.6960   59.6750   -0.5700 C.3    40  U40         0.2420
    853  N1        -9.3260   60.7400    0.3040 N.ar   40  U40        -0.2534
    854  C2       -10.1630   60.3590    1.3470 C.ar   40  U40         0.3546
    855  O2       -10.4470   59.2010    1.6090 O.2    40  U40        -0.2443
    856  N3       -10.6770   61.3940    2.0920 N.ar   40  U40        -0.1530
    857  C4       -10.4410   62.7440    1.9110 C.ar   40  U40         0.2846
    858  O4       -10.9730   63.5550    2.6620 O.2    40  U40        -0.2650
    859  C5        -9.5590   63.0670    0.8150 C.ar   40  U40         0.0814
    860  C6        -9.0440   62.0770    0.0720 C.ar   40  U40         0.0870
    861  OP1       -5.6260   63.1400   -4.2040 O.2    40  U40        -0.5172
    862  OP2       -8.1930   63.0080   -4.1910 O.co2  40  U40        -0.4373
    863  P         -7.1630   56.1920   -2.7620 P.3    41  C41         0.2141
    864  C5'       -6.2510   55.9010   -0.2890 C.3    41  C41         0.1812
    865  O5'       -6.0000   55.9130   -1.6920 O.3    41  C41        -0.3114
    866  C4'       -5.1990   56.7090    0.4510 C.3    41  C41         0.1773
    867  O4'       -5.7090   58.0280    0.7200 O.3    41  C41        -0.3307
    868  C3'       -4.8290   56.2070    1.8370 C.3    41  C41         0.1860
    869  O3'       -3.7120   55.3480    1.7430 O.3    41  C41        -0.3112
    870  C2'       -4.5160   57.4550    2.6680 C.3    41  C41         0.2309
    871  O2'       -3.1520   57.5610    3.0300 O.3    41  C41        -0.2156
    872  C1'       -4.9170   58.5950    1.7380 C.3    41  C41         0.2420
    873  N1        -5.7400   59.6620    2.3620 N.ar   41  C41        -0.2535
    874  C2        -6.9700   59.3810    2.9970 C.ar   41  C41         0.3532
    875  O2        -7.4100   58.2230    3.0730 O.2    41  C41        -0.2443
    876  N3        -7.6660   60.4190    3.5320 N.ar   41  C41        -0.1739
    877  C4        -7.1960   61.6680    3.4490 C.ar   41  C41         0.1759
    878  N4        -7.9270   62.6400    3.9960 N.pl3  41  C41        -0.1070
    879  C5        -5.9570   61.9690    2.8060 C.ar   41  C41         0.0566
    880  C6        -5.2740   60.9460    2.2790 C.ar   41  C41         0.0850
    881  OP1       -6.5250   56.7480   -3.9790 O.2    41  C41        -0.5172
    882  OP2       -8.0260   54.9960   -2.8740 O.co2  41  C41        -0.4373
    883  P         -3.7960   53.9400    2.4840 P.3    42  A42         0.2141
    884  C5'       -2.7290   54.6080    4.7840 C.3    42  A42         0.1812
    885  O5'       -3.9020   54.3890    4.0150 O.3    42  A42        -0.3114
    886  C4'       -2.7890   53.7590    6.0380 C.3    42  A42         0.1773
    887  O4'       -4.0630   53.9530    6.7040 O.3    42  A42        -0.3307
    888  C3'       -2.6520   52.2550    5.8070 C.3    42  A42         0.1860
    889  O3'       -1.5640   51.7430    6.5770 O.3    42  A42        -0.3112
    890  C2'       -3.9780   51.6760    6.2920 C.3    42  A42         0.2309
    891  O2'       -3.8130   50.4310    6.9450 O.3    42  A42        -0.2156
    892  C1'       -4.4330   52.7300    7.2960 C.3    42  A42         0.2408
    893  N1        -8.0870   52.5630   10.9400 N.ar   42  A42        -0.2040
    894  C2        -6.7520   52.5670   11.0190 C.ar   42  A42         0.2016
    895  N3        -5.8600   52.6120   10.0290 N.ar   42  A42        -0.2048
    896  C4        -6.4630   52.6620    8.8290 C.ar   42  A42         0.1692
    897  C5        -7.8260   52.6680    8.5900 C.ar   42  A42         0.1518
    898  C6        -8.6650   52.6150    9.7190 C.ar   42  A42         0.1919
    899  N6        -9.9970   52.6170    9.6250 N.pl3  42  A42        -0.1054
    900  N7        -8.0940   52.7320    7.2320 N.ar   42  A42        -0.2193
    901  C8        -6.9020   52.7570    6.6820 C.ar   42  A42         0.1816
    902  N9        -5.8710   52.7180    7.5860 N.ar   42  A42        -0.2693
    903  OP1       -2.5160   53.2210    2.2800 O.3    42  A42        -0.4373
    904  OP2       -5.0800   53.3050    2.1040 O.co2  42  A42        -0.5172
    905  P         -0.0560   51.9370    6.0820 P.3    43  G43         0.2141
    906  C5'        0.8830   51.0240    8.3330 C.3    43  G43         0.1812
    907  O5'        0.7130   50.8380    6.9320 O.3    43  G43        -0.3114
    908  C4'        1.0970   49.6870    9.0280 C.3    43  G43         0.1773
    909  O4'       -0.0370   48.8060    8.7820 O.3    43  G43        -0.3307
    910  C3'        2.3410   48.9200    8.5910 C.3    43  G43         0.1860
    911  O3'        2.8880   48.2530    9.7190 O.3    43  G43        -0.3112
    912  C2'        1.7730   47.9640    7.5390 C.3    43  G43         0.2309
    913  O2'        2.5100   46.7690    7.3550 O.3    43  G43        -0.2156
    914  C1'        0.3740   47.6580    8.0660 C.3    43  G43         0.2408
    915  N1        -1.3890   44.3080    4.6960 N.ar   43  G43        -0.1709
    916  C2        -0.5060   44.1260    5.7350 C.ar   43  G43         0.2606
    917  N2        -0.0210   42.8900    5.8850 N.pl3  43  G43        -0.0859
    918  N3        -0.1190   45.0880    6.5610 N.ar   43  G43        -0.1918
    919  C4        -0.7020   46.2740    6.2630 C.ar   43  G43         0.1723
    920  C5        -1.5940   46.5650    5.2540 C.ar   43  G43         0.1748
    921  C6        -1.9940   45.5240    4.3740 C.ar   43  G43         0.3023
    922  O6        -2.7790   45.5870    3.4140 O.2    43  G43        -0.2633
    923  N7        -1.9570   47.9070    5.2850 N.ar   43  G43        -0.2173
    924  C8        -1.2860   48.3900    6.2930 C.ar   43  G43         0.1817
    925  N9        -0.5130   47.4510    6.9360 N.ar   43  G43        -0.2693
    926  OP1        0.4210   53.2650    6.5230 O.3    43  G43        -0.4373
    927  OP2       -0.0010   51.5790    4.6470 O.co2  43  G43        -0.5172
    928  P          4.4450   47.9330    9.8540 P.3    44  G44         0.2141
    929  C5'        6.3660   48.1780    8.0910 C.3    44  G44         0.1812
    930  O5'        4.9840   47.9810    8.3490 O.3    44  G44        -0.3114
    931  C4'        6.9070   47.1170    7.1510 C.3    44  G44         0.1773
    932  O4'        6.8540   45.7870    7.7440 O.3    44  G44        -0.3307
    933  C3'        6.1350   46.9500    5.8520 C.3    44  G44         0.1860
    934  O3'        6.4010   47.9880    4.9220 O.3    44  G44        -0.3112
    935  C2'        6.7160   45.6250    5.3810 C.3    44  G44         0.2309
    936  O2'        7.9650   45.7840    4.7300 O.3    44  G44        -0.2156
    937  C1'        6.8020   44.8380    6.6940 C.3    44  G44         0.2408
    938  N1         4.2100   40.8000    4.9490 N.ar   44  G44        -0.1709
    939  C2         5.4190   41.3090    4.5330 C.ar   44  G44         0.2606
    940  N2         6.0210   40.6760    3.5190 N.pl3  44  G44        -0.0859
    941  N3         5.9980   42.3740    5.0720 N.ar   44  G44        -0.1918
    942  C4         5.2680   42.9080    6.0840 C.ar   44  G44         0.1723
    943  C5         4.0560   42.4750    6.5750 C.ar   44  G44         0.1748
    944  C6         3.4440   41.3350    5.9900 C.ar   44  G44         0.3023
    945  O6         2.3690   40.8010    6.3010 O.2    44  G44        -0.2633
    946  N7         3.6320   43.2860    7.6200 N.ar   44  G44        -0.2173
    947  C8         4.5760   44.1800    7.7320 C.ar   44  G44         0.1817
    948  N9         5.6080   44.0090    6.8430 N.ar   44  G44        -0.2693
    949  OP1        4.5170   46.5470   10.3520 O.2    44  G44        -0.5172
    950  OP2        5.0990   49.0150   10.6190 O.co2  44  G44        -0.4373
    951  P          5.4160   48.1630    3.6680 P.3    45  G45         0.2141
    952  C5'        6.8210   46.9060    1.7580 C.3    45  G45         0.1812
    953  O5'        5.7790   46.8940    2.7500 O.3    45  G45        -0.3114
    954  C4'        6.6310   45.7880    0.7400 C.3    45  G45         0.1773
    955  O4'        6.5930   44.5040    1.4120 O.3    45  G45        -0.3307
    956  C3'        5.3160   45.8250   -0.0280 C.3    45  G45         0.1860
    957  O3'        5.3850   46.6540   -1.1590 O.3    45  G45        -0.3112
    958  C2'        5.1050   44.3760   -0.4420 C.3    45  G45         0.2309
    959  O2'        5.7540   44.0100   -1.6440 O.3    45  G45        -0.2156
    960  C1'        5.6690   43.6420    0.7670 C.3    45  G45         0.2408
    961  N1         1.6960   40.5870    1.6120 N.ar   45  G45        -0.1709
    962  C2         2.5700   40.6020    0.5530 C.ar   45  G45         0.2606
    963  N2         2.3690   39.6930   -0.4080 N.pl3  45  G45        -0.0859
    964  N3         3.5800   41.4530    0.4420 N.ar   45  G45        -0.1918
    965  C4         3.6490   42.3070    1.4950 C.ar   45  G45         0.1723
    966  C5         2.8260   42.3690    2.5940 C.ar   45  G45         0.1748
    967  C6         1.7600   41.4540    2.6980 C.ar   45  G45         0.3023
    968  O6         0.9270   41.3740    3.6020 O.2    45  G45        -0.2633
    969  N7         3.2170   43.3830    3.4550 N.ar   45  G45        -0.2173
    970  C8         4.2540   43.9100    2.8650 C.ar   45  G45         0.1817
    971  N9         4.5800   43.3030    1.6750 N.ar   45  G45        -0.2693
    972  OP1        5.7760   49.4040    2.9370 O.2    45  G45        -0.5172
    973  OP2        4.0300   47.9890    4.1790 O.co2  45  G45        -0.4373
    974  P          4.1170   47.5700   -1.4800 P.3    46  G46         0.2141
    975  C5'        1.8460   46.6150   -2.2680 C.3    46  G46         0.1812
    976  O5'        2.8660   46.6000   -1.3010 O.3    46  G46        -0.3114
    977  C4'        1.8440   45.2970   -3.0060 C.3    46  G46         0.1773
    978  O4'        2.4810   44.2640   -2.2070 O.3    46  G46        -0.3307
    979  C3'        0.4420   44.7740   -3.2510 C.3    46  G46         0.1860
    980  O3'       -0.0580   45.3120   -4.4530 O.3    46  G46        -0.3112
    981  C2'        0.6660   43.2660   -3.2820 C.3    46  G46         0.2309
    982  O2'        1.2840   42.7830   -4.4570 O.3    46  G46        -0.2156
    983  C1'        1.6200   43.1430   -2.1000 C.3    46  G46         0.2408
    984  N1        -2.0560   41.1130    0.8430 N.ar   46  G46        -0.1709
    985  C2        -1.6680   40.7540   -0.4300 C.ar   46  G46         0.2606
    986  N2        -2.3320   39.7360   -0.9910 N.pl3  46  G46        -0.0859
    987  N3        -0.6920   41.3530   -1.1060 N.ar   46  G46        -0.1918
    988  C4        -0.1160   42.3670   -0.4010 C.ar   46  G46         0.1723
    989  C5        -0.4370   42.8000    0.8690 C.ar   46  G46         0.1748
    990  C6        -1.4760   42.1490    1.5790 C.ar   46  G46         0.3023
    991  O6        -1.8860   42.4040    2.7170 O.2    46  G46        -0.2633
    992  N7         0.3750   43.8580    1.2520 N.ar   46  G46        -0.2173
    993  C8         1.1560   44.0460    0.2260 C.ar   46  G46         0.1817
    994  N9         0.9230   43.1780   -0.8140 N.ar   46  G46        -0.2693
    995  OP1        4.2190   48.0110   -2.8970 O.2    46  G46        -0.5172
    996  OP2        4.0160   48.5560   -0.3830 O.co2  46  G46        -0.4373
    997  P         -1.3920   46.1870   -4.4060 P.3    47  A47         0.2141
    998  C5'       -2.5320   44.0110   -5.2530 C.3    47  A47         0.1812
    999  O5'       -2.5180   45.0580   -4.2860 O.3    47  A47        -0.3114
   1000  C4'       -3.7870   43.1660   -5.1960 C.3    47  A47         0.1773
   1001  O4'       -3.5970   42.1160   -4.2120 O.3    47  A47        -0.3307
   1002  C3'       -5.0410   43.8990   -4.7540 C.3    47  A47         0.1860
   1003  O3'       -5.7180   44.4790   -5.8480 O.3    47  A47        -0.3112
   1004  C2'       -5.8410   42.7780   -4.1060 C.3    47  A47         0.2309
   1005  O2'       -6.5060   41.9780   -5.0650 O.3    47  A47        -0.2156
   1006  C1'       -4.7280   42.0310   -3.3720 C.3    47  A47         0.2408
   1007  N1        -6.2280   42.7840    1.5060 N.ar   47  A47        -0.2040
   1008  C2        -6.7900   42.1170    0.4870 C.ar   47  A47         0.2016
   1009  N3        -6.3400   41.9650   -0.7630 N.ar   47  A47        -0.2048
   1010  C4        -5.1590   42.5870   -0.9360 C.ar   47  A47         0.1692
   1011  C5        -4.4560   43.3090    0.0150 C.ar   47  A47         0.1518
   1012  C6        -5.0400   43.3990    1.2980 C.ar   47  A47         0.1919
   1013  N6        -4.4720   44.0590    2.3100 N.pl3  47  A47        -0.1054
   1014  N7        -3.2790   43.8080   -0.5120 N.ar   47  A47        -0.2193
   1015  C8        -3.2990   43.3840   -1.7530 C.ar   47  A47         0.1816
   1016  N9        -4.4010   42.6370   -2.0790 N.ar   47  A47        -0.2693
   1017  OP1       -1.5330   46.8750   -5.7040 O.2    47  A47        -0.5172
   1018  OP2       -1.3880   46.9860   -3.1610 O.co2  47  A47        -0.4373
   1019  P         -6.5850   45.7910   -5.5670 P.3    48  G48         0.2141
   1020  C5'       -8.8600   44.4510   -5.3540 C.3    48  G48         0.1812
   1021  O5'       -7.8320   45.2290   -4.7370 O.3    48  G48        -0.3114
   1022  C4'       -9.8100   43.8680   -4.3200 C.3    48  G48         0.1773
   1023  O4'       -9.0650   43.1540   -3.2940 O.3    48  G48        -0.3307
   1024  C3'      -10.6210   44.8720   -3.5140 C.3    48  G48         0.1860
   1025  O3'      -11.7510   45.3700   -4.2140 O.3    48  G48        -0.3112
   1026  C2'      -11.0060   44.0160   -2.3140 C.3    48  G48         0.2309
   1027  O2'      -11.9730   43.0340   -2.6250 O.3    48  G48        -0.2156
   1028  C1'       -9.6560   43.3770   -2.0210 C.3    48  G48         0.2408
   1029  N1        -8.7290   45.3400    2.6330 N.ar   48  G48        -0.1709
   1030  C2        -9.7200   44.4700    2.2400 C.ar   48  G48         0.2606
   1031  N2       -10.5740   44.0700    3.1930 N.pl3  48  G48        -0.0859
   1032  N3        -9.8710   44.0260    0.9970 N.ar   48  G48        -0.1918
   1033  C4        -8.9300   44.5240    0.1540 C.ar   48  G48         0.1723
   1034  C5        -7.9000   45.3950    0.4580 C.ar   48  G48         0.1748
   1035  C6        -7.7510   45.8640    1.7890 C.ar   48  G48         0.3023
   1036  O6        -6.9030   46.6520    2.2390 O.2    48  G48        -0.2633
   1037  N7        -7.1420   45.6740   -0.6730 N.ar   48  G48        -0.2173
   1038  C8        -7.7130   44.9770   -1.6170 C.ar   48  G48         0.1817
   1039  N9        -8.8040   44.2460   -1.1980 N.ar   48  G48        -0.2693
   1040  OP1       -7.0570   46.3180   -6.8660 O.2    48  G48        -0.5172
   1041  OP2       -5.8090   46.6640   -4.6590 O.co2  48  G48        -0.4373
   1042  P        -12.4790   46.7000   -3.6910 P.3    49  G49         0.2141
   1043  C5'      -14.1990   47.0270   -1.7650 C.3    49  G49         0.1812
   1044  O5'      -13.5480   46.1320   -2.6490 O.3    49  G49        -0.3114
   1045  C4'      -14.1870   46.5080   -0.3430 C.3    49  G49         0.1773
   1046  O4'      -12.8790   46.0160    0.0290 O.3    49  G49        -0.3307
   1047  C3'      -14.4070   47.5700    0.7120 C.3    49  G49         0.1860
   1048  O3'      -15.7540   47.9850    0.7660 O.3    49  G49        -0.3112
   1049  C2'      -13.9970   46.7960    1.9510 C.3    49  G49         0.2309
   1050  O2'      -14.9110   45.7760    2.3070 O.3    49  G49        -0.2156
   1051  C1'      -12.6970   46.1960    1.4280 C.3    49  G49         0.2408
   1052  N1        -9.7760   48.5610    4.9410 N.ar   49  G49        -0.1709
   1053  C2       -10.9180   47.8100    5.1240 C.ar   49  G49         0.2606
   1054  N2       -11.3490   47.6550    6.3840 N.pl3  49  G49        -0.0859
   1055  N3       -11.5950   47.2390    4.1360 N.ar   49  G49        -0.1918
   1056  C4       -11.0470   47.4840    2.9180 C.ar   49  G49         0.1723
   1057  C5        -9.9140   48.2240    2.6380 C.ar   49  G49         0.1748
   1058  C6        -9.1930   48.8220    3.7000 C.ar   49  G49         0.3023
   1059  O6        -8.1660   49.5090    3.6250 O.2    49  G49        -0.2633
   1060  N7        -9.6620   48.2430    1.2740 N.ar   49  G49        -0.2173
   1061  C8       -10.6290   47.5300    0.7620 C.ar   49  G49         0.1817
   1062  N9       -11.5150   47.0320    1.6930 N.ar   49  G49        -0.2693
   1063  OP1      -13.2210   47.2980   -4.8220 O.2    49  G49        -0.5172
   1064  OP2      -11.4920   47.5190   -2.9540 O.co2  49  G49        -0.4373
   1065  P        -16.1090   49.5400    0.6030 P.3    50  A50         0.2141
   1066  C5'      -17.6680   48.7860    2.5890 C.3    50  A50         0.1812
   1067  O5'      -17.0500   49.8410    1.8630 O.3    50  A50        -0.3114
   1068  C4'      -17.3590   48.8740    4.0720 C.3    50  A50         0.1773
   1069  O4'      -15.9970   48.4510    4.3420 O.3    50  A50        -0.3307
   1070  C3'      -17.3920   50.2650    4.6730 C.3    50  A50         0.1860
   1071  O3'      -18.7160   50.7160    4.8570 O.3    50  A50        -0.3112
   1072  C2'      -16.6420   50.0460    5.9830 C.3    50  A50         0.2309
   1073  O2'      -17.4010   49.4070    6.9920 O.3    50  A50        -0.2156
   1074  C1'      -15.5230   49.1280    5.4990 C.3    50  A50         0.2408
   1075  N1       -11.4270   51.6350    7.3830 N.ar   50  A50        -0.2040
   1076  C2       -12.4740   51.0530    7.9880 C.ar   50  A50         0.2016
   1077  N3       -13.5090   50.4170    7.4340 N.ar   50  A50        -0.2048
   1078  C4       -13.4080   50.4070    6.0910 C.ar   50  A50         0.1692
   1079  C5       -12.3930   50.9670    5.3260 C.ar   50  A50         0.1518
   1080  C6       -11.3500   51.6110    6.0290 C.ar   50  A50         0.1919
   1081  N6       -10.3050   52.1890    5.4270 N.pl3  50  A50        -0.1054
   1082  N7       -12.6260   50.7640    3.9750 N.ar   50  A50        -0.2193
   1083  C8       -13.7560   50.0980    3.9490 C.ar   50  A50         0.1816
   1084  N9       -14.2840   49.8450    5.1880 N.ar   50  A50        -0.2693
   1085  OP1      -16.8910   49.6870   -0.6470 O.2    50  A50        -0.5172
   1086  OP2      -14.8650   50.3270    0.7850 O.co2  50  A50        -0.4373
   1087  P        -19.0380   52.2280    4.4500 P.3    51  A51         0.2141
   1088  C5'      -18.5920   53.0720    6.9020 C.3    51  A51         0.1812
   1089  O5'      -18.1980   53.0520    5.5290 O.3    51  A51        -0.3114
   1090  C4'      -17.5400   53.7880    7.7220 C.3    51  A51         0.1773
   1091  O4'      -16.2550   53.1620    7.4860 O.3    51  A51        -0.3307
   1092  C3'      -17.2960   55.2310    7.3220 C.3    51  A51         0.1860
   1093  O3'      -18.2660   56.0960    7.8830 O.3    51  A51        -0.3112
   1094  C2'      -15.8970   55.4720    7.8760 C.3    51  A51         0.2309
   1095  O2'      -15.8790   55.7830    9.2560 O.3    51  A51        -0.2156
   1096  C1'      -15.2250   54.1260    7.6010 C.3    51  A51         0.2408
   1097  N1       -10.6270   55.1370    5.5030 N.ar   51  A51        -0.2040
   1098  C2       -11.0630   55.1740    6.7750 C.ar   51  A51         0.2016
   1099  N3       -12.2800   54.8890    7.2460 N.ar   51  A51        -0.2048
   1100  C4       -13.1190   54.5310    6.2540 C.ar   51  A51         0.1692
   1101  C5       -12.8190   54.4480    4.9010 C.ar   51  A51         0.1518
   1102  C6       -11.4910   54.7750    4.5250 C.ar   51  A51         0.1919
   1103  N6       -11.0410   54.7350    3.2660 N.pl3  51  A51        -0.1054
   1104  N7       -13.9330   54.0460    4.1800 N.ar   51  A51        -0.2193
   1105  C8       -14.8660   53.9010    5.0930 C.ar   51  A51         0.1816
   1106  N9       -14.4420   54.1700    6.3680 N.ar   51  A51        -0.2693
   1107  OP1      -20.4810   52.4620    4.6590 O.3    51  A51        -0.4373
   1108  OP2      -18.4490   52.5170    3.1250 O.co2  51  A51        -0.5172
   1109  P        -18.9040   57.2280    6.9490 P.3    52  U52         0.2141
   1110  C5'      -17.1260   59.0290    7.5720 C.3    52  U52         0.1812
   1111  O5'      -17.6380   58.1350    6.5980 O.3    52  U52        -0.3114
   1112  C4'      -16.6260   60.3060    6.9250 C.3    52  U52         0.1773
   1113  O4'      -15.3200   60.0600    6.3530 O.3    52  U52        -0.3307
   1114  C3'      -17.5090   60.8920    5.8170 C.3    52  U52         0.1860
   1115  O3'      -17.9510   62.2600    6.0390 O.3    52  U52        -0.3112
   1116  C2'      -16.7060   60.6670    4.5250 C.3    52  U52         0.2309
   1117  O2'      -16.7690   61.7330    3.5990 O.3    52  U52        -0.2156
   1118  C1'      -15.2690   60.4680    5.0020 C.3    52  U52         0.2420
   1119  N1       -14.5180   59.4150    4.2310 N.ar   52  U52        -0.2534
   1120  C2       -13.2460   59.6780    3.7400 C.ar   52  U52         0.3546
   1121  O2       -12.6580   60.7360    3.8830 O.2    52  U52        -0.2443
   1122  N3       -12.6700   58.6350    3.0530 N.ar   52  U52        -0.1530
   1123  C4       -13.2230   57.3890    2.8150 C.ar   52  U52         0.2846
   1124  O4       -12.5900   56.5600    2.1790 O.2    52  U52        -0.2650
   1125  C5       -14.5410   57.1820    3.3530 C.ar   52  U52         0.0814
   1126  C6       -15.1210   58.1810    4.0280 C.ar   52  U52         0.0870
   1127  OP1      -19.8590   58.0080    7.7690 O.3    52  U52        -0.4373
   1128  OP2      -19.3670   56.6000    5.6920 O.co2  52  U52        -0.5172
   1129  P        -17.2070   63.4060    6.8900 P.3    53  C53         0.2141
   1130  C5'      -16.8710   63.8240    9.4480 C.3    53  C53         0.1812
   1131  O5'      -17.4600   63.0290    8.4210 O.3    53  C53        -0.3114
   1132  C4'      -17.2410   63.2970   10.8220 C.3    53  C53         0.1773
   1133  O4'      -18.6790   63.2240   10.9750 O.3    53  C53        -0.3307
   1134  C3'      -16.7310   61.8980   11.1230 C.3    53  C53         0.1860
   1135  O3'      -16.2230   61.8790   12.4370 O.3    53  C53        -0.3112
   1136  C2'      -17.9580   61.0040   11.0030 C.3    53  C53         0.2309
   1137  O2'      -17.8890   59.8580   11.8310 O.3    53  C53        -0.2156
   1138  C1'      -19.0450   61.9560   11.4760 C.3    53  C53         0.2420
   1139  N1       -20.3780   61.5910   10.9370 N.ar   53  C53        -0.2535
   1140  C2       -21.2660   60.8390   11.7230 C.ar   53  C53         0.3532
   1141  O2       -20.9410   60.4900   12.8640 O.2    53  C53        -0.2443
   1142  N3       -22.4750   60.5150   11.2000 N.ar   53  C53        -0.1739
   1143  C4       -22.7950   60.9070    9.9600 C.ar   53  C53         0.1759
   1144  N4       -23.9970   60.5650    9.4870 N.pl3  53  C53        -0.1070
   1145  C5       -21.9050   61.6700    9.1420 C.ar   53  C53         0.0566
   1146  C6       -20.7190   61.9840    9.6680 C.ar   53  C53         0.0850
   1147  OP1      -17.9690   64.6480    6.6340 O.3    53  C53        -0.4373
   1148  OP2      -15.7520   63.3730    6.6180 O.co2  53  C53        -0.5172
   1149  P        -14.6440   61.9260   12.6470 P.3    54  G54         0.2141
   1150  C5'      -14.4840   59.3570   12.0530 C.3    54  G54         0.1812
   1151  O5'      -14.1310   60.7070   11.7410 O.3    54  G54        -0.3114
   1152  C4'      -14.0430   58.3950   10.9630 C.3    54  G54         0.1773
   1153  O4'      -14.4370   58.8700    9.6460 O.3    54  G54        -0.3307
   1154  C3'      -12.5410   58.1960   10.8440 C.3    54  G54         0.1860
   1155  O3'      -12.0840   57.2970   11.8270 O.3    54  G54        -0.3112
   1156  C2'      -12.4630   57.5860    9.4550 C.3    54  G54         0.2309
   1157  O2'      -12.8590   56.2260    9.4380 O.3    54  G54        -0.2156
   1158  C1'      -13.4520   58.4810    8.6990 C.3    54  G54         0.2408
   1159  N1        -9.9370   60.3490    5.4570 N.ar   54  G54        -0.1709
   1160  C2       -10.2770   59.0370    5.6870 C.ar   54  G54         0.2606
   1161  N2        -9.6110   58.1100    4.9840 N.pl3  54  G54        -0.0859
   1162  N3       -11.2120   58.6700    6.5570 N.ar   54  G54        -0.1918
   1163  C4       -11.8020   59.7270    7.1920 C.ar   54  G54         0.1723
   1164  C5       -11.5260   61.0670    7.0230 C.ar   54  G54         0.1748
   1165  C6       -10.5220   61.4460    6.0940 C.ar   54  G54         0.3023
   1166  O6       -10.1420   62.5890    5.8090 O.2    54  G54        -0.2633
   1167  N7       -12.3280   61.8460    7.8480 N.ar   54  G54        -0.2173
   1168  C8       -13.0640   60.9830    8.4880 C.ar   54  G54         0.1817
   1169  N9       -12.8070   59.6760    8.1440 N.ar   54  G54        -0.2693
   1170  OP1      -14.3800   61.6300   14.0760 O.3    54  G54        -0.4373
   1171  OP2      -14.1510   63.1870   12.0340 O.co2  54  G54        -0.5172
   1172  P        -10.7850   57.6430   12.6910 P.3    55  G55         0.2141
   1173  C5'       -9.3270   56.1560   11.1300 C.3    55  G55         0.1812
   1174  O5'       -9.5790   57.4430   11.6660 O.3    55  G55        -0.3114
   1175  C4'       -8.5320   56.2610    9.8490 C.3    55  G55         0.1773
   1176  O4'       -9.1270   57.2240    8.9500 O.3    55  G55        -0.3307
   1177  C3'       -7.1370   56.8180   10.0200 C.3    55  G55         0.1860
   1178  O3'       -6.2880   55.8890   10.6560 O.3    55  G55        -0.3112
   1179  C2'       -6.7840   57.1430    8.5690 C.3    55  G55         0.2309
   1180  O2'       -6.4740   56.0470    7.7280 O.3    55  G55        -0.2156
   1181  C1'       -8.1060   57.7690    8.1280 C.3    55  G55         0.2408
   1182  N1        -5.8350   62.0860    6.6530 N.ar   55  G55        -0.1709
   1183  C2        -5.5320   60.7770    6.3260 C.ar   55  G55         0.2606
   1184  N2        -4.4950   60.5700    5.5020 N.pl3  55  G55        -0.0859
   1185  N3        -6.2090   59.7290    6.7800 N.ar   55  G55        -0.1918
   1186  C4        -7.2300   60.0860    7.6050 C.ar   55  G55         0.1723
   1187  C5        -7.6100   61.3520    7.9940 C.ar   55  G55         0.1748
   1188  C6        -6.8820   62.4660    7.5020 C.ar   55  G55         0.3023
   1189  O6        -7.0830   63.6630    7.7430 O.2    55  G55        -0.2633
   1190  N7        -8.7050   61.2970    8.8480 N.ar   55  G55        -0.2173
   1191  C8        -8.9580   60.0230    8.9580 C.ar   55  G55         0.1817
   1192  N9        -8.1060   59.2290    8.2290 N.ar   55  G55        -0.2693
   1193  OP1      -10.6830   56.6160   13.7470 O.3    55  G55        -0.4373
   1194  OP2      -10.8270   59.0760   13.0610 O.co2  55  G55        -0.5172
   1195  P         -5.4330   56.3850   11.9110 P.3    56  G56         0.2141
   1196  C5'       -3.4360   55.8440   10.3020 C.3    56  G56         0.1812
   1197  O5'       -4.0350   56.7470   11.2240 O.3    56  G56        -0.3114
   1198  C4'       -2.6270   56.5550    9.2300 C.3    56  G56         0.1773
   1199  O4'       -3.4840   57.3560    8.3760 O.3    56  G56        -0.3307
   1200  C3'       -1.5930   57.5600    9.7120 C.3    56  G56         0.1860
   1201  O3'       -0.4240   56.9270   10.2040 O.3    56  G56        -0.3112
   1202  C2'       -1.3370   58.2910    8.4050 C.3    56  G56         0.2309
   1203  O2'       -0.6450   57.4980    7.4630 O.3    56  G56        -0.2156
   1204  C1'       -2.7730   58.5060    7.9570 C.3    56  G56         0.2408
   1205  N1        -2.6990   63.6100    8.4620 N.ar   56  G56        -0.1709
   1206  C2        -1.8810   62.8010    7.6990 C.ar   56  G56         0.2606
   1207  N2        -0.9290   63.4150    6.9820 N.pl3  56  G56        -0.0859
   1208  N3        -1.9880   61.4760    7.6410 N.ar   56  G56        -0.1918
   1209  C4        -2.9960   61.0040    8.4210 C.ar   56  G56         0.1723
   1210  C5        -3.8630   61.7320    9.2130 C.ar   56  G56         0.1748
   1211  C6        -3.7400   63.1450    9.2690 C.ar   56  G56         0.3023
   1212  O6        -4.4240   63.9430    9.9230 O.2    56  G56        -0.2633
   1213  N7        -4.7600   60.8920    9.8570 N.ar   56  G56        -0.2173
   1214  C8        -4.4260   59.6970    9.4560 C.ar   56  G56         0.1817
   1215  N9        -3.3700   59.6830    8.5770 N.ar   56  G56        -0.2693
   1216  OP1       -5.2590   55.2370   12.8200 O.3    56  G56        -0.4373
   1217  OP2       -6.0150   57.6350   12.4480 O.co2  56  G56        -0.5172
   1218  P          0.3450   57.5180   11.4860 P.3    57  G57         0.2141
   1219  C5'        2.0070   58.5000    9.7330 C.3    57  G57         0.1812
   1220  O5'        1.1540   58.7270   10.8380 O.3    57  G57        -0.3114
   1221  C4'        2.3930   59.8370    9.1500 C.3    57  G57         0.1773
   1222  O4'        1.2100   60.5760    8.7660 O.3    57  G57        -0.3307
   1223  C3'        3.0630   60.7540   10.1490 C.3    57  G57         0.1860
   1224  O3'        4.4100   60.4060   10.2860 O.3    57  G57        -0.3112
   1225  C2'        2.8890   62.0910    9.4600 C.3    57  G57         0.2309
   1226  O2'        3.7760   62.2520    8.3700 O.3    57  G57        -0.2156
   1227  C1'        1.4390   61.9520    9.0030 C.3    57  G57         0.2408
   1228  N1        -0.4760   66.0600   11.3180 N.ar   57  G57        -0.1709
   1229  C2         0.4800   65.9650   10.3290 C.ar   57  G57         0.2606
   1230  N2         1.0070   67.1110    9.8810 N.pl3  57  G57        -0.0859
   1231  N3         0.8960   64.8240    9.7990 N.ar   57  G57        -0.1918
   1232  C4         0.2740   63.7530   10.3510 C.ar   57  G57         0.1723
   1233  C5        -0.6860   63.7350   11.3420 C.ar   57  G57         0.1748
   1234  C6        -1.1240   64.9690   11.8960 C.ar   57  G57         0.3023
   1235  O6        -1.9660   65.1620   12.7810 O.2    57  G57        -0.2633
   1236  N7        -1.0650   62.4260   11.6270 N.ar   57  G57        -0.2173
   1237  C8        -0.3420   61.6980   10.8200 C.ar   57  G57         0.1817
   1238  N9         0.4930   62.4360   10.0120 N.ar   57  G57        -0.2693
   1239  OP1        1.3010   56.4950   11.9770 O.2    57  G57        -0.5172
   1240  OP2       -0.6400   58.0830   12.4360 O.co2  57  G57        -0.4373
   1241  P          5.1070   60.6950   11.6850 P.3    58  A58         0.2141
   1242  C5'        6.4990   62.6060   10.4920 C.3    58  A58         0.1812
   1243  O5'        5.5480   62.2240   11.4870 O.3    58  A58        -0.3114
   1244  C4'        6.7690   64.1050   10.5160 C.3    58  A58         0.1773
   1245  O4'        5.5890   64.8300   10.0740 O.3    58  A58        -0.3307
   1246  C3'        7.1050   64.7110   11.8770 C.3    58  A58         0.1860
   1247  O3'        8.4960   64.5830   12.1860 O.3    58  A58        -0.3112
   1248  C2'        6.6640   66.1620   11.6860 C.3    58  A58         0.2309
   1249  O2'        7.6010   66.9450   10.9700 O.3    58  A58        -0.2156
   1250  C1'        5.3770   65.9780   10.8810 C.3    58  A58         0.2408
   1251  N1         1.7020   68.2270   13.7870 N.ar   58  A58        -0.2040
   1252  C2         2.7570   68.7380   13.1310 C.ar   58  A58         0.2016
   1253  N3         3.6730   68.1010   12.3920 N.ar   58  A58        -0.2048
   1254  C4         3.4360   66.7730   12.3570 C.ar   58  A58         0.1692
   1255  C5         2.3930   66.1060   12.9880 C.ar   58  A58         0.1518
   1256  C6         1.4890   66.8910   13.7360 C.ar   58  A58         0.1919
   1257  N6         0.4440   66.3740   14.3880 N.pl3  58  A58        -0.1054
   1258  N7         2.4540   64.7480   12.7400 N.ar   58  A58        -0.2193
   1259  C8         3.5160   64.6210   11.9780 C.ar   58  A58         0.1816
   1260  N9         4.1660   65.7980   11.7000 N.ar   58  A58        -0.2693
   1261  OP1        6.2950   59.8220   11.7820 O.2    58  A58        -0.5172
   1262  OP2        4.0820   60.6370   12.7530 O.co2  58  A58        -0.4373
   1263  P          8.9880   64.2190   13.6740 P.3    59  C59         0.2141
   1264  C5'        9.6880   66.7520   13.9170 C.3    59  C59         0.1812
   1265  O5'        8.9550   65.6390   14.4090 O.3    59  C59        -0.3114
   1266  C4'        9.1520   68.0350   14.5220 C.3    59  C59         0.1773
   1267  O4'        7.8350   68.3030   13.9720 O.3    59  C59        -0.3307
   1268  C3'        8.8980   67.9860   16.0260 C.3    59  C59         0.1860
   1269  O3'       10.0650   68.2190   16.7960 O.3    59  C59        -0.3112
   1270  C2'        7.8710   69.0980   16.1860 C.3    59  C59         0.2309
   1271  O2'        8.4280   70.3920   16.0550 O.3    59  C59        -0.2156
   1272  C1'        6.9720   68.7720   15.0020 C.3    59  C59         0.2420
   1273  N1         5.8750   67.7670   15.3340 N.ar   59  C59        -0.2535
   1274  C2         4.6760   68.2110   15.9330 C.ar   59  C59         0.3532
   1275  O2         4.5110   69.4110   16.1890 O.2    59  C59        -0.2443
   1276  N3         3.7040   67.3050   16.2210 N.ar   59  C59        -0.1739
   1277  C4         3.8870   66.0120   15.9430 C.ar   59  C59         0.1759
   1278  N4         2.8980   65.1670   16.2440 N.pl3  59  C59        -0.1070
   1279  C5         5.0880   65.5340   15.3380 C.ar   59  C59         0.0566
   1280  C6         6.0380   66.4340   15.0600 C.ar   59  C59         0.0850
   1281  OP1       10.3840   63.7360   13.5830 O.2    59  C59        -0.5172
   1282  OP2        7.9860   63.3540   14.3440 O.co2  59  C59        -0.4373
   1283  P         10.1930   67.5590   18.2510 P.3    60  G60         0.2141
   1284  C5'        8.8330   68.3780   20.3550 C.3    60  G60         0.1812
   1285  O5'        8.8410   67.9970   18.9880 O.3    60  G60        -0.3114
   1286  C4'        8.0500   69.6630   20.5510 C.3    60  G60         0.1773
   1287  O4'        7.1740   69.8960   19.4160 O.3    60  G60        -0.3307
   1288  C3'        7.1110   69.6380   21.7480 C.3    60  G60         0.1860
   1289  O3'        7.7730   70.0730   22.9180 O.3    60  G60        -0.3112
   1290  C2'        6.0260   70.6010   21.2980 C.3    60  G60         0.2309
   1291  O2'        6.4560   71.9500   21.2970 O.3    60  G60        -0.2156
   1292  C1'        5.8450   70.0900   19.8720 C.3    60  G60         0.2408
   1293  N1         1.5640   67.4130   20.9780 N.ar   60  G60        -0.1709
   1294  C2         1.8730   68.7070   21.3310 C.ar   60  G60         0.2606
   1295  N2         0.9520   69.3680   22.0540 N.pl3  60  G60        -0.0859
   1296  N3         3.0150   69.3030   20.9870 N.ar   60  G60        -0.1918
   1297  C4         3.8460   68.5050   20.2550 C.ar   60  G60         0.1723
   1298  C5         3.6170   67.2010   19.8610 C.ar   60  G60         0.1748
   1299  C6         2.3980   66.5720   20.2310 C.ar   60  G60         0.3023
   1300  O6         2.0320   65.4170   19.9660 O.2    60  G60        -0.2633
   1301  N7         4.6870   66.7020   19.1300 N.ar   60  G60        -0.2173
   1302  C8         5.5280   67.6960   19.0920 C.ar   60  G60         0.1817
   1303  N9         5.0990   68.8260   19.7500 N.ar   60  G60        -0.2693
   1304  OP1       11.3560   68.1950   18.9130 O.3    60  G60        -0.4373
   1305  OP2       10.1400   66.0860   18.1010 O.co2  60  G60        -0.5172
   1306  P          8.1090   69.0120   24.0690 P.3    61  G61         0.2141
   1307  C5'        6.6510   70.5800   25.5960 C.3    61  G61         0.1812
   1308  O5'        6.9580   69.2660   25.1480 O.3    61  G61        -0.3114
   1309  C4'        5.1870   70.6700   25.9750 C.3    61  G61         0.1773
   1310  O4'        4.3390   70.3150   24.8520 O.3    61  G61        -0.3307
   1311  C3'        4.7330   69.6880   27.0410 C.3    61  G61         0.1860
   1312  O3'        5.1830   70.0820   28.3250 O.3    61  G61        -0.3112
   1313  C2'        3.2220   69.7880   26.8760 C.3    61  G61         0.2309
   1314  O2'        2.6710   70.9690   27.4330 O.3    61  G61        -0.2156
   1315  C1'        3.1170   69.7860   25.3480 C.3    61  G61         0.2408
   1316  N1        -0.2170   65.9540   24.7550 N.ar   61  G61        -0.1709
   1317  C2        -0.3930   67.1820   25.3610 C.ar   61  G61         0.2606
   1318  N2        -1.6030   67.4320   25.8810 N.pl3  61  G61        -0.0859
   1319  N3         0.5590   68.1070   25.4520 N.ar   61  G61        -0.1918
   1320  C4         1.7270   67.7080   24.8790 C.ar   61  G61         0.1723
   1321  C5         2.0000   66.5080   24.2510 C.ar   61  G61         0.1748
   1322  C6         0.9740   65.5290   24.1600 C.ar   61  G61         0.3023
   1323  O6         1.0350   64.4100   23.6370 O.2    61  G61        -0.2633
   1324  N7         3.3100   66.4790   23.7940 N.ar   61  G61        -0.2173
   1325  C8         3.7950   67.6370   24.1500 C.ar   61  G61         0.1817
   1326  N9         2.8930   68.4410   24.8100 N.ar   61  G61        -0.2693
   1327  OP1        9.4100   69.3960   24.6610 O.3    61  G61        -0.4373
   1328  OP2        7.9160   67.6450   23.5290 O.co2  61  G61        -0.5172
   1329  P          5.6130   68.9630   29.3880 P.3    62  C62         0.2141
   1330  C5'        3.3860   68.8280   30.8130 C.3    62  C62         0.1812
   1331  O5'        4.2130   68.2910   29.7780 O.3    62  C62        -0.3114
   1332  C4'        2.1680   67.9490   31.0250 C.3    62  C62         0.1773
   1333  O4'        1.5130   67.7190   29.7470 O.3    62  C62        -0.3307
   1334  C3'        2.4510   66.5410   31.5390 C.3    62  C62         0.1860
   1335  O3'        2.6810   66.4970   32.9510 O.3    62  C62        -0.3112
   1336  C2'        1.1580   65.8410   31.1330 C.3    62  C62         0.2309
   1337  O2'        0.0740   66.1460   31.9910 O.3    62  C62        -0.2156
   1338  C1'        0.9260   66.4280   29.7390 C.3    62  C62         0.2420
   1339  N1         1.5020   65.5620   28.6410 N.ar   62  C62        -0.2535
   1340  C2         0.7510   64.4830   28.1160 C.ar   62  C62         0.3532
   1341  O2        -0.3900   64.2460   28.5400 O.2    62  C62        -0.2443
   1342  N3         1.3000   63.7110   27.1350 N.ar   62  C62        -0.1739
   1343  C4         2.5300   63.9750   26.6810 C.ar   62  C62         0.1759
   1344  N4         3.0180   63.1940   25.7160 N.pl3  62  C62        -0.1070
   1345  C5         3.3120   65.0560   27.1940 C.ar   62  C62         0.0566
   1346  C6         2.7650   65.8100   28.1590 C.ar   62  C62         0.0850
   1347  OP1        6.1630   69.6720   30.5610 O.3    62  C62        -0.4373
   1348  OP2        6.4350   67.9280   28.7160 O.co2  62  C62        -0.5172
   1349  P          3.7520   65.4740   33.5770 P.3    63  U63         0.2141
   1350  C5'        2.2150   63.3520   33.7780 C.3    63  U63         0.1812
   1351  O5'        3.2640   64.0260   33.0870 O.3    63  U63        -0.3114
   1352  C4'        1.5960   62.2120   32.9820 C.3    63  U63         0.1773
   1353  O4'        1.5050   62.5110   31.5620 O.3    63  U63        -0.3307
   1354  C3'        2.3670   60.9020   32.9990 C.3    63  U63         0.1860
   1355  O3'        2.2180   60.2300   34.2380 O.3    63  U63        -0.3112
   1356  C2'        1.6870   60.1640   31.8530 C.3    63  U63         0.2309
   1357  O2'        0.4420   59.5930   32.2140 O.3    63  U63        -0.2156
   1358  C1'        1.5080   61.2900   30.8300 C.3    63  U63         0.2420
   1359  N1         2.5850   61.2840   29.7630 N.ar   63  U63        -0.2534
   1360  C2         2.5290   60.3470   28.7360 C.ar   63  U63         0.3546
   1361  O2         1.6490   59.5100   28.6200 O.2    63  U63        -0.2443
   1362  N3         3.5570   60.4150   27.8220 N.ar   63  U63        -0.1530
   1363  C4         4.6150   61.3080   27.8240 C.ar   63  U63         0.2846
   1364  O4         5.4600   61.2470   26.9360 O.2    63  U63        -0.2650
   1365  C5         4.6140   62.2480   28.9200 C.ar   63  U63         0.0814
   1366  C6         3.6240   62.1990   29.8230 C.ar   63  U63         0.0870
   1367  OP1        3.6300   65.5520   35.0510 O.3    63  U63        -0.4373
   1368  OP2        5.0660   65.7390   32.9480 O.co2  63  U63        -0.5172
   1369  P          3.4630   59.4550   34.8790 P.3    64  G64         0.2141
   1370  C5'        2.5940   57.1990   33.8750 C.3    64  G64         0.1812
   1371  O5'        3.6140   58.1780   33.9370 O.3    64  G64        -0.3114
   1372  C4'        2.8130   56.3410   32.6470 C.3    64  G64         0.1773
   1373  O4'        2.7230   57.1640   31.4570 O.3    64  G64        -0.3307
   1374  C3'        4.2050   55.7420   32.5400 C.3    64  G64         0.1860
   1375  O3'        4.3680   54.5850   33.3250 O.3    64  G64        -0.3112
   1376  C2'        4.3160   55.4790   31.0420 C.3    64  G64         0.2309
   1377  O2'        3.5930   54.3410   30.6130 O.3    64  G64        -0.2156
   1378  C1'        3.7110   56.7760   30.5150 C.3    64  G64         0.2408
   1379  N1         7.2650   58.8880   27.5020 N.ar   64  G64        -0.1709
   1380  C2         6.4280   57.8220   27.2460 C.ar   64  G64         0.2606
   1381  N2         6.5490   57.2450   26.0390 N.pl3  64  G64        -0.0859
   1382  N3         5.5340   57.3580   28.1190 N.ar   64  G64        -0.1918
   1383  C4         5.5380   58.0530   29.2880 C.ar   64  G64         0.1723
   1384  C5         6.3350   59.1240   29.6340 C.ar   64  G64         0.1748
   1385  C6         7.2860   59.6070   28.6980 C.ar   64  G64         0.3023
   1386  O6         8.0770   60.5520   28.8290 O.2    64  G64        -0.2633
   1387  N7         6.0400   59.5640   30.9180 N.ar   64  G64        -0.2173
   1388  C8         5.0910   58.7650   31.3150 C.ar   64  G64         0.1817
   1389  N9         4.7270   57.8240   30.3790 N.ar   64  G64        -0.2693
   1390  OP1        3.0450   59.0240   36.2300 O.3    64  G64        -0.4373
   1391  OP2        4.6950   60.2630   34.7090 O.co2  64  G64        -0.5172
   1392  P          5.8650   54.1870   33.7170 P.3    65  A65         0.2141
   1393  C5'        6.4740   51.9480   32.4810 C.3    65  A65         0.1812
   1394  O5'        6.3260   53.3580   32.4280 O.3    65  A65        -0.3114
   1395  C4'        5.1410   51.2560   32.2870 C.3    65  A65         0.1773
   1396  O4'        4.4320   51.8340   31.1630 O.3    65  A65        -0.3307
   1397  C3'        5.2960   49.7880   31.9370 C.3    65  A65         0.1860
   1398  O3'        5.3430   49.0210   33.1170 O.3    65  A65        -0.3112
   1399  C2'        4.0640   49.5050   31.0910 C.3    65  A65         0.2309
   1400  O2'        2.8890   49.3080   31.8450 O.3    65  A65        -0.2156
   1401  C1'        3.9900   50.8030   30.2980 C.3    65  A65         0.2408
   1402  N1         4.7340   48.7420   25.6320 N.ar   65  A65        -0.2040
   1403  C2         3.7840   48.5430   26.5600 C.ar   65  A65         0.2016
   1404  N3         3.6530   49.1150   27.7580 N.ar   65  A65        -0.2048
   1405  C4         4.6450   49.9940   27.9860 C.ar   65  A65         0.1692
   1406  C5         5.6870   50.3070   27.1320 C.ar   65  A65         0.1518
   1407  C6         5.7130   49.6360   25.8900 C.ar   65  A65         0.1919
   1408  N6         6.6580   49.8330   24.9690 N.pl3  65  A65        -0.1054
   1409  N7         6.5190   51.2560   27.7000 N.ar   65  A65        -0.2193
   1410  C8         5.9690   51.4960   28.8630 C.ar   65  A65         0.1816
   1411  N9         4.8330   50.7730   29.1020 N.ar   65  A65        -0.2693
   1412  OP1        5.7870   53.2870   34.8930 O.3    65  A65        -0.4373
   1413  OP2        6.7000   55.4120   33.7710 O.co2  65  A65        -0.5172
   1414  P          6.4580   47.8820   33.2320 P.3    66  A66         0.2141
   1415  C5'        4.7340   46.0900   32.3720 C.3    66  A66         0.1812
   1416  O5'        5.9460   46.8210   32.1420 O.3    66  A66        -0.3114
   1417  C4'        4.3090   45.3170   31.1430 C.3    66  A66         0.1773
   1418  O4'        4.0720   46.2320   30.0440 O.3    66  A66        -0.3307
   1419  C3'        5.3570   44.3670   30.5920 C.3    66  A66         0.1860
   1420  O3'        5.3560   43.1280   31.2810 O.3    66  A66        -0.3112
   1421  C2'        4.9000   44.2360   29.1440 C.3    66  A66         0.2309
   1422  O2'        3.7470   43.4310   28.9910 O.3    66  A66        -0.2156
   1423  C1'        4.5710   45.6870   28.8330 C.3    66  A66         0.2408
   1424  N1         7.8930   46.6460   24.9650 N.ar   66  A66        -0.2040
   1425  C2         6.8440   45.8130   25.0480 C.ar   66  A66         0.2016
   1426  N3         6.0200   45.6080   26.0810 N.ar   66  A66        -0.2048
   1427  C4         6.3550   46.3780   27.1370 C.ar   66  A66         0.1692
   1428  C5         7.4050   47.2800   27.1960 C.ar   66  A66         0.1518
   1429  C6         8.2060   47.4080   26.0410 C.ar   66  A66         0.1919
   1430  N6         9.2430   48.2500   25.9700 N.pl3  66  A66        -0.1054
   1431  N7         7.4510   47.9040   28.4290 N.ar   66  A66        -0.2193
   1432  C8         6.4490   47.3750   29.0850 C.ar   66  A66         0.1816
   1433  N9         5.7370   46.4490   28.3730 N.ar   66  A66        -0.2693
   1434  OP1        6.3170   47.2880   34.5810 O.3    66  A66        -0.4373
   1435  OP2        7.7730   48.4220   32.8130 O.co2  66  A66        -0.5172
   1436  P          6.7340   42.3320   31.4650 P.3    67  A67         0.2141
   1437  C5'        5.5730   40.6580   29.8360 C.3    67  A67         0.1812
   1438  O5'        6.7540   41.3010   30.2530 O.3    67  A67        -0.3114
   1439  C4'        5.7050   40.3280   28.3650 C.3    67  A67         0.1773
   1440  O4'        5.7290   41.5420   27.5800 O.3    67  A67        -0.3307
   1441  C3'        7.0230   39.6820   27.9880 C.3    67  A67         0.1860
   1442  O3'        7.0300   38.3180   28.3160 O.3    67  A67        -0.3112
   1443  C2'        7.0360   39.9080   26.4890 C.3    67  A67         0.2309
   1444  O2'        6.1780   39.0030   25.8250 O.3    67  A67        -0.2156
   1445  C1'        6.5160   41.3370   26.4220 C.3    67  A67         0.2408
   1446  N1        10.0950   43.8400   23.6570 N.ar   67  A67        -0.2040
   1447  C2         9.2020   42.9010   23.3090 C.ar   67  A67         0.2016
   1448  N3         8.2970   42.2880   24.0770 N.ar   67  A67        -0.2048
   1449  C4         8.3560   42.7260   25.3490 C.ar   67  A67         0.1692
   1450  C5         9.2220   43.6820   25.8540 C.ar   67  A67         0.1518
   1451  C6        10.1280   44.2610   24.9460 C.ar   67  A67         0.1919
   1452  N6        11.0110   45.1950   25.3130 N.pl3  67  A67        -0.1054
   1453  N7         9.0040   43.8880   27.2050 N.ar   67  A67        -0.2193
   1454  C8         8.0240   43.0620   27.4910 C.ar   67  A67         0.1816
   1455  N9         7.5840   42.3300   26.4200 N.ar   67  A67        -0.2693
   1456  OP1        6.6440   41.5590   32.7240 O.3    67  A67        -0.4373
   1457  OP2        7.8520   43.2800   31.2420 O.co2  67  A67        -0.5172
   1458  P          8.4310   37.6740   28.7170 P.3    68  G68         0.2141
   1459  C5'        8.7390   36.7760   26.2860 C.3    68  G68         0.1812
   1460  O5'        9.1830   37.6590   27.3050 O.3    68  G68        -0.3114
   1461  C4'        9.4360   37.1010   24.9860 C.3    68  G68         0.1773
   1462  O4'        9.2750   38.5040   24.6740 O.3    68  G68        -0.3307
   1463  C3'       10.9430   36.9500   25.0160 C.3    68  G68         0.1860
   1464  O3'       11.3160   35.5960   24.9110 O.3    68  G68        -0.3112
   1465  C2'       11.3050   37.7310   23.7620 C.3    68  G68         0.2309
   1466  O2'       11.0210   37.0070   22.5840 O.3    68  G68        -0.2156
   1467  C1'       10.3890   38.9410   23.9220 C.3    68  G68         0.2408
   1468  N1        13.5600   42.9360   23.7650 N.ar   68  G68        -0.1709
   1469  C2        13.0960   42.1440   22.7300 C.ar   68  G68         0.2606
   1470  N2        13.5380   42.4580   21.5040 N.pl3  68  G68        -0.0859
   1471  N3        12.2640   41.1160   22.8820 N.ar   68  G68        -0.1918
   1472  C4        11.9240   40.9450   24.1830 C.ar   68  G68         0.1723
   1473  C5        12.3290   41.6810   25.2860 C.ar   68  G68         0.1748
   1474  C6        13.2210   42.7710   25.1130 C.ar   68  G68         0.3023
   1475  O6        13.6870   43.5310   25.9800 O.2    68  G68        -0.2633
   1476  N7        11.7480   41.1910   26.4440 N.ar   68  G68        -0.2173
   1477  C8        11.0200   40.1880   26.0310 C.ar   68  G68         0.1817
   1478  N9        11.0710   39.9850   24.6720 N.ar   68  G68        -0.2693
   1479  OP1        8.2400   36.2570   29.1090 O.2    68  G68        -0.5172
   1480  OP2        9.1030   38.6430   29.6180 O.co2  68  G68        -0.4373
   1481  P         12.4350   35.0150   25.8880 P.3    69  G69         0.2141
   1482  C5'       14.3380   35.6830   24.1710 C.3    69  G69         0.1812
   1483  O5'       13.7390   35.8510   25.4690 O.3    69  G69        -0.3114
   1484  C4'       15.5140   36.6240   23.9480 C.3    69  G69         0.1773
   1485  O4'       15.0710   38.0050   23.8110 O.3    69  G69        -0.3307
   1486  C3'       16.5000   36.6980   25.1010 C.3    69  G69         0.1860
   1487  O3'       17.4420   35.6360   25.1330 O.3    69  G69        -0.3112
   1488  C2'       17.1660   38.0290   24.8210 C.3    69  G69         0.2309
   1489  O2'       18.0010   37.9320   23.6930 O.3    69  G69        -0.2156
   1490  C1'       15.9240   38.8660   24.5510 C.3    69  G69         0.2408
   1491  N1        16.0640   42.0740   28.5860 N.ar   69  G69        -0.1709
   1492  C2        16.9490   41.9450   27.5370 C.ar   69  G69         0.2606
   1493  N2        18.0010   42.7690   27.5560 N.pl3  69  G69        -0.0859
   1494  N3        16.8210   41.0790   26.5390 N.ar   69  G69        -0.1918
   1495  C4        15.7020   40.3170   26.6670 C.ar   69  G69         0.1723
   1496  C5        14.7620   40.3710   27.6800 C.ar   69  G69         0.1748
   1497  C6        14.9150   41.3020   28.7450 C.ar   69  G69         0.3023
   1498  O6        14.1770   41.4870   29.7280 O.2    69  G69        -0.2633
   1499  N7        13.7710   39.4330   27.4630 N.ar   69  G69        -0.2173
   1500  C8        14.1110   38.8470   26.3510 C.ar   69  G69         0.1817
   1501  N9        15.2730   39.3260   25.7950 N.ar   69  G69        -0.2693
   1502  OP1       12.6200   33.5910   25.5160 O.2    69  G69        -0.5172
   1503  OP2       12.0730   35.3760   27.2810 O.co2  69  G69        -0.4373
   1504  P         18.0580   35.3250   26.5740 P.3    70  C70         0.2141
   1505  C5'       20.2110   36.8080   26.7180 C.3    70  C70         0.1812
   1506  O5'       18.8110   36.6910   26.9540 O.3    70  C70        -0.3114
   1507  C4'       20.8020   37.9690   27.4770 C.3    70  C70         0.1773
   1508  O4'       19.8030   39.0100   27.6010 O.3    70  C70        -0.3307
   1509  C3'       21.2080   37.6820   28.9120 C.3    70  C70         0.1860
   1510  O3'       22.4820   37.0810   28.9390 O.3    70  C70        -0.3112
   1511  C2'       21.2520   39.1030   29.4590 C.3    70  C70         0.2309
   1512  O2'       22.3630   39.8570   29.0100 O.3    70  C70        -0.2156
   1513  C1'       19.9880   39.6810   28.8370 C.3    70  C70         0.2420
   1514  N1        18.7590   39.5180   29.6760 N.ar   70  C70        -0.2535
   1515  C2        18.6570   40.1820   30.9060 C.ar   70  C70         0.3532
   1516  O2        19.5880   40.8960   31.3010 O.2    70  C70        -0.2443
   1517  N3        17.5290   40.0300   31.6420 N.ar   70  C70        -0.1739
   1518  C4        16.5370   39.2590   31.1970 C.ar   70  C70         0.1759
   1519  N4        15.4520   39.1380   31.9630 N.pl3  70  C70        -0.1070
   1520  C5        16.6170   38.5700   29.9510 C.ar   70  C70         0.0566
   1521  C6        17.7320   38.7320   29.2330 C.ar   70  C70         0.0850
   1522  OP1       19.0500   34.2370   26.4620 O.2    70  C70        -0.5172
   1523  OP2       16.9020   35.1950   27.4930 O.co2  70  C70        -0.4373
   1524  P         22.7970   35.8170   29.8770 P.3    71  G71         0.2141
   1525  C5'       23.6520   37.3830   31.8310 C.3    71  G71         0.1812
   1526  O5'       22.7190   36.4380   31.3510 O.3    71  G71        -0.3114
   1527  C4'       23.0620   38.0340   33.0640 C.3    71  G71         0.1773
   1528  O4'       21.7460   38.5180   32.7210 O.3    71  G71        -0.3307
   1529  C3'       22.8080   37.1060   34.2530 C.3    71  G71         0.1860
   1530  O3'       23.9180   37.0290   35.1400 O.3    71  G71        -0.3112
   1531  C2'       21.6760   37.8090   34.9730 C.3    71  G71         0.2309
   1532  O2'       22.1760   38.9140   35.6910 O.3    71  G71        -0.2156
   1533  C1'       20.8610   38.3510   33.8170 C.3    71  G71         0.2408
   1534  N1        15.9960   36.9540   34.7190 N.ar   71  G71        -0.1709
   1535  C2        16.8160   37.7530   35.4740 C.ar   71  G71         0.2606
   1536  N2        16.2710   38.2470   36.5890 N.pl3  71  G71        -0.0859
   1537  N3        18.0720   38.0520   35.1540 N.ar   71  G71        -0.1918
   1538  C4        18.4620   37.4690   33.9900 C.ar   71  G71         0.1723
   1539  C5        17.7110   36.6540   33.1720 C.ar   71  G71         0.1748
   1540  C6        16.3690   36.3510   33.5220 C.ar   71  G71         0.3023
   1541  O6        15.5530   35.6310   32.9120 O.2    71  G71        -0.2633
   1542  N7        18.4560   36.2470   32.0790 N.ar   71  G71        -0.2173
   1543  C8        19.6160   36.8170   32.2410 C.ar   71  G71         0.1817
   1544  N9        19.7010   37.5690   33.3830 N.ar   71  G71        -0.2693
   1545  OP1       24.1870   35.4180   29.5670 O.2    71  G71        -0.5172
   1546  OP2       21.7070   34.8220   29.7650 O.co2  71  G71        -0.4373
   1547  P         25.2320   36.2020   34.7670 P.3    72  A72         0.2141
   1548  C5'       27.0860   36.7030   36.5420 C.3    72  A72         0.1812
   1549  O5'       25.9090   35.9940   36.1960 O.3    72  A72        -0.3114
   1550  C4'       27.2480   36.6550   38.0380 C.3    72  A72         0.1773
   1551  O4'       26.1190   37.3590   38.5950 O.3    72  A72        -0.3307
   1552  C3'       27.1920   35.2480   38.6080 C.3    72  A72         0.1860
   1553  O3'       28.5080   34.7580   38.8480 O.3    72  A72        -0.3112
   1554  C2'       26.4120   35.3900   39.9060 C.3    72  A72         0.2309
   1555  O2'       27.2710   35.5770   41.0120 O.3    72  A72        -0.2156
   1556  C1'       25.5670   36.6390   39.6820 C.3    72  A72         0.2408
   1557  N1        20.6300   37.5360   40.9480 N.ar   72  A72        -0.2040
   1558  C2        21.7740   37.9510   41.5030 C.ar   72  A72         0.2016
   1559  N3        23.0260   37.6770   41.1290 N.ar   72  A72        -0.2048
   1560  C4        23.0590   36.8820   40.0430 C.ar   72  A72         0.1692
   1561  C5        21.9650   36.3790   39.3640 C.ar   72  A72         0.1518
   1562  C6        20.6940   36.7320   39.8560 C.ar   72  A72         0.1919
   1563  N6        19.5680   36.2970   39.2790 N.pl3  72  A72        -0.1054
   1564  N7        22.3570   35.5960   38.2970 N.ar   72  A72        -0.2193
   1565  C8        23.6670   35.6390   38.3420 C.ar   72  A72         0.1816
   1566  N9        24.1610   36.3900   39.3720 N.ar   72  A72        -0.2693
   1567  OP1       26.0960   37.0920   33.9480 O.2    72  A72        -0.5172
   1568  OP2       24.8050   34.8770   34.2620 O.co2  72  A72        -0.4373
   1569  P         29.3020   33.9360   37.7200 P.3    73  G73         0.2141
   1570  C5'       28.9740   31.4100   38.4910 C.3    73  G73         0.1812
   1571  O5'       29.7620   32.6050   38.4920 O.3    73  G73        -0.3114
   1572  C4'       28.0470   31.3350   39.6900 C.3    73  G73         0.1773
   1573  O4'       26.9900   32.3090   39.5190 O.3    73  G73        -0.3307
   1574  C3'       27.3000   30.0210   39.8360 C.3    73  G73         0.1860
   1575  O3'       28.0200   29.1230   40.6510 O.3    73  G73        -0.3112
   1576  C2'       25.9910   30.4460   40.4960 C.3    73  G73         0.2309
   1577  O2'       26.1350   30.7210   41.8790 O.3    73  G73        -0.2156
   1578  C1'       25.7090   31.7430   39.7520 C.3    73  G73         0.2408
   1579  N1        21.1330   30.9340   37.5370 N.ar   73  G73        -0.1709
   1580  C2        21.4640   30.9610   38.8680 C.ar   73  G73         0.2606
   1581  N2        20.4700   30.7510   39.7420 N.pl3  73  G73        -0.0859
   1582  N3        22.6920   31.1790   39.3210 N.ar   73  G73        -0.1918
   1583  C4        23.5970   31.3790   38.3370 C.ar   73  G73         0.1723
   1584  C5        23.3600   31.3740   36.9860 C.ar   73  G73         0.1748
   1585  C6        22.0450   31.1380   36.5110 C.ar   73  G73         0.3023
   1586  O6        21.6550   31.1010   35.3390 O.2    73  G73        -0.2633
   1587  N7        24.5320   31.6180   36.2860 N.ar   73  G73        -0.2173
   1588  C8        25.4370   31.7620   37.2170 C.ar   73  G73         0.1817
   1589  N9        24.9490   31.6270   38.4950 N.ar   73  G73        -0.2693
   1590  OP1       30.4940   34.7540   37.4090 O.3    73  G73        -0.4373
   1591  OP2       28.3690   33.5330   36.6280 O.co2  73  G73        -0.5172
   1592  P         27.9880   27.5590   40.3290 P.3    74  G74         0.2141
   1593  C5'       26.0270   26.7460   41.8760 C.3    74  G74         0.1812
   1594  O5'       26.4590   27.1380   40.5760 O.3    74  G74        -0.3114
   1595  C4'       24.5150   26.6350   42.0050 C.3    74  G74         0.1773
   1596  O4'       23.8480   27.7830   41.4170 O.3    74  G74        -0.3307
   1597  C3'       23.8630   25.4410   41.3210 C.3    74  G74         0.1860
   1598  O3'       24.0070   24.2550   42.0840 O.3    74  G74        -0.3112
   1599  C2'       22.4140   25.9140   41.2490 C.3    74  G74         0.2309
   1600  O2'       21.7350   25.8440   42.4870 O.3    74  G74        -0.2156
   1601  C1'       22.6230   27.3660   40.8370 C.3    74  G74         0.2408
   1602  N1        20.0930   27.3940   36.3880 N.ar   74  G74        -0.1709
   1603  C2        19.6130   27.1910   37.6650 C.ar   74  G74         0.2606
   1604  N2        18.2970   26.9610   37.7730 N.pl3  74  G74        -0.0859
   1605  N3        20.3670   27.2060   38.7630 N.ar   74  G74        -0.1918
   1606  C4        21.6700   27.4490   38.4800 C.ar   74  G74         0.1723
   1607  C5        22.2440   27.6680   37.2440 C.ar   74  G74         0.1748
   1608  C6        21.4290   27.6480   36.0840 C.ar   74  G74         0.3023
   1609  O6        21.7730   27.8250   34.9080 O.2    74  G74        -0.2633
   1610  N7        23.6110   27.8770   37.3660 N.ar   74  G74        -0.2173
   1611  C8        23.8330   27.7810   38.6460 C.ar   74  G74         0.1817
   1612  N9        22.7030   27.5250   39.3870 N.ar   74  G74        -0.2693
   1613  OP1       28.8700   26.9100   41.3200 O.3    74  G74        -0.4373
   1614  OP2       28.2730   27.3890   38.8860 O.co2  74  G74        -0.5172
   1615  P         24.0510   22.8310   41.3470 P.3    75  G75         0.2141
   1616  C5'       21.6140   22.1440   41.9100 C.3    75  G75         0.1812
   1617  O5'       22.5320   22.5810   40.9230 O.3    75  G75        -0.3114
   1618  C4'       20.1870   22.2360   41.4150 C.3    75  G75         0.1773
   1619  O4'       19.9210   23.5380   40.8220 O.3    75  G75        -0.3307
   1620  C3'       19.8460   21.2420   40.3210 C.3    75  G75         0.1860
   1621  O3'       19.5750   19.9930   40.8950 O.3    75  G75        -0.3112
   1622  C2'       18.6200   21.9170   39.7030 C.3    75  G75         0.2309
   1623  O2'       17.4200   21.7730   40.4430 O.3    75  G75        -0.2156
   1624  C1'       19.0910   23.3790   39.6840 C.3    75  G75         0.2408
   1625  N1        19.0990   23.6230   34.6040 N.ar   75  G75        -0.1709
   1626  C2        18.0600   23.3090   35.4630 C.ar   75  G75         0.2606
   1627  N2        16.8690   23.0180   34.9130 N.pl3  75  G75        -0.0859
   1628  N3        18.1820   23.2830   36.7860 N.ar   75  G75        -0.1918
   1629  C4        19.4400   23.6010   37.1890 C.ar   75  G75         0.1723
   1630  C5        20.5350   23.9270   36.4170 C.ar   75  G75         0.1748
   1631  C6        20.3960   23.9570   35.0100 C.ar   75  G75         0.3023
   1632  O6        21.2710   24.2260   34.1770 O.2    75  G75        -0.2633
   1633  N7        21.6470   24.1810   37.2050 N.ar   75  G75        -0.2173
   1634  C8        21.2080   24.0100   38.4180 C.ar   75  G75         0.1817
   1635  N9        19.8790   23.6650   38.4860 N.ar   75  G75        -0.2693
   1636  OP1       24.3930   21.8320   42.3840 O.3    75  G75        -0.4373
   1637  OP2       24.8520   22.9350   40.0990 O.co2  75  G75        -0.5172
   1638  P         20.4190   18.7060   40.4560 P.3    76  C76         0.2141
   1639  C5'       18.1600   18.0700   39.3150 C.3    76  C76         0.1812
   1640  O5'       19.5860   18.1890   39.1920 O.3    76  C76        -0.3114
   1641  C4'       17.4540   18.1470   37.9760 C.3    76  C76         0.1773
   1642  O4'       17.5970   19.4690   37.4110 O.3    76  C76        -0.3307
   1643  C3'       18.0450   17.2610   36.9010 C.3    76  C76         0.1860
   1644  O3'       17.6050   15.9310   37.0870 O.3    76  C76        -0.3112
   1645  C2'       17.5110   17.9220   35.6340 C.3    76  C76         0.2309
   1646  O2'       16.1470   17.6820   35.3600 O.3    76  C76        -0.2156
   1647  C1'       17.6940   19.3830   36.0000 C.3    76  C76         0.2420
   1648  N1        19.0080   19.9070   35.5130 N.ar   76  C76        -0.2535
   1649  C2        19.1160   20.2930   34.1610 C.ar   76  C76         0.3532
   1650  O2        18.1230   20.1970   33.4290 O.2    76  C76        -0.2443
   1651  N3        20.3090   20.7670   33.6960 N.ar   76  C76        -0.1739
   1652  C4        21.3640   20.8610   34.5160 C.ar   76  C76         0.1759
   1653  N4        22.5090   21.3360   34.0100 N.pl3  76  C76        -0.1070
   1654  C5        21.2760   20.4730   35.8990 C.ar   76  C76         0.0566
   1655  C6        20.0960   20.0070   36.3520 C.ar   76  C76         0.0850
   1656  OP1       20.2780   17.6890   41.5220 O.3    76  C76        -0.4373
   1657  OP2       21.7700   19.1460   40.0430 O.co2  76  C76        -0.5172
   1658  P         18.5320   14.7050   36.6330 P.3    77  G77         0.2141
   1659  C5'       17.2260   14.4840   34.3710 C.3    77  G77         0.1812
   1660  O5'       18.4570   14.7490   35.0330 O.3    77  G77        -0.3114
   1661  C4'       17.2820   14.9560   32.9320 C.3    77  G77         0.1773
   1662  O4'       17.6640   16.3490   32.8680 O.3    77  G77        -0.3307
   1663  C3'       18.3380   14.2740   32.0810 C.3    77  G77         0.1860
   1664  O3'       17.8890   13.0170   31.6620 O.3    77  G77        -0.3112
   1665  C2'       18.4510   15.2490   30.9220 C.3    77  G77         0.2309
   1666  O2'       17.3650   15.2000   30.0160 O.3    77  G77        -0.2156
   1667  C1'       18.4170   16.5650   31.6860 C.3    77  G77         0.2408
   1668  N1        22.6260   18.7620   29.8000 N.ar   77  G77        -0.1709
   1669  C2        21.4680   18.3850   29.1640 C.ar   77  G77         0.2606
   1670  N2        21.4000   18.6220   27.8480 N.pl3  77  G77        -0.0859
   1671  N3        20.4370   17.8130   29.7750 N.ar   77  G77        -0.1918
   1672  C4        20.6420   17.6370   31.1040 C.ar   77  G77         0.1723
   1673  C5        21.7600   17.9760   31.8370 C.ar   77  G77         0.1748
   1674  C6        22.8570   18.5900   31.1620 C.ar   77  G77         0.3023
   1675  O6        23.9350   18.9690   31.6330 O.2    77  G77        -0.2633
   1676  N7        21.5820   17.6340   33.1780 N.ar   77  G77        -0.2173
   1677  C8        20.3880   17.1060   33.2210 C.ar   77  G77         0.1817
   1678  N9        19.7540   17.0760   31.9990 N.ar   77  G77        -0.2693
   1679  OP1       17.8390   13.4830   37.1130 O.3    77  G77        -0.4373
   1680  OP2       19.9380   14.9770   37.0260 O.co2  77  G77        -0.5172
   1681  P         18.9090   11.7900   31.5810 P.3    78  C78         0.2141
   1682  C5'       20.9350   11.9640   29.9310 C.3    78  C78         0.1812
   1683  O5'       19.5380   11.9800   30.1220 O.3    78  C78        -0.3114
   1684  C4'       21.3030   13.0430   28.9410 C.3    78  C78         0.1773
   1685  O4'       21.6040   14.2740   29.6360 O.3    78  C78        -0.3307
   1686  C3'       22.5740   12.7610   28.1750 C.3    78  C78         0.1860
   1687  O3'       22.3160   11.8810   27.0820 O.3    78  C78        -0.3112
   1688  C2'       22.9850   14.1610   27.7190 C.3    78  C78         0.2309
   1689  O2'       22.3580   14.5710   26.5110 O.3    78  C78        -0.2156
   1690  C1'       22.5210   15.0420   28.8760 C.3    78  C78         0.2420
   1691  N1        23.6400   15.5530   29.7430 N.ar   78  C78        -0.2535
   1692  C2        24.5970   16.4530   29.2360 C.ar   78  C78         0.3532
   1693  O2        24.5290   16.8420   28.0700 O.2    78  C78        -0.2443
   1694  N3        25.5900   16.8980   30.0490 N.ar   78  C78        -0.1739
   1695  C4        25.6520   16.4750   31.3130 C.ar   78  C78         0.1759
   1696  N4        26.6490   16.9310   32.0670 N.pl3  78  C78        -0.1070
   1697  C5        24.7010   15.5640   31.8600 C.ar   78  C78         0.0566
   1698  C6        23.7250   15.1360   31.0470 C.ar   78  C78         0.0850
   1699  OP1       18.0780   10.5620   31.5840 O.2    78  C78        -0.5172
   1700  OP2       19.9730   11.9640   32.6000 O.co2  78  C78        -0.4373
   1701  P         23.5440   11.0280   26.5240 P.3    79  C79         0.2141
   1702  C5'       24.2550   12.5730   24.5010 C.3    79  C79         0.1812
   1703  O5'       24.4810   12.1310   25.8420 O.3    79  C79        -0.3114
   1704  C4'       25.5590   13.0110   23.8550 C.3    79  C79         0.1773
   1705  O4'       26.1790   14.0330   24.6750 O.3    79  C79        -0.3307
   1706  C3'       26.5850   11.8890   23.6960 C.3    79  C79         0.1860
   1707  O3'       27.2270   11.9380   22.4190 O.3    79  C79        -0.3112
   1708  C2'       27.5570   12.1590   24.8390 C.3    79  C79         0.2309
   1709  O2'       28.8570   11.7140   24.5390 O.3    79  C79        -0.2156
   1710  C1'       27.5200   13.6770   24.9210 C.3    79  C79         0.2420
   1711  N1        27.9710   14.1900   26.2450 N.ar   79  C79        -0.2535
   1712  C2        29.2170   14.8190   26.3430 C.ar   79  C79         0.3532
   1713  O2        29.9050   14.9390   25.3220 O.2    79  C79        -0.2443
   1714  N3        29.6370   15.2780   27.5530 N.ar   79  C79        -0.1739
   1715  C4        28.8630   15.1200   28.6300 C.ar   79  C79         0.1759
   1716  N4        29.3030   15.5820   29.7990 N.pl3  79  C79        -0.1070
   1717  C5        27.5880   14.4860   28.5510 C.ar   79  C79         0.0566
   1718  C6        27.1890   14.0390   27.3540 C.ar   79  C79         0.0850
   1719  OP1       23.0330   10.1030   25.4810 O.2    79  C79        -0.5172
   1720  OP2       24.2830   10.5250   27.7070 O.co2  79  C79        -0.4373
   1721  P         26.6110   11.1980   21.1410 P.3    80  G80         0.2141
   1722  C5'       24.4760   11.7410   19.7530 C.3    80  G80         0.1812
   1723  O5'       25.2940   12.0440   20.8580 O.3    80  G80        -0.3114
   1724  C4'       23.5830   12.9320   19.4750 C.3    80  G80         0.1773
   1725  O4'       24.2840   13.8830   18.6310 O.3    80  G80        -0.3307
   1726  C3'       22.2750   12.5970   18.7770 C.3    80  G80         0.1860
   1727  O3'       21.2580   13.3930   19.3460 O.3    80  G80        -0.3112
   1728  C2'       22.5150   13.0640   17.3420 C.3    80  G80         0.2309
   1729  O2'       21.3270   13.5070   16.7180 O.3    80  G80        -0.2156
   1730  C1'       23.4390   14.2560   17.5670 C.3    80  G80         0.2408
   1731  N1        26.7710   17.6820   15.8180 N.ar   80  G80        -0.1709
   1732  C2        26.1450   17.6150   17.0440 C.ar   80  G80         0.2606
   1733  N2        26.4380   18.5850   17.9220 N.pl3  80  G80        -0.0859
   1734  N3        25.2870   16.6590   17.3820 N.ar   80  G80        -0.1918
   1735  C4        25.0960   15.7570   16.3840 C.ar   80  G80         0.1723
   1736  C5        25.6730   15.7370   15.1310 C.ar   80  G80         0.1748
   1737  C6        26.5830   16.7650   14.7820 C.ar   80  G80         0.3023
   1738  O6        27.1850   16.9150   13.7130 O.2    80  G80        -0.2633
   1739  N7        25.2230   14.6470   14.3950 N.ar   80  G80        -0.2173
   1740  C8        24.3970   14.0400   15.2060 C.ar   80  G80         0.1817
   1741  N9        24.2670   14.6560   16.4310 N.ar   80  G80        -0.2693
   1742  OP1       26.2190    9.8130   21.4890 O.3    80  G80        -0.4373
   1743  OP2       27.5550   11.4370   20.0360 O.co2  80  G80        -0.5172
   1744  P         20.3960   12.9870   20.6200 P.3    81  A81         0.2141
   1745  C5'       21.0000   14.9620   22.2610 C.3    81  A81         0.1812
   1746  O5'       21.2540   13.6150   21.8250 O.3    81  A81        -0.3114
   1747  C4'       22.0870   15.4730   23.1850 C.3    81  A81         0.1773
   1748  O4'       23.3240   15.5730   22.4550 O.3    81  A81        -0.3307
   1749  C3'       21.9300   16.8890   23.7050 C.3    81  A81         0.1860
   1750  O3'       21.0120   16.9370   24.7950 O.3    81  A81        -0.3112
   1751  C2'       23.3490   17.1470   24.1930 C.3    81  A81         0.2309
   1752  O2'       23.5840   16.6030   25.4760 O.3    81  A81        -0.2156
   1753  C1'       24.2020   16.4190   23.1600 C.3    81  A81         0.2408
   1754  N1        28.2090   19.5700   22.4330 N.ar   81  A81        -0.2040
   1755  C2        27.9000   18.7390   23.4400 C.ar   81  A81         0.2016
   1756  N3        26.8360   17.9410   23.5740 N.ar   81  A81        -0.2048
   1757  C4        26.0290   18.0430   22.4960 C.ar   81  A81         0.1692
   1758  C5        26.2250   18.8530   21.3850 C.ar   81  A81         0.1518
   1759  C6        27.3790   19.6530   21.3730 C.ar   81  A81         0.1919
   1760  N6        27.6930   20.4780   20.3800 N.pl3  81  A81        -0.1054
   1761  N7        25.1980   18.6950   20.4830 N.ar   81  A81        -0.2193
   1762  C8        24.4130   17.8100   21.0530 C.ar   81  A81         0.1816
   1763  N9        24.8490   17.3690   22.2650 N.ar   81  A81        -0.2693
   1764  OP1       20.3650   11.5120   20.7490 O.3    81  A81        -0.4373
   1765  OP2       19.1240   13.7420   20.5020 O.co2  81  A81        -0.5172
   1766  P         19.5930   17.6650   24.6620 P.3    82  A82         0.2141
   1767  C5'       19.4730   19.3390   22.6830 C.3    82  A82         0.1812
   1768  O5'       19.9710   19.0410   23.9750 O.3    82  A82        -0.3114
   1769  C4'       20.5370   20.1540   21.9940 C.3    82  A82         0.1773
   1770  O4'       21.5530   19.2760   21.4680 O.3    82  A82        -0.3307
   1771  C3'       20.1260   20.9420   20.7750 C.3    82  A82         0.1860
   1772  O3'       19.3660   22.0830   21.1320 O.3    82  A82        -0.3112
   1773  C2'       21.5220   21.2920   20.2810 C.3    82  A82         0.2309
   1774  O2'       22.1530   22.2420   21.1320 O.3    82  A82        -0.2156
   1775  C1'       22.1700   19.9060   20.3660 C.3    82  A82         0.2408
   1776  N1        23.2940   18.8140   15.4420 N.ar   82  A82        -0.2040
   1777  C2        23.7580   19.7510   16.2780 C.ar   82  A82         0.2016
   1778  N3        23.4360   19.9850   17.5530 N.ar   82  A82        -0.2048
   1779  C4        22.5060   19.1150   17.9690 C.ar   82  A82         0.1692
   1780  C5        21.9250   18.0990   17.2220 C.ar   82  A82         0.1518
   1781  C6        22.3570   17.9570   15.8890 C.ar   82  A82         0.1919
   1782  N6        21.8890   17.0220   15.0640 N.pl3  82  A82        -0.1054
   1783  N7        21.0010   17.3960   17.9740 N.ar   82  A82        -0.2193
   1784  C8        21.0420   18.0010   19.1350 C.ar   82  A82         0.1816
   1785  N9        21.9270   19.0450   19.2090 N.ar   82  A82        -0.2693
   1786  OP1       19.1010   18.0000   26.0130 O.3    82  A82        -0.4373
   1787  OP2       18.7540   16.8710   23.7400 O.co2  82  A82        -0.5172
   1788  P         18.2870   22.6080   20.0790 P.3    83  G83         0.2141
   1789  C5'       19.8470   24.5280   19.2380 C.3    83  G83         0.1812
   1790  O5'       19.2000   23.2980   18.9740 O.3    83  G83        -0.3114
   1791  C4'       20.6610   24.8910   18.0210 C.3    83  G83         0.1773
   1792  O4'       21.5190   23.7620   17.7190 O.3    83  G83        -0.3307
   1793  C3'       19.8470   25.0350   16.7430 C.3    83  G83         0.1860
   1794  O3'       19.2590   26.3030   16.6250 O.3    83  G83        -0.3112
   1795  C2'       20.9330   24.8650   15.7080 C.3    83  G83         0.2309
   1796  O2'       21.7680   26.0010   15.6510 O.3    83  G83        -0.2156
   1797  C1'       21.6750   23.6830   16.3080 C.3    83  G83         0.2408
   1798  N1        22.1440   20.5490   12.3690 N.ar   83  G83        -0.1709
   1799  C2        22.7400   21.7600   12.6450 C.ar   83  G83         0.2606
   1800  N2        23.6030   22.2380   11.7450 N.pl3  83  G83        -0.0859
   1801  N3        22.5140   22.4740   13.7360 N.ar   83  G83        -0.1918
   1802  C4        21.6230   21.8820   14.5560 C.ar   83  G83         0.1723
   1803  C5        20.9650   20.6830   14.3900 C.ar   83  G83         0.1748
   1804  C6        21.2230   19.9200   13.2080 C.ar   83  G83         0.3023
   1805  O6        20.7550   18.8270   12.8580 O.2    83  G83        -0.2633
   1806  N7        20.1390   20.4460   15.4840 N.ar   83  G83        -0.2173
   1807  C8        20.3150   21.4880   16.2630 C.ar   83  G83         0.1817
   1808  N9        21.2090   22.4040   15.7540 N.ar   83  G83        -0.2693
   1809  OP1       17.4980   23.6250   20.7940 O.3    83  G83        -0.4373
   1810  OP2       17.6100   21.4590   19.4310 O.co2  83  G83        -0.5172
   1811  P         17.8320   26.4430   15.9180 P.3    84  G84         0.2141
   1812  C5'       18.8530   27.3640   13.6670 C.3    84  G84         0.1812
   1813  O5'       18.1900   26.3050   14.3470 O.3    84  G84        -0.3114
   1814  C4'       19.6440   26.8700   12.4760 C.3    84  G84         0.1773
   1815  O4'       20.3380   25.6320   12.7700 O.3    84  G84        -0.3307
   1816  C3'       18.7920   26.5070   11.2740 C.3    84  G84         0.1860
   1817  O3'       18.4180   27.6380   10.5660 O.3    84  G84        -0.3112
   1818  C2'       19.7310   25.6380   10.4580 C.3    84  G84         0.2309
   1819  O2'       20.6200   26.3640    9.6450 O.3    84  G84        -0.2156
   1820  C1'       20.4490   24.8720   11.5680 C.3    84  G84         0.2408
   1821  N1        19.3700   20.4930    9.2460 N.ar   84  G84        -0.1709
   1822  C2        20.0930   21.5770    8.7890 C.ar   84  G84         0.2606
   1823  N2        20.5990   21.5120    7.5520 N.pl3  84  G84        -0.0859
   1824  N3        20.3060   22.6680    9.5080 N.ar   84  G84        -0.1918
   1825  C4        19.7340   22.6000   10.7370 C.ar   84  G84         0.1723
   1826  C5        18.9980   21.5760   11.2840 C.ar   84  G84         0.1748
   1827  C6        18.7770   20.4140   10.5100 C.ar   84  G84         0.3023
   1828  O6        18.1480   19.4030   10.8420 O.2    84  G84        -0.2633
   1829  N7        18.5910   21.8890   12.5740 N.ar   84  G84        -0.2173
   1830  C8        19.0760   23.0850   12.7760 C.ar   84  G84         0.1817
   1831  N9        19.7890   23.5760   11.7060 N.ar   84  G84        -0.2693
   1832  OP1       17.3440   27.7880   16.2990 O.3    84  G84        -0.4373
   1833  OP2       16.9690   25.2850   16.2270 O.co2  84  G84        -0.5172
   1834  P         16.8900   27.7610   10.1180 P.3    85  G85         0.2141
   1835  C5'       17.8290   27.4500    7.6500 C.3    85  G85         0.1812
   1836  O5'       16.8630   27.1180    8.6390 O.3    85  G85        -0.3114
   1837  C4'       18.0470   26.2690    6.7260 C.3    85  G85         0.1773
   1838  O4'       18.5570   25.1090    7.4420 O.3    85  G85        -0.3307
   1839  C3'       16.7970   25.7190    6.0570 C.3    85  G85         0.1860
   1840  O3'       16.3720   26.5570    4.9900 O.3    85  G85        -0.3112
   1841  C2'       17.3240   24.3740    5.5710 C.3    85  G85         0.2309
   1842  O2'       18.2020   24.5120    4.4740 O.3    85  G85        -0.2156
   1843  C1'       18.1080   23.9150    6.8030 C.3    85  G85         0.2408
   1844  N1        15.4260   19.5880    7.6630 N.ar   85  G85        -0.1709
   1845  C2        16.0290   20.0000    6.5010 C.ar   85  G85         0.2606
   1846  N2        15.9150   19.1760    5.4470 N.pl3  85  G85        -0.0859
   1847  N3        16.7020   21.1420    6.3800 N.ar   85  G85        -0.1918
   1848  C4        16.7330   21.8600    7.5350 C.ar   85  G85         0.1723
   1849  C5        16.1580   21.5150    8.7450 C.ar   85  G85         0.1748
   1850  C6        15.4440   20.3020    8.8570 C.ar   85  G85         0.3023
   1851  O6        14.8680   19.8600    9.8600 O.2    85  G85        -0.2633
   1852  N7        16.3850   22.4860    9.7060 N.ar   85  G85        -0.2173
   1853  C8        17.0840   23.3880    9.0680 C.ar   85  G85         0.1817
   1854  N9        17.3430   23.0880    7.7470 N.ar   85  G85        -0.2693
   1855  OP1       16.6130   29.2170   10.0580 O.2    85  G85        -0.5172
   1856  OP2       16.0410   26.8920   10.9640 O.co2  85  G85        -0.4373
   1857  P         14.8330   26.9890    4.8750 P.3    86  U86         0.2141
   1858  C5'       14.5740   25.1210    3.0100 C.3    86  U86         0.1812
   1859  O5'       14.1430   25.6990    4.2390 O.3    86  U86        -0.3114
   1860  C4'       13.9530   23.7430    2.8690 C.3    86  U86         0.1773
   1861  O4'       14.5650   22.8260    3.8140 O.3    86  U86        -0.3307
   1862  C3'       12.4820   23.6790    3.2350 C.3    86  U86         0.1860
   1863  O3'       11.6830   24.1120    2.1650 O.3    86  U86        -0.3112
   1864  C2'       12.3170   22.1950    3.5010 C.3    86  U86         0.2309
   1865  O2'       12.2920   21.4330    2.3150 O.3    86  U86        -0.2156
   1866  C1'       13.5910   21.9160    4.2900 C.3    86  U86         0.2420
   1867  N1        13.3770   22.0810    5.7680 N.ar   86  U86        -0.2534
   1868  C2        12.8070   21.0410    6.4920 C.ar   86  U86         0.3546
   1869  O2        12.4680   19.9680    6.0050 O.2    86  U86        -0.2443
   1870  N3        12.6540   21.3050    7.8340 N.ar   86  U86        -0.1530
   1871  C4        12.9900   22.4690    8.5070 C.ar   86  U86         0.2846
   1872  O4        12.7930   22.5630    9.7160 O.2    86  U86        -0.2650
   1873  C5        13.5730   23.5010    7.6870 C.ar   86  U86         0.0814
   1874  C6        13.7390   23.2710    6.3810 C.ar   86  U86         0.0870
   1875  OP1       14.7760   28.1420    3.9520 O.2    86  U86        -0.5172
   1876  OP2       14.2550   27.1090    6.2310 O.co2  86  U86        -0.4373
   1877  P         10.2680   24.8010    2.4660 P.3    87  G87         0.2141
   1878  C5'        8.9760   22.6120    1.7970 C.3    87  G87         0.1812
   1879  O5'        9.3210   23.5550    2.8090 O.3    87  G87        -0.3114
   1880  C4'        8.2900   21.4060    2.4080 C.3    87  G87         0.1773
   1881  O4'        9.1720   20.7360    3.3470 O.3    87  G87        -0.3307
   1882  C3'        7.0610   21.7340    3.2340 C.3    87  G87         0.1860
   1883  O3'        5.9580   21.8320    2.3960 O.3    87  G87        -0.3112
   1884  C2'        6.9480   20.5110    4.1290 C.3    87  G87         0.2309
   1885  O2'        6.3510   19.4150    3.4730 O.3    87  G87        -0.2156
   1886  C1'        8.4090   20.2250    4.4300 C.3    87  G87         0.2408
   1887  N1         8.2990   20.1550    9.5110 N.ar   87  G87        -0.1709
   1888  C2         7.7450   19.2660    8.6200 C.ar   87  G87         0.2606
   1889  N2         7.0880   18.2250    9.1370 N.pl3  87  G87        -0.0859
   1890  N3         7.8430   19.3810    7.3030 N.ar   87  G87        -0.1918
   1891  C4         8.5390   20.4890    6.9450 C.ar   87  G87         0.1723
   1892  C5         9.1160   21.4330    7.7580 C.ar   87  G87         0.1748
   1893  C6         9.0130   21.2960    9.1560 C.ar   87  G87         0.3023
   1894  O6         9.4700   22.0490   10.0280 O.2    87  G87        -0.2633
   1895  N7         9.7410   22.4130    7.0070 N.ar   87  G87        -0.2173
   1896  C8         9.5340   22.0550    5.7750 C.ar   87  G87         0.1817
   1897  N9         8.8130   20.8930    5.6610 N.ar   87  G87        -0.2693
   1898  OP1        9.8210   25.4180    1.1890 O.2    87  G87        -0.5172
   1899  OP2       10.3760   25.6130    3.6950 O.co2  87  G87        -0.4373
   1900  P          4.7610   22.8120    2.7890 P.3    88  C88         0.2141
   1901  C5'        3.3290   20.8640    3.7450 C.3    88  C88         0.1812
   1902  O5'        4.0620   22.0580    4.0100 O.3    88  C88        -0.3114
   1903  C4'        2.9200   20.2030    5.0390 C.3    88  C88         0.1773
   1904  O4'        4.0960   19.9200    5.8220 O.3    88  C88        -0.3307
   1905  C3'        2.1330   21.0840    5.9840 C.3    88  C88         0.1860
   1906  O3'        0.8120   21.2120    5.5700 O.3    88  C88        -0.3112
   1907  C2'        2.2740   20.3030    7.2740 C.3    88  C88         0.2309
   1908  O2'        1.5750   19.0740    7.2800 O.3    88  C88        -0.2156
   1909  C1'        3.7670   20.0320    7.1920 C.3    88  C88         0.2420
   1910  N1         4.5840   21.0990    7.8360 N.ar   88  C88        -0.2535
   1911  C2         4.7570   21.0400    9.2250 C.ar   88  C88         0.3532
   1912  O2         4.2290   20.1190    9.8650 O.2    88  C88        -0.2443
   1913  N3         5.5000   21.9990    9.8370 N.ar   88  C88        -0.1739
   1914  C4         6.0550   22.9740    9.1210 C.ar   88  C88         0.1759
   1915  N4         6.7700   23.8780    9.7890 N.pl3  88  C88        -0.1070
   1916  C5         5.8940   23.0600    7.7030 C.ar   88  C88         0.0566
   1917  C6         5.1570   22.1100    7.1060 C.ar   88  C88         0.0850
   1918  OP1        3.8490   22.7830    1.6200 O.2    88  C88        -0.5172
   1919  OP2        5.2850   24.1000    3.3000 O.co2  88  C88        -0.4373
   1920  P          0.1920   22.6710    5.6410 P.3    89  A89         0.2141
   1921  C5'       -1.0280   22.0580    7.8740 C.3    89  A89         0.1812
   1922  O5'       -0.0150   22.8080    7.2230 O.3    89  A89        -0.3114
   1923  C4'       -0.9130   22.1580    9.3800 C.3    89  A89         0.1773
   1924  O4'        0.4310   21.8130    9.7990 O.3    89  A89        -0.3307
   1925  C3'       -1.1020   23.5320   10.0010 C.3    89  A89         0.1860
   1926  O3'       -2.4590   23.9070   10.0510 O.3    89  A89        -0.3112
   1927  C2'       -0.5690   23.2250   11.3890 C.3    89  A89         0.2309
   1928  O2'       -1.4610   22.4120   12.1180 O.3    89  A89        -0.2156
   1929  C1'        0.7010   22.4680   11.0190 C.3    89  A89         0.2408
   1930  N1         4.1440   25.4600   13.3480 N.ar   89  A89        -0.2040
   1931  C2         3.2100   24.6250   13.8220 C.ar   89  A89         0.2016
   1932  N3         2.3460   23.8720   13.1440 N.ar   89  A89        -0.2048
   1933  C4         2.5010   24.0290   11.8190 C.ar   89  A89         0.1692
   1934  C5         3.4120   24.8450   11.1760 C.ar   89  A89         0.1518
   1935  C6         4.2740   25.5930   12.0090 C.ar   89  A89         0.1919
   1936  N6         5.2090   26.4240   11.5410 N.pl3  89  A89        -0.1054
   1937  N7         3.2790   24.7450    9.7990 N.ar   89  A89        -0.2193
   1938  C8         2.3020   23.8820    9.6440 C.ar   89  A89         0.1816
   1939  N9         1.7940   23.4070   10.8230 N.ar   89  A89        -0.2693
   1940  OP1       -1.1110   22.6660    4.9460 O.2    89  A89        -0.5172
   1941  OP2        1.2070   23.6620    5.2250 O.co2  89  A89        -0.4373
   1942  P         -2.8630   25.4460   10.2030 P.3    90  G90         0.2141
   1943  C5'       -3.5380   25.6070   12.6810 C.3    90  G90         0.1812
   1944  O5'       -2.5230   25.7760   11.7170 O.3    90  G90        -0.3114
   1945  C4'       -2.9860   25.9260   14.0470 C.3    90  G90         0.1773
   1946  O4'       -1.6430   25.3880   14.1340 O.3    90  G90        -0.3307
   1947  C3'       -2.8070   27.4100   14.2990 C.3    90  G90         0.1860
   1948  O3'       -4.0290   28.0210   14.6940 O.3    90  G90        -0.3112
   1949  C2'       -1.7570   27.3820   15.3970 C.3    90  G90         0.2309
   1950  O2'       -2.2740   27.0400   16.6680 O.3    90  G90        -0.2156
   1951  C1'       -0.8310   26.2920   14.8540 C.3    90  G90         0.2408
   1952  N1         3.3710   29.1240   14.6980 N.ar   90  G90        -0.1709
   1953  C2         2.5990   28.7330   15.7790 C.ar   90  G90         0.2606
   1954  N2         2.9720   29.1360   17.0040 N.pl3  90  G90        -0.0859
   1955  N3         1.5160   27.9770   15.6710 N.ar   90  G90        -0.1918
   1956  C4         1.2470   27.6330   14.3850 C.ar   90  G90         0.1723
   1957  C5         1.9410   27.9660   13.2440 C.ar   90  G90         0.1748
   1958  C6         3.1050   28.7750   13.3690 C.ar   90  G90         0.3023
   1959  O6         3.8560   29.1760   12.4680 O.2    90  G90        -0.2633
   1960  N7         1.3270   27.4080   12.1230 N.ar   90  G90        -0.2173
   1961  C8         0.2960   26.7640   12.6030 C.ar   90  G90         0.1817
   1962  N9         0.1890   26.8570   13.9730 N.ar   90  G90        -0.2693
   1963  OP1       -4.3250   25.5110   10.0190 O.3    90  G90        -0.4373
   1964  OP2       -1.9850   26.2780    9.3530 O.co2  90  G90        -0.5172
   1965  P         -4.4240   29.4600   14.1030 P.3    91  A91         0.2141
   1966  C5'       -3.7100   30.3020   16.4660 C.3    91  A91         0.1812
   1967  O5'       -3.5800   30.4240   15.0500 O.3    91  A91        -0.3114
   1968  C4'       -2.5700   31.0220   17.1520 C.3    91  A91         0.1773
   1969  O4'       -1.3050   30.3710   16.8630 O.3    91  A91        -0.3307
   1970  C3'       -2.3570   32.4300   16.6430 C.3    91  A91         0.1860
   1971  O3'       -3.2780   33.2970   17.2320 O.3    91  A91        -0.3112
   1972  C2'       -0.9330   32.6990   17.0980 C.3    91  A91         0.2309
   1973  O2'       -0.8480   33.0080   18.4710 O.3    91  A91        -0.2156
   1974  C1'       -0.2900   31.3540   16.7770 C.3    91  A91         0.2408
   1975  N1         3.7030   32.8210   13.9570 N.ar   91  A91        -0.2040
   1976  C2         3.4280   32.9450   15.2600 C.ar   91  A91         0.2016
   1977  N3         2.3570   32.5230   15.9230 N.ar   91  A91        -0.2048
   1978  C4         1.4870   31.9240   15.0950 C.ar   91  A91         0.1692
   1979  C5         1.6200   31.7290   13.7360 C.ar   91  A91         0.1518
   1980  C6         2.8090   32.2110   13.1530 C.ar   91  A91         0.1919
   1981  N6         3.0950   32.1050   11.8520 N.pl3  91  A91        -0.1054
   1982  N7         0.5150   31.0720   13.2200 N.ar   91  A91        -0.2193
   1983  C8        -0.2500   30.8890   14.2710 C.ar   91  A91         0.1816
   1984  N9         0.2820   31.3720   15.4350 N.ar   91  A91        -0.2693
   1985  OP1       -5.8630   29.6910   14.3570 O.3    91  A91        -0.4373
   1986  OP2       -3.8960   29.5770   12.7210 O.co2  91  A91        -0.5172
   1987  P         -3.6960   34.6320   16.4590 P.3    92  G92         0.2141
   1988  C5'       -2.0490   36.1670   17.8180 C.3    92  G92         0.1812
   1989  O5'       -2.3860   35.5470   16.5850 O.3    92  G92        -0.3114
   1990  C4'       -0.6690   36.7930   17.7510 C.3    92  G92         0.1773
   1991  O4'        0.2940   35.8210   17.2770 O.3    92  G92        -0.3307
   1992  C3'       -0.5160   37.9470   16.7710 C.3    92  G92         0.1860
   1993  O3'       -0.9940   39.1410   17.3420 O.3    92  G92        -0.3112
   1994  C2'        0.9960   37.9710   16.5690 C.3    92  G92         0.2309
   1995  O2'        1.7280   38.5670   17.6190 O.3    92  G92        -0.2156
   1996  C1'        1.2970   36.4830   16.5270 C.3    92  G92         0.2408
   1997  N1         3.7960   36.2880   12.1270 N.ar   92  G92        -0.1709
   1998  C2         4.1580   36.8890   13.3150 C.ar   92  G92         0.2606
   1999  N2         5.3380   37.5230   13.3450 N.pl3  92  G92        -0.0859
   2000  N3         3.4100   36.8700   14.4090 N.ar   92  G92        -0.1918
   2001  C4         2.2520   36.1920   14.2170 C.ar   92  G92         0.1723
   2002  C5         1.7990   35.5660   13.0800 C.ar   92  G92         0.1748
   2003  C6         2.6070   35.5900   11.9210 C.ar   92  G92         0.3023
   2004  O6         2.3640   35.0850   10.8200 O.2    92  G92        -0.2633
   2005  N7         0.5570   34.9880   13.2950 N.ar   92  G92        -0.2173
   2006  C8         0.2820   35.2720   14.5380 C.ar   92  G92         0.1817
   2007  N9         1.2720   35.9940   15.1570 N.ar   92  G92        -0.2693
   2008  OP1       -4.8150   35.1860   17.2590 O.3    92  G92        -0.4373
   2009  OP2       -3.8760   34.3570   15.0090 O.co2  92  G92        -0.5172
   2010  P         -1.8420   40.1700   16.4610 P.3    93  U93         0.2141
   2011  C5'        0.3880   41.5060   15.9620 C.3    93  U93         0.1812
   2012  O5'       -0.7220   40.7560   15.4760 O.3    93  U93        -0.3114
   2013  C4'        1.3410   41.7590   14.8190 C.3    93  U93         0.1773
   2014  O4'        1.8560   40.4930   14.3470 O.3    93  U93        -0.3307
   2015  C3'        0.6880   42.3460   13.5770 C.3    93  U93         0.1860
   2016  O3'        0.5190   43.7410   13.7030 O.3    93  U93        -0.3112
   2017  C2'        1.7000   41.9830   12.4980 C.3    93  U93         0.2309
   2018  O2'        2.8240   42.8350   12.4680 O.3    93  U93        -0.2156
   2019  C1'        2.1270   40.5930   12.9560 C.3    93  U93         0.2420
   2020  N1         1.4460   39.5070   12.1680 N.ar   93  U93        -0.2534
   2021  C2         2.1040   38.9970   11.0630 C.ar   93  U93         0.3546
   2022  O2         3.2080   39.3790   10.7090 O.2    93  U93        -0.2443
   2023  N3         1.4250   38.0090   10.3800 N.ar   93  U93        -0.1530
   2024  C4         0.1780   37.4880   10.6770 C.ar   93  U93         0.2846
   2025  O4        -0.2940   36.6010    9.9690 O.2    93  U93        -0.2650
   2026  C5        -0.4510   38.0720   11.8400 C.ar   93  U93         0.0814
   2027  C6         0.1890   39.0350   12.5270 C.ar   93  U93         0.0870
   2028  OP1       -2.3300   41.2390   17.3690 O.3    93  U93        -0.4373
   2029  OP2       -2.8120   39.4070   15.6350 O.co2  93  U93        -0.5172
   2030  P         -0.9340   44.3940   13.8320 P.3    94  U94         0.2141
   2031  C5'       -0.5880   46.5490   12.3360 C.3    94  U94         0.1812
   2032  O5'       -1.0520   45.2080   12.4620 O.3    94  U94        -0.3114
   2033  C4'       -1.6080   47.3660   11.5620 C.3    94  U94         0.1773
   2034  O4'       -1.7710   46.8260   10.2220 O.3    94  U94        -0.3307
   2035  C3'       -3.0030   47.3960   12.1770 C.3    94  U94         0.1860
   2036  O3'       -3.4900   48.7190   12.1570 O.3    94  U94        -0.3112
   2037  C2'       -3.8300   46.4820   11.2780 C.3    94  U94         0.2309
   2038  O2'       -5.1830   46.8710   11.1950 O.3    94  U94        -0.2156
   2039  C1'       -3.1390   46.6370    9.9280 C.3    94  U94         0.2420
   2040  N1        -3.2990   45.4180    9.0850 N.ar   94  U94        -0.2534
   2041  C2        -4.1640   45.4260    8.0020 C.ar   94  U94         0.3546
   2042  O2        -4.8260   46.3890    7.6570 O.2    94  U94        -0.2443
   2043  N3        -4.2390   44.2410    7.3100 N.ar   94  U94        -0.1530
   2044  C4        -3.5570   43.0730    7.5870 C.ar   94  U94         0.2846
   2045  O4        -3.7350   42.0950    6.8770 O.2    94  U94        -0.2650
   2046  C5        -2.6770   43.1270    8.7280 C.ar   94  U94         0.0814
   2047  C6        -2.5860   44.2740    9.4180 C.ar   94  U94         0.0870
   2048  OP1       -0.8550   45.3300   14.9740 O.3    94  U94        -0.4373
   2049  OP2       -1.9840   43.3540   13.7880 O.co2  94  U94        -0.5172
   2050  P         -4.3640   49.2410   13.3800 P.3    95  C95         0.2141
   2051  C5'       -6.8490   48.7060   13.9310 C.3    95  C95         0.1812
   2052  O5'       -5.8290   48.7720   12.9460 O.3    95  C95        -0.3114
   2053  C4'       -8.2020   48.4070   13.3160 C.3    95  C95         0.1773
   2054  O4'       -8.5590   49.4270   12.3490 O.3    95  C95        -0.3307
   2055  C3'       -8.2930   47.1240   12.5050 C.3    95  C95         0.1860
   2056  O3'       -8.4200   45.9950   13.3320 O.3    95  C95        -0.3112
   2057  C2'       -9.5690   47.3820   11.7270 C.3    95  C95         0.2309
   2058  O2'      -10.7180   47.2260   12.5330 O.3    95  C95        -0.2156
   2059  C1'       -9.3540   48.8390   11.3330 C.3    95  C95         0.2420
   2060  N1        -8.6820   48.9740    9.9950 N.ar   95  C95        -0.2535
   2061  C2        -9.4600   48.8680    8.8270 C.ar   95  C95         0.3532
   2062  O2       -10.6820   48.6700    8.9130 O.2    95  C95        -0.2443
   2063  N3        -8.8490   48.9870    7.6160 N.ar   95  C95        -0.1739
   2064  C4        -7.5290   49.2010    7.5430 C.ar   95  C95         0.1759
   2065  N4        -6.9840   49.3130    6.3250 N.pl3  95  C95        -0.1070
   2066  C5        -6.7170   49.3080    8.7200 C.ar   95  C95         0.0566
   2067  C6        -7.3280   49.1890    9.9080 C.ar   95  C95         0.0850
   2068  OP1       -4.3210   50.7180   13.3720 O.2    95  C95        -0.5172
   2069  OP2       -3.9620   48.4980   14.6000 O.co2  95  C95        -0.4373
   2070  P         -7.8830   44.5900   12.7990 P.3    96  C96         0.2141
   2071  C5'      -10.3040   43.7800   12.1490 C.3    96  C96         0.1812
   2072  O5'       -9.0000   44.1780   11.7270 O.3    96  C96        -0.3114
   2073  C4'      -11.1360   43.2710   10.9860 C.3    96  C96         0.1773
   2074  O4'      -11.3560   44.3450   10.0390 O.3    96  C96        -0.3307
   2075  C3'      -10.4770   42.1900   10.1430 C.3    96  C96         0.1860
   2076  O3'      -10.6080   40.8970   10.6960 O.3    96  C96        -0.3112
   2077  C2'      -11.2160   42.3140    8.8200 C.3    96  C96         0.2309
   2078  O2'      -12.4640   41.6510    8.8400 O.3    96  C96        -0.2156
   2079  C1'      -11.3810   43.8270    8.7190 C.3    96  C96         0.2420
   2080  N1       -10.3130   44.4750    7.8770 N.ar   96  C96        -0.2535
   2081  C2       -10.4680   44.5020    6.4810 C.ar   96  C96         0.3532
   2082  O2       -11.4760   43.9940    5.9690 O.2    96  C96        -0.2443
   2083  N3        -9.5030   45.0870    5.7200 N.ar   96  C96        -0.1739
   2084  C4        -8.4230   45.6260    6.2970 C.ar   96  C96         0.1759
   2085  N4        -7.5060   46.1910    5.5040 N.pl3  96  C96        -0.1070
   2086  C5        -8.2390   45.6080    7.7160 C.ar   96  C96         0.0566
   2087  C6        -9.1980   45.0300    8.4540 C.ar   96  C96         0.0850
   2088  OP1       -7.9140   43.6580   13.9510 O.3    96  C96        -0.4373
   2089  OP2       -6.6150   44.8110   12.0660 O.co2  96  C96        -0.5172
   2090  P         -9.4130   39.8800   10.3860 P.3    97  U97         0.2141
   2091  C5'      -10.8540   38.6410    8.5170 C.3    97  U97         0.1812
   2092  O5'       -9.6940   39.3930    8.8840 O.3    97  U97        -0.3114
   2093  C4'      -10.9600   38.4800    7.0070 C.3    97  U97         0.1773
   2094  O4'      -11.0440   39.7730    6.3590 O.3    97  U97        -0.3307
   2095  C3'       -9.7560   37.8470    6.3280 C.3    97  U97         0.1860
   2096  O3'       -9.7320   36.4390    6.4600 O.3    97  U97        -0.3112
   2097  C2'       -9.9220   38.3000    4.8810 C.3    97  U97         0.2309
   2098  O2'      -10.8830   37.5580    4.1610 O.3    97  U97        -0.2156
   2099  C1'      -10.4130   39.7230    5.0890 C.3    97  U97         0.2420
   2100  N1        -9.2950   40.7180    5.0070 N.ar   97  U97        -0.2534
   2101  C2        -8.9300   41.2190    3.7690 C.ar   97  U97         0.3546
   2102  O2        -9.4700   40.9000    2.7260 O.2    97  U97        -0.2443
   2103  N3        -7.8950   42.1240    3.7910 N.ar   97  U97        -0.1530
   2104  C4        -7.2040   42.5680    4.9030 C.ar   97  U97         0.2846
   2105  O4        -6.2970   43.3780    4.7700 O.2    97  U97        -0.2650
   2106  C5        -7.6340   42.0070    6.1560 C.ar   97  U97         0.0814
   2107  C6        -8.6390   41.1240    6.1590 C.ar   97  U97         0.0870
   2108  OP1       -9.5090   38.7390   11.3250 O.3    97  U97        -0.4373
   2109  OP2       -8.1720   40.6840   10.3430 O.co2  97  U97        -0.5172
   2110  P         -8.2960   35.7600    6.6720 P.3    98  C98         0.2141
   2111  C5'       -8.1580   34.9660    4.1940 C.3    98  C98         0.1812
   2112  O5'       -7.6510   35.8280    5.2090 O.3    98  C98        -0.3114
   2113  C4'       -7.5840   35.2930    2.8310 C.3    98  C98         0.1773
   2114  O4'       -7.7300   36.7070    2.5560 O.3    98  C98        -0.3307
   2115  C3'       -6.0920   35.0730    2.6730 C.3    98  C98         0.1860
   2116  O3'       -5.7700   33.7120    2.5230 O.3    98  C98        -0.3112
   2117  C2'       -5.8540   35.8770    1.4040 C.3    98  C98         0.2309
   2118  O2'       -6.4190   35.2900    0.2470 O.3    98  C98        -0.2156
   2119  C1'       -6.6470   37.1320    1.7410 C.3    98  C98         0.2420
   2120  N1        -5.8530   38.2320    2.4240 N.ar   98  C98        -0.2535
   2121  C2        -4.8880   38.9750    1.7050 C.ar   98  C98         0.3532
   2122  O2        -4.6620   38.7290    0.5130 O.2    98  C98        -0.2443
   2123  N3        -4.2050   39.9610    2.3480 N.ar   98  C98        -0.1739
   2124  C4        -4.4480   40.2220    3.6360 C.ar   98  C98         0.1759
   2125  N4        -3.7480   41.2000    4.2110 N.pl3  98  C98        -0.1070
   2126  C5        -5.4180   39.4900    4.3870 C.ar   98  C98         0.0566
   2127  C6        -6.0880   38.5200    3.7490 C.ar   98  C98         0.0850
   2128  OP1       -8.4860   34.3330    7.0290 O.2    98  C98        -0.5172
   2129  OP2       -7.5150   36.6510    7.5670 O.co2  98  C98        -0.4373
   2130  P         -4.4520   33.1690    3.2500 P.3    99  C99         0.2141
   2131  C5'       -3.3080   33.0720    0.8850 C.3    99  C99         0.1812
   2132  O5'       -3.3000   33.5740    2.2190 O.3    99  C99        -0.3114
   2133  C4'       -2.3250   33.8200    0.0000 C.3    99  C99         0.1773
   2134  O4'       -2.6820   35.2230   -0.0640 O.3    99  C99        -0.3307
   2135  C3'       -0.8860   33.8640    0.4930 C.3    99  C99         0.1860
   2136  O3'       -0.1800   32.6690    0.2490 O.3    99  C99        -0.3112
   2137  C2'       -0.3270   35.0380   -0.3030 C.3    99  C99         0.2309
   2138  O2'        0.0010   34.7440   -1.6510 O.3    99  C99        -0.2156
   2139  C1'       -1.5050   36.0050   -0.2120 C.3    99  C99         0.2420
   2140  N1        -1.3560   36.9330    0.9470 N.ar   99  C99        -0.2535
   2141  C2        -0.4210   37.9840    0.8920 C.ar   99  C99         0.3532
   2142  O2         0.2700   38.1450   -0.1200 O.2    99  C99        -0.2443
   2143  N3        -0.3030   38.8130    1.9630 N.ar   99  C99        -0.1739
   2144  C4        -1.0600   38.6180    3.0440 C.ar   99  C99         0.1759
   2145  N4        -0.9100   39.4480    4.0740 N.pl3  99  C99        -0.1070
   2146  C5        -2.0070   37.5560    3.1240 C.ar   99  C99         0.0566
   2147  C6        -2.1210   36.7480    2.0660 C.ar   99  C99         0.0850
   2148  OP1       -4.5360   31.6930    3.3460 O.2    99  C99        -0.5172
   2149  OP2       -4.2430   33.9530    4.4840 O.co2  99  C99        -0.4373
   2150  P          0.8300   32.1380    1.3760 P.3   100  C100        0.2141
   2151  C5'        2.9050   33.2120    0.1580 C.3   100  C100        0.1812
   2152  O5'        2.0460   33.1850    1.2930 O.3   100  C100       -0.3114
   2153  C4'        3.7430   34.4750    0.1340 C.3   100  C100        0.1773
   2154  O4'        2.9080   35.6610    0.2650 O.3   100  C100       -0.3307
   2155  C3'        4.7030   34.6360    1.2960 C.3   100  C100        0.1860
   2156  O3'        5.8310   33.7770    1.2250 O.3   100  C100       -0.3112
   2157  C2'        5.0320   36.1230    1.1710 C.3   100  C100        0.2309
   2158  O2'        5.8820   36.4420    0.0870 O.3   100  C100       -0.2156
   2159  C1'        3.6260   36.6810    0.9490 C.3   100  C100        0.2420
   2160  N1         2.9440   37.0220    2.2510 N.ar  100  C100       -0.2535
   2161  C2         3.3150   38.1720    2.9770 C.ar  100  C100        0.3532
   2162  O2         4.1930   38.9310    2.5470 O.2   100  C100       -0.2443
   2163  N3         2.6860   38.4410    4.1480 N.ar  100  C100       -0.1739
   2164  C4         1.7360   37.6200    4.6060 C.ar  100  C100        0.1759
   2165  N4         1.1440   37.9260    5.7660 N.pl3 100  C100       -0.1070
   2166  C5         1.3500   36.4430    3.8990 C.ar  100  C100        0.0566
   2167  C6         1.9710   36.1920    2.7430 C.ar  100  C100        0.0850
   2168  OP1        1.3110   30.8090    0.9310 O.2   100  C100       -0.5172
   2169  OP2        0.1760   32.2430    2.7030 O.co2 100  C100       -0.4373
   2170  P          6.4440   33.2430    2.6130 P.3   101  G101        0.2141
   2171  C5'        8.3560   35.0550    2.4500 C.3   101  G101        0.1812
   2172  O5'        7.2350   34.5300    3.1440 O.3   101  G101       -0.3114
   2173  C4'        8.7780   36.3490    3.1080 C.3   101  G101        0.1773
   2174  O4'        7.6650   37.2780    3.1390 O.3   101  G101       -0.3307
   2175  C3'        9.1520   36.1760    4.5710 C.3   101  G101        0.1860
   2176  O3'       10.4980   35.7930    4.6940 O.3   101  G101       -0.3112
   2177  C2'        8.8780   37.5460    5.1790 C.3   101  G101        0.2309
   2178  O2'        9.9050   38.4930    4.9770 O.3   101  G101       -0.2156
   2179  C1'        7.6320   37.9370    4.4010 C.3   101  G101        0.2408
   2180  N1         4.5490   39.1170    8.2460 N.ar  101  G101       -0.1709
   2181  C2         5.6900   39.7610    7.8050 C.ar  101  G101        0.2606
   2182  N2         6.0680   40.8700    8.4590 N.pl3 101  G101       -0.0859
   2183  N3         6.4140   39.3470    6.7750 N.ar  101  G101       -0.1918
   2184  C4         5.9040   38.2240    6.2170 C.ar  101  G101        0.1723
   2185  C5         4.7860   37.5130    6.5790 C.ar  101  G101        0.1748
   2186  C6         4.0120   37.9610    7.6740 C.ar  101  G101        0.3023
   2187  O6         2.9780   37.4470    8.1300 O.2   101  G101       -0.2633
   2188  N7         4.6050   36.4160    5.7520 N.ar  101  G101       -0.2173
   2189  C8         5.6010   36.4880    4.9200 C.ar  101  G101        0.1817
   2190  N9         6.4290   37.5630    5.1400 N.ar  101  G101       -0.2693
   2191  OP1        7.4240   32.1530    2.3680 O.2   101  G101       -0.5172
   2192  OP2        5.2960   32.9940    3.5130 O.co2 101  G101       -0.4373
   2193  P         10.8390   34.6670    5.7660 P.3   102  C102        0.2141
   2194  C5'       11.6590   36.4920    7.4500 C.3   102  C102        0.1812
   2195  O5'       10.7580   35.4160    7.1780 O.3   102  C102       -0.3114
   2196  C4'       11.1860   37.3500    8.6080 C.3   102  C102        0.1773
   2197  O4'        9.8890   37.9360    8.3100 O.3   102  C102       -0.3307
   2198  C3'       10.9800   36.5960    9.9150 C.3   102  C102        0.1860
   2199  O3'       12.2150   36.4460   10.5860 O.3   102  C102       -0.3112
   2200  C2'       10.0220   37.5320   10.6440 C.3   102  C102        0.2309
   2201  O2'       10.6480   38.6590   11.2320 O.3   102  C102       -0.2156
   2202  C1'        9.1070   37.9580    9.4920 C.3   102  C102        0.2420
   2203  N1         7.9010   37.0660    9.3700 N.ar  102  C102       -0.2535
   2204  C2         6.8040   37.2840   10.2170 C.ar  102  C102        0.3532
   2205  O2         6.8400   38.2060   11.0370 O.2   102  C102       -0.2443
   2206  N3         5.7150   36.4770   10.1200 N.ar  102  C102       -0.1739
   2207  C4         5.6880   35.4850    9.2350 C.ar  102  C102        0.1759
   2208  N4         4.5870   34.7370    9.1900 N.pl3 102  C102       -0.1070
   2209  C5         6.7860   35.2370    8.3620 C.ar  102  C102        0.0566
   2210  C6         7.8560   36.0380    8.4670 C.ar  102  C102        0.0850
   2211  OP1       12.2390   34.2560    5.5460 O.2   102  C102       -0.5172
   2212  OP2        9.7480   33.6680    5.6910 O.co2 102  C102       -0.4373
   2213  P         12.5120   35.1720   11.5120 P.3   103  U103        0.2141
   2214  C5'       12.0110   36.4210   13.7290 C.3   103  U103        0.1812
   2215  O5'       11.5970   35.4470   12.7900 O.3   103  U103       -0.3114
   2216  C4'       11.0110   36.4550   14.8470 C.3   103  U103        0.1773
   2217  O4'        9.7270   36.7880   14.2760 O.3   103  U103       -0.3307
   2218  C3'       10.7480   35.0940   15.4490 C.3   103  U103        0.1860
   2219  O3'       11.7530   34.7580   16.3750 O.3   103  U103       -0.3112
   2220  C2'        9.3800   35.3170   16.0870 C.3   103  U103        0.2309
   2221  O2'        9.4230   36.0820   17.2790 O.3   103  U103       -0.2156
   2222  C1'        8.6970   36.1030   14.9750 C.3   103  U103        0.2420
   2223  N1         7.8830   35.2420   14.0380 N.ar  103  U103       -0.2534
   2224  C2         6.5800   34.9040   14.3890 C.ar  103  U103        0.3546
   2225  O2         6.0250   35.2630   15.4170 O.2   103  U103       -0.2443
   2226  N3         5.9270   34.1230   13.4670 N.ar  103  U103       -0.1530
   2227  C4         6.4210   33.6450   12.2660 C.ar  103  U103        0.2846
   2228  O4         5.7040   32.9490   11.5580 O.2   103  U103       -0.2650
   2229  C5         7.7770   34.0270   11.9680 C.ar  103  U103        0.0814
   2230  C6         8.4390   34.7950   12.8440 C.ar  103  U103        0.0870
   2231  OP1       13.9420   35.2120   11.9060 O.3   103  U103       -0.4373
   2232  OP2       11.9770   33.9720   10.8380 O.co2 103  U103       -0.5172
   2233  P         12.0410   33.2130   16.6800 P.3   104  C104        0.2141
   2234  C5'       10.5970   33.1770   18.8500 C.3   104  C104        0.1812
   2235  O5'       10.7450   32.7570   17.4950 O.3   104  C104       -0.3114
   2236  C4'        9.2920   32.6550   19.4040 C.3   104  C104        0.1773
   2237  O4'        8.1980   33.2080   18.6280 O.3   104  C104       -0.3307
   2238  C3'        9.1010   31.1560   19.2580 C.3   104  C104        0.1860
   2239  O3'        9.7590   30.4480   20.2830 O.3   104  C104       -0.3112
   2240  C2'        7.5840   31.0420   19.3400 C.3   104  C104        0.2309
   2241  O2'        7.0560   31.1590   20.6490 O.3   104  C104       -0.2156
   2242  C1'        7.1750   32.2360   18.4890 C.3   104  C104        0.2420
   2243  N1         6.9550   31.8260   17.0520 N.ar  104  C104       -0.2535
   2244  C2         5.7130   31.2650   16.7070 C.ar  104  C104        0.3532
   2245  O2         4.8380   31.1420   17.5830 O.2   104  C104       -0.2443
   2246  N3         5.4980   30.8790   15.4160 N.ar  104  C104       -0.1739
   2247  C4         6.4530   31.0330   14.4960 C.ar  104  C104        0.1759
   2248  N4         6.1820   30.6380   13.2520 N.pl3 104  C104       -0.1070
   2249  C5         7.7260   31.5960   14.8240 C.ar  104  C104        0.0566
   2250  C6         7.9310   31.9720   16.0970 C.ar  104  C104        0.0850
   2251  OP1       13.1980   33.1530   17.5960 O.3   104  C104       -0.4373
   2252  OP2       12.1150   32.4850   15.3920 O.co2 104  C104       -0.5172
   2253  P         10.2630   28.9570   20.0120 P.3   105  U105        0.2141
   2254  C5'        8.1630   27.8200   21.0580 C.3   105  U105        0.1812
   2255  O5'        8.9020   28.1320   19.8960 O.3   105  U105       -0.3114
   2256  C4'        6.8760   27.1020   20.7060 C.3   105  U105        0.1773
   2257  O4'        6.0870   27.8920   19.7800 O.3   105  U105       -0.3307
   2258  C3'        7.0550   25.7760   19.9930 C.3   105  U105        0.1860
   2259  O3'        7.3770   24.7610   20.9160 O.3   105  U105       -0.3112
   2260  C2'        5.6700   25.6190   19.3800 C.3   105  U105        0.2309
   2261  O2'        4.6690   25.2920   20.3150 O.3   105  U105       -0.2156
   2262  C1'        5.4300   27.0360   18.8640 C.3   105  U105        0.2420
   2263  N1         5.9820   27.1820   17.4740 N.ar  105  U105       -0.2534
   2264  C2         5.2410   26.6680   16.4150 C.ar  105  U105        0.3546
   2265  O2         4.1510   26.1310   16.5700 O.2   105  U105       -0.2443
   2266  N3         5.8290   26.8190   15.1700 N.ar  105  U105       -0.1530
   2267  C4         7.0600   27.4110   14.9050 C.ar  105  U105        0.2846
   2268  O4         7.4720   27.4840   13.7570 O.2   105  U105       -0.2650
   2269  C5         7.7750   27.9090   16.0580 C.ar  105  U105        0.0814
   2270  C6         7.2200   27.7810   17.2690 C.ar  105  U105        0.0870
   2271  OP1       10.9890   28.5090   21.2180 O.3   105  U105       -0.4373
   2272  OP2       10.9170   28.9060   18.6880 O.co2 105  U105       -0.5172
   2273  P          8.3300   23.5620   20.4670 P.3   106  G106        0.2141
   2274  C5'        6.2900   21.9670   20.7530 C.3   106  G106        0.1812
   2275  O5'        7.2810   22.5070   19.9060 O.3   106  G106       -0.3114
   2276  C4'        5.3010   21.2040   19.8980 C.3   106  G106        0.1773
   2277  O4'        4.6530   22.1280   18.9880 O.3   106  G106       -0.3307
   2278  C3'        5.8970   20.1660   18.9570 C.3   106  G106        0.1860
   2279  O3'        6.1950   18.9490   19.6150 O.3   106  G106       -0.3112
   2280  C2'        4.7440   20.0050   17.9820 C.3   106  G106        0.2309
   2281  O2'        3.6520   19.3140   18.5580 O.3   106  G106       -0.2156
   2282  C1'        4.4080   21.4710   17.7530 C.3   106  G106        0.2408
   2283  N1         5.1830   21.8540   12.7090 N.ar  106  G106       -0.1709
   2284  C2         4.2500   21.1050   13.3970 C.ar  106  G106        0.2606
   2285  N2         3.4130   20.3580   12.6620 N.pl3 106  G106       -0.0859
   2286  N3         4.1470   21.0900   14.7250 N.ar  106  G106       -0.1918
   2287  C4         5.0630   21.8940   15.3320 C.ar  106  G106        0.1723
   2288  C5         6.0310   22.6770   14.7360 C.ar  106  G106        0.1748
   2289  C6         6.1300   22.6890   13.3140 C.ar  106  G106        0.3023
   2290  O6         6.9290   23.3230   12.6020 O.2   106  G106       -0.2633
   2291  N7         6.7740   23.3500   15.7030 N.ar  106  G106       -0.2173
   2292  C8         6.2530   22.9730   16.8370 C.ar  106  G106        0.1817
   2293  N9         5.2080   22.0870   16.6900 N.ar  106  G106       -0.2693
   2294  OP1        8.9890   22.9950   21.6610 O.3   106  G106       -0.4373
   2295  OP2        9.1510   24.0050   19.3220 O.co2 106  G106       -0.5172
   2296  P          7.4080   18.0500   19.0830 P.3   107  C107        0.2141
   2297  C5'        5.7540   16.5760   17.6780 C.3   107  C107        0.1812
   2298  O5'        6.8570   17.4630   17.7090 O.3   107  C107       -0.3114
   2299  C4'        5.3800   16.3620   16.2300 C.3   107  C107        0.1773
   2300  O4'        5.2060   17.6460   15.5860 O.3   107  C107       -0.3307
   2301  C3'        6.4880   15.7630   15.3920 C.3   107  C107        0.1860
   2302  O3'        6.6450   14.3890   15.6300 O.3   107  C107       -0.3112
   2303  C2'        6.0420   16.1220   13.9750 C.3   107  C107        0.2309
   2304  O2'        5.0210   15.3040   13.4310 O.3   107  C107       -0.2156
   2305  C1'        5.5380   17.5390   14.2160 C.3   107  C107        0.2420
   2306  N1         6.5520   18.5780   13.8660 N.ar  107  C107       -0.2535
   2307  C2         6.7740   18.8600   12.5080 C.ar  107  C107        0.3532
   2308  O2         6.1370   18.2440   11.6420 O.2   107  C107       -0.2443
   2309  N3         7.6880   19.8050   12.1780 N.ar  107  C107       -0.1739
   2310  C4         8.3600   20.4520   13.1300 C.ar  107  C107        0.1759
   2311  N4         9.2400   21.3660   12.7200 N.pl3 107  C107       -0.1070
   2312  C5         8.1560   20.1880   14.5220 C.ar  107  C107        0.0566
   2313  C6         7.2490   19.2500   14.8390 C.ar  107  C107        0.0850
   2314  OP1        7.6010   16.9440   20.0430 O.3   107  C107       -0.4373
   2315  OP2        8.5370   18.9390   18.7340 O.co2 107  C107       -0.5172
   2316  P          8.1240   13.8020   15.5040 P.3   108  A108        0.2141
   2317  C5'        7.6100   13.0350   13.0450 C.3   108  A108        0.1812
   2318  O5'        8.3710   13.8480   13.9200 O.3   108  A108       -0.3114
   2319  C4'        7.9550   13.3130   11.5950 C.3   108  A108        0.1773
   2320  O4'        7.6400   14.6840   11.2310 O.3   108  A108       -0.3307
   2321  C3'        9.4200   13.1640   11.2140 C.3   108  A108        0.1860
   2322  O3'        9.7390   11.8050   11.0250 O.3   108  A108       -0.3112
   2323  C2'        9.4130   13.9050    9.8860 C.3   108  A108        0.2309
   2324  O2'        8.8670   13.1060    8.8490 O.3   108  A108       -0.2156
   2325  C1'        8.5400   15.1140   10.2220 C.3   108  A108        0.2408
   2326  N1        11.5410   19.1610    9.0840 N.ar  108  A108       -0.2040
   2327  C2        10.9370   18.2490    8.3110 C.ar  108  A108        0.2016
   2328  N3        10.1700   17.2190    8.6720 N.ar  108  A108       -0.2048
   2329  C4        10.0370   17.1640   10.0040 C.ar  108  A108        0.1692
   2330  C5        10.5960   18.0340   10.9290 C.ar  108  A108        0.1518
   2331  C6        11.3890   19.0860   10.4200 C.ar  108  A108        0.1919
   2332  N6        11.9930   19.9990   11.1810 N.pl3 108  A108       -0.1054
   2333  N7        10.2450   17.6710   12.2160 N.ar  108  A108       -0.2193
   2334  C8         9.4910   16.6110   12.0420 C.ar  108  A108        0.1816
   2335  N9         9.3180   16.2460   10.7320 N.ar  108  A108       -0.2693
   2336  OP1        8.0780   12.4040   15.9820 O.2   108  A108       -0.5172
   2337  OP2        9.0820   14.7380   16.1350 O.co2 108  A108       -0.4373
   2338  P         11.2320   11.2630   11.1970 P.3   109  U109        0.2141
   2339  C5'       11.8560   11.6570    8.6170 C.3   109  U109        0.1812
   2340  O5'       12.0310   11.9990   10.0090 O.3   109  U109       -0.3114
   2341  C4'       12.6380   12.5800    7.6850 C.3   109  U109        0.1773
   2342  O4'       12.2070   13.9560    7.8730 O.3   109  U109       -0.3307
   2343  C3'       14.1520   12.6330    7.8910 C.3   109  U109        0.1860
   2344  O3'       14.8070   11.6320    7.1350 O.3   109  U109       -0.3112
   2345  C2'       14.5320   14.0320    7.4070 C.3   109  U109        0.2309
   2346  O2'       14.6950   14.1250    6.0000 O.3   109  U109       -0.2156
   2347  C1'       13.3190   14.8400    7.8550 C.3   109  U109        0.2420
   2348  N1        13.4780   15.5140    9.1930 N.ar  109  U109       -0.2534
   2349  C2        14.1670   16.7130    9.2630 C.ar  109  U109        0.3546
   2350  O2        14.6670   17.2520    8.2940 O.2   109  U109       -0.2443
   2351  N3        14.2600   17.2700   10.5180 N.ar  109  U109       -0.1530
   2352  C4        13.7370   16.7600   11.6960 C.ar  109  U109        0.2846
   2353  O4        13.8970   17.3680   12.7500 O.2   109  U109       -0.2650
   2354  C5        13.0290   15.5100   11.5490 C.ar  109  U109        0.0814
   2355  C6        12.9300   14.9500   10.3340 C.ar  109  U109        0.0870
   2356  OP1       11.1640    9.8040   10.9370 O.2   109  U109       -0.5172
   2357  OP2       11.7650   11.7340   12.4980 O.co2 109  U109       -0.4373
   2358  P         15.2910   10.3000    7.8680 P.3   110  G110        0.2141
   2359  C5'       17.7200   10.5760    6.8810 C.3   110  G110        0.1812
   2360  O5'       16.8740   10.4480    8.0170 O.3   110  G110       -0.3114
   2361  C4'       18.6930   11.7010    7.1720 C.3   110  G110        0.1773
   2362  O4'       19.1730   11.5010    8.5240 O.3   110  G110       -0.3307
   2363  C3'       19.9020   11.8250    6.2460 C.3   110  G110        0.1860
   2364  O3'       19.7180   12.9200    5.3280 O.3   110  G110       -0.3112
   2365  C2'       21.0730   12.0840    7.2110 C.3   110  G110        0.2309
   2366  O2'       21.4330   13.4540    7.3250 O.3   110  G110       -0.2156
   2367  C1'       20.5800   11.6090    8.5850 C.3   110  G110        0.2408
   2368  N1        21.8720    6.7170    7.6360 N.ar  110  G110       -0.1709
   2369  C2        21.3840    7.6590    6.7590 C.ar  110  G110        0.2606
   2370  N2        21.2170    7.2630    5.4910 N.pl3 110  G110       -0.0859
   2371  N3        21.0800    8.9040    7.1040 N.ar  110  G110       -0.1918
   2372  C4        21.3060    9.1440    8.4250 C.ar  110  G110        0.1723
   2373  C5        21.7910    8.2670    9.3760 C.ar  110  G110        0.1748
   2374  C6        22.1110    6.9450    8.9900 C.ar  110  G110        0.3023
   2375  O6        22.5550    6.0330    9.6970 O.2   110  G110       -0.2633
   2376  N7        21.8860    8.8800   10.6200 N.ar  110  G110       -0.2173
   2377  C8        21.4610   10.0960   10.4090 C.ar  110  G110        0.1817
   2378  N9        21.0990   10.3350    9.1000 N.ar  110  G110       -0.2693
   2379  OP1       14.9930    9.1760    6.9420 O.2   110  G110       -0.5172
   2380  OP2       14.7660   10.3340    9.2540 O.co2 110  G110       -0.4373
   2381  P         18.6900   12.8860    4.0880 P.3   111  C111        0.2141
   2382  C5'       19.9260   14.6070    2.4680 C.3   111  C111        0.1812
   2383  O5'       18.8990   14.3250    3.4200 O.3   111  C111       -0.3114
   2384  C4'       20.3150   16.0740    2.5510 C.3   111  C111        0.1773
   2385  O4'       19.1840   16.8520    3.0190 O.3   111  C111       -0.3307
   2386  C3'       21.3880   16.3830    3.5740 C.3   111  C111        0.1860
   2387  O3'       22.6710   16.1330    3.0540 O.3   111  C111       -0.3112
   2388  C2'       21.1370   17.8630    3.8400 C.3   111  C111        0.2309
   2389  O2'       21.6150   18.7310    2.8340 O.3   111  C111       -0.2156
   2390  C1'       19.6150   17.8850    3.8850 C.3   111  C111        0.2420
   2391  N1        19.1150   17.6710    5.2800 N.ar  111  C111       -0.2535
   2392  C2        19.2020   18.7270    6.2080 C.ar  111  C111        0.3532
   2393  O2        19.6690   19.8180    5.8440 O.2   111  C111       -0.2443
   2394  N3        18.7620   18.5310    7.4810 N.ar  111  C111       -0.1739
   2395  C4        18.2610   17.3440    7.8310 C.ar  111  C111        0.1759
   2396  N4        17.8390   17.1900    9.0850 N.pl3 111  C111       -0.1070
   2397  C5        18.1680   16.2560    6.9110 C.ar  111  C111        0.0566
   2398  C6        18.6020   16.4600    5.6610 C.ar  111  C111        0.0850
   2399  OP1       17.2950   12.8470    4.5950 O.3   111  C111       -0.4373
   2400  OP2       19.1650   11.8560    3.1360 O.co2 111  C111       -0.5172
   2401  P         23.8300   15.6600    4.0480 P.3   112  C112        0.2141
   2402  C5'       24.8320   18.1000    4.0220 C.3   112  C112        0.1812
   2403  O5'       24.2680   17.0230    4.7530 O.3   112  C112       -0.3114
   2404  C4'       25.1170   19.2410    4.9720 C.3   112  C112        0.1773
   2405  O4'       23.8800   19.7080    5.5580 O.3   112  C112       -0.3307
   2406  C3'       25.9350   18.8550    6.1950 C.3   112  C112        0.1860
   2407  O3'       27.3120   18.8420    5.9070 O.3   112  C112       -0.3112
   2408  C2'       25.5960   19.9700    7.1650 C.3   112  C112        0.2309
   2409  O2'       26.2730   21.1630    6.8400 O.3   112  C112       -0.2156
   2410  C1'       24.1080   20.1260    6.8970 C.3   112  C112        0.2420
   2411  N1        23.2290   19.3650    7.8660 N.ar  112  C112       -0.2535
   2412  C2        22.9980   19.8870    9.1570 C.ar  112  C112        0.3532
   2413  O2        23.5270   20.9510    9.4890 O.2   112  C112       -0.2443
   2414  N3        22.1940   19.2120   10.0200 N.ar  112  C112       -0.1739
   2415  C4        21.6330   18.0620    9.6420 C.ar  112  C112        0.1759
   2416  N4        20.8560   17.4360   10.5270 N.pl3 112  C112       -0.1070
   2417  C5        21.8450   17.5060    8.3400 C.ar  112  C112        0.0566
   2418  C6        22.6360   18.1840    7.4950 C.ar  112  C112        0.0850
   2419  OP1       24.9490   15.1620    3.2240 O.2   112  C112       -0.5172
   2420  OP2       23.2440   14.7910    5.0910 O.co2 112  C112       -0.4373
   2421  P         28.2170   17.8050    6.7080 P.3   113  U113        0.2141
   2422  C5'       29.2040   19.5100    8.4570 C.3   113  U113        0.1812
   2423  O5'       28.2890   18.4710    8.1660 O.3   113  U113       -0.3114
   2424  C4'       28.8830   20.1380    9.7950 C.3   113  U113        0.1773
   2425  O4'       27.4530   20.2940    9.9280 O.3   113  U113       -0.3307
   2426  C3'       29.2210   19.2910   11.0080 C.3   113  U113        0.1860
   2427  O3'       30.6140   19.3080   11.3030 O.3   113  U113       -0.3112
   2428  C2'       28.3930   19.9890   12.0840 C.3   113  U113        0.2309
   2429  O2'       28.9880   21.1550   12.6120 O.3   113  U113       -0.2156
   2430  C1'       27.1270   20.3420   11.3070 C.3   113  U113        0.2420
   2431  N1        26.0380   19.3700   11.6250 N.ar  113  U113       -0.2534
   2432  C2        25.3920   19.4860   12.8440 C.ar  113  U113        0.3546
   2433  O2        25.6560   20.3480   13.6550 O.2   113  U113       -0.2443
   2434  N3        24.4140   18.5550   13.0760 N.ar  113  U113       -0.1530
   2435  C4        24.0340   17.5360   12.2250 C.ar  113  U113        0.2846
   2436  O4        23.1400   16.7810   12.5730 O.2   113  U113       -0.2650
   2437  C5        24.7530   17.4600   10.9730 C.ar  113  U113        0.0814
   2438  C6        25.7090   18.3660   10.7210 C.ar  113  U113        0.0870
   2439  OP1       29.5600   17.7800    6.0750 O.2   113  U113       -0.5172
   2440  OP2       27.4440   16.5510    6.8690 O.co2 113  U113       -0.4373
   2441  P         31.5710   18.0480   11.0290 P.3   114  G114        0.2141
   2442  C5'       30.4810   16.5980   12.9430 C.3   114  G114        0.1812
   2443  O5'       31.5920   17.3030   12.4400 O.3   114  G114       -0.3114
   2444  C4'       30.6900   16.3870   14.4260 C.3   114  G114        0.1773
   2445  O4'       31.9110   15.6370   14.6420 O.3   114  G114       -0.3307
   2446  C3'       30.9210   17.6590   15.2200 C.3   114  G114        0.1860
   2447  O3'       29.6980   18.2930   15.5420 O.3   114  G114       -0.3112
   2448  C2'       31.6230   17.1040   16.4530 C.3   114  G114        0.2309
   2449  O2'       30.7420   16.4760   17.3730 O.3   114  G114       -0.2156
   2450  C1'       32.5750   16.1020   15.8030 C.3   114  G114        0.2408
   2451  N1        36.8980   18.3090   17.4430 N.ar  114  G114       -0.1709
   2452  C2        35.8330   17.8560   18.1870 C.ar  114  G114        0.2606
   2453  N2        35.9220   18.0030   19.5230 N.pl3 114  G114       -0.0859
   2454  N3        34.7570   17.2970   17.6410 N.ar  114  G114       -0.1918
   2455  C4        34.8240   17.2200   16.2810 C.ar  114  G114        0.1723
   2456  C5        35.8470   17.6440   15.4630 C.ar  114  G114        0.1748
   2457  C6        36.9890   18.2440   16.0540 C.ar  114  G114        0.3023
   2458  O6        37.9990   18.6880   15.4940 O.2   114  G114       -0.2633
   2459  N7        35.5470   17.3910   14.1300 N.ar  114  G114       -0.2173
   2460  C8        34.3720   16.8290   14.1600 C.ar  114  G114        0.1817
   2461  N9        33.8670   16.6880   15.4290 N.ar  114  G114       -0.2693
   2462  OP1       32.9220   18.6260   10.8730 O.3   114  G114       -0.4373
   2463  OP2       31.0030   17.1470    9.9810 O.co2 114  G114       -0.5172
   2464  P         29.6670   19.8800   15.7240 P.3   115  G115        0.2141
   2465  C5'       30.0700   19.6650   18.3120 C.3   115  G115        0.1812
   2466  O5'       30.5370   20.1140   17.0460 O.3   115  G115       -0.3114
   2467  C4'       31.0000   20.1020   19.4270 C.3   115  G115        0.1773
   2468  O4'       32.3120   19.5080   19.2600 O.3   115  G115       -0.3307
   2469  C3'       31.2730   21.5880   19.4660 C.3   115  G115        0.1860
   2470  O3'       30.2530   22.2100   20.1940 O.3   115  G115       -0.3112
   2471  C2'       32.5990   21.6310   20.2000 C.3   115  G115        0.2309
   2472  O2'       32.4280   21.3940   21.5880 O.3   115  G115       -0.2156
   2473  C1'       33.3190   20.4530   19.5620 C.3   115  G115        0.2408
   2474  N1        37.5910   22.4900   17.6000 N.ar  115  G115       -0.1709
   2475  C2        37.1840   22.4110   18.9030 C.ar  115  G115        0.2606
   2476  N2        38.0240   22.9430   19.7970 N.pl3 115  G115       -0.0859
   2477  N3        36.0450   21.8580   19.3020 N.ar  115  G115       -0.1918
   2478  C4        35.3200   21.3720   18.2690 C.ar  115  G115        0.1723
   2479  C5        35.6420   21.4010   16.9310 C.ar  115  G115        0.1748
   2480  C6        36.8640   21.9980   16.5280 C.ar  115  G115        0.3023
   2481  O6        37.3330   22.1240   15.3920 O.2   115  G115       -0.2633
   2482  N7        34.6420   20.7980   16.1770 N.ar  115  G115       -0.2173
   2483  C8        33.7540   20.4240   17.0570 C.ar  115  G115        0.1817
   2484  N9        34.0930   20.7440   18.3520 N.ar  115  G115       -0.2693
   2485  OP1       28.2570   20.2570   15.9610 O.3   115  G115       -0.4373
   2486  OP2       30.4100   20.4960   14.5980 O.co2 115  G115       -0.5172
   2487  P         29.9080   23.7260   19.8500 P.3   116  G116        0.2141
   2488  C5'       31.0450   24.9130   21.8840 C.3   116  G116        0.1812
   2489  O5'       31.0950   24.5620   20.5090 O.3   116  G116       -0.3114
   2490  C4'       32.3820   25.4830   22.3050 C.3   116  G116        0.1773
   2491  O4'       33.4540   24.5710   21.9340 O.3   116  G116       -0.3307
   2492  C3'       32.7760   26.7770   21.6110 C.3   116  G116        0.1860
   2493  O3'       32.1540   27.9230   22.1660 O.3   116  G116       -0.3112
   2494  C2'       34.2820   26.7740   21.8330 C.3   116  G116        0.2309
   2495  O2'       34.6440   27.1830   23.1440 O.3   116  G116       -0.2156
   2496  C1'       34.5970   25.3060   21.5310 C.3   116  G116        0.2408
   2497  N1        37.7740   26.1450   17.6370 N.ar  116  G116       -0.1709
   2498  C2        37.9460   26.4110   18.9790 C.ar  116  G116        0.2606
   2499  N2        39.1070   26.9790   19.3250 N.pl3 116  G116       -0.0859
   2500  N3        37.0440   26.1410   19.9160 N.ar  116  G116       -0.1918
   2501  C4        35.9290   25.5710   19.3890 C.ar  116  G116        0.1723
   2502  C5        35.6650   25.2680   18.0680 C.ar  116  G116        0.1748
   2503  C6        36.6380   25.5600   17.0780 C.ar  116  G116        0.3023
   2504  O6        36.5830   25.3580   15.8510 O.2   116  G116       -0.2633
   2505  N7        34.4120   24.6860   17.9410 N.ar  116  G116       -0.2173
   2506  C8        33.9500   24.6580   19.1570 C.ar  116  G116        0.1817
   2507  N9        34.8170   25.1660   20.0930 N.ar  116  G116       -0.2693
   2508  OP1       28.6720   24.0520   20.5970 O.3   116  G116       -0.4373
   2509  OP2       29.9870   23.8990   18.3820 O.co2 116  G116       -0.5172
   2510  P         31.8330   29.1350   21.1720 P.3   117  G117        0.2141
   2511  C5'       34.0730   30.3350   21.8550 C.3   117  G117        0.1812
   2512  O5'       33.3050   29.6840   20.8210 O.3   117  G117       -0.3114
   2513  C4'       35.5330   30.5710   21.5020 C.3   117  G117        0.1773
   2514  O4'       36.1260   29.3950   20.9020 O.3   117  G117       -0.3307
   2515  C3'       35.7750   31.6660   20.4850 C.3   117  G117        0.1860
   2516  O3'       35.7860   32.9030   21.1320 O.3   117  G117       -0.3112
   2517  C2'       37.1660   31.3050   20.0000 C.3   117  G117        0.2309
   2518  O2'       38.1850   31.6610   20.9130 O.3   117  G117       -0.2156
   2519  C1'       37.0460   29.7900   19.9060 C.3   117  G117        0.2408
   2520  N1        38.0350   29.4170   14.9190 N.ar  117  G117       -0.1709
   2521  C2        38.8340   29.9010   15.9270 C.ar  117  G117        0.2606
   2522  N2        40.0440   30.3400   15.5510 N.pl3 117  G117       -0.0859
   2523  N3        38.4680   29.9510   17.2060 N.ar  117  G117       -0.1918
   2524  C4        37.2170   29.4670   17.3990 C.ar  117  G117        0.1723
   2525  C5        36.3450   28.9650   16.4610 C.ar  117  G117        0.1748
   2526  C6        36.7450   28.9190   15.1020 C.ar  117  G117        0.3023
   2527  O6        36.1030   28.5040   14.1260 O.2   117  G117       -0.2633
   2528  N7        35.1580   28.5640   17.0550 N.ar  117  G117       -0.2173
   2529  C8        35.3270   28.8300   18.3160 C.ar  117  G117        0.1817
   2530  N9        36.5530   29.3760   18.5980 N.ar  117  G117       -0.2693
   2531  OP1       31.0490   30.1510   21.9180 O.3   117  G117       -0.4373
   2532  OP2       31.2760   28.5760   19.9240 O.co2 117  G117       -0.5172
   2533  P         34.9980   34.1520   20.5250 P.3   118  G118        0.2141
   2534  C5'       37.4620   35.1060   20.2490 C.3   118  G118        0.1812
   2535  O5'       36.1240   34.9990   19.7660 O.3   118  G118       -0.3114
   2536  C4'       38.4450   35.2550   19.0990 C.3   118  G118        0.1773
   2537  O4'       38.6710   33.9760   18.4590 O.3   118  G118       -0.3307
   2538  C3'       37.9880   36.1510   17.9610 C.3   118  G118        0.1860
   2539  O3'       38.2370   37.5090   18.2660 O.3   118  G118       -0.3112
   2540  C2'       38.8240   35.6470   16.7870 C.3   118  G118        0.2309
   2541  O2'       40.1420   36.1620   16.7330 O.3   118  G118       -0.2156
   2542  C1'       38.8510   34.1520   17.0640 C.3   118  G118        0.2408
   2543  N1        37.3350   32.2340   12.5850 N.ar  118  G118       -0.1709
   2544  C2        38.4980   32.9040   12.8930 C.ar  118  G118        0.2606
   2545  N2        39.3730   33.0910   11.8910 N.pl3 118  G118       -0.0859
   2546  N3        38.7820   33.3610   14.1110 N.ar  118  G118       -0.1918
   2547  C4        37.7960   33.0950   15.0100 C.ar  118  G118        0.1723
   2548  C5        36.6060   32.4360   14.7940 C.ar  118  G118        0.1748
   2549  C6        36.3170   31.9540   13.4930 C.ar  118  G118        0.3023
   2550  O6        35.3100   31.3520   13.1070 O.2   118  G118       -0.2633
   2551  N7        35.8630   32.3660   15.9690 N.ar  118  G118       -0.2173
   2552  C8        36.6070   32.9720   16.8520 C.ar  118  G118        0.1817
   2553  N9        37.7970   33.4380   16.3450 N.ar  118  G118       -0.2693
   2554  OP1       34.5130   34.9250   21.6910 O.3   118  G118       -0.4373
   2555  OP2       34.0510   33.6800   19.4840 O.co2 118  G118       -0.5172
   2556  P         37.0910   38.5950   18.0000 P.3   119  U119        0.2141
   2557  C5'       37.9470   39.5650   15.7590 C.3   119  U119        0.1812
   2558  O5'       37.0360   38.7000   16.4070 O.3   119  U119       -0.3114
   2559  C4'       38.2630   39.0930   14.3540 C.3   119  U119        0.1773
   2560  O4'       38.3490   37.6490   14.2620 O.3   119  U119       -0.3307
   2561  C3'       37.2110   39.4360   13.3200 C.3   119  U119        0.1860
   2562  O3'       37.2050   40.8240   13.0590 O.3   119  U119       -0.3112
   2563  C2'       37.7370   38.5810   12.1770 C.3   119  U119        0.2309
   2564  O2'       38.9360   39.0690   11.6090 O.3   119  U119       -0.2156
   2565  C1'       38.0130   37.2820   12.9360 C.3   119  U119        0.2420
   2566  N1        36.8370   36.3470   12.9450 N.ar  119  U119       -0.2534
   2567  C2        36.5170   35.6500   11.7890 C.ar  119  U119        0.3546
   2568  O2        37.1430   35.7440   10.7450 O.2   119  U119       -0.2443
   2569  N3        35.4160   34.8230   11.9040 N.ar  119  U119       -0.1530
   2570  C4        34.6210   34.6270   13.0270 C.ar  119  U119        0.2846
   2571  O4        33.6720   33.8490   12.9760 O.2   119  U119       -0.2650
   2572  C5        35.0170   35.3860   14.1870 C.ar  119  U119        0.0814
   2573  C6        36.0830   36.1940   14.1010 C.ar  119  U119        0.0870
   2574  OP1       37.5670   39.8700   18.5810 O.3   119  U119       -0.4373
   2575  OP2       35.7900   38.0210   18.4190 O.co2 119  U119       -0.5172
   2576  P         35.8060   41.5760   12.8430 P.3   120  A120        0.2141
   2577  C5'       36.1430   41.4700   10.2300 C.3   120  A120        0.1812
   2578  O5'       35.3770   41.1030   11.3730 O.3   120  A120       -0.3114
   2579  C4'       35.6210   40.7580    9.0030 C.3   120  A120        0.1773
   2580  O4'       35.7010   39.3260    9.1990 O.3   120  A120       -0.3307
   2581  C3'       34.1440   40.9720    8.7390 C.3   120  A120        0.1860
   2582  O3'       33.8810   42.2010    8.1190 O.3   120  A120       -0.3112
   2583  C2'       33.8250   39.7970    7.8280 C.3   120  A120        0.2309
   2584  O2'       34.2230   40.0100    6.4870 O.3   120  A120       -0.2156
   2585  C1'       34.6300   38.6960    8.5130 C.3   120  A120        0.2408
   2586  N1        31.3040   34.7900    9.1600 N.ar  120  A120       -0.2040
   2587  C2        31.9210   35.2560    8.0630 C.ar  120  A120        0.2016
   2588  N3        32.7760   36.2790    7.9720 N.ar  120  A120       -0.2048
   2589  C4        32.9920   36.8650    9.1730 C.ar  120  A120        0.1692
   2590  C5        32.4290   36.4920   10.3800 C.ar  120  A120        0.1518
   2591  C6        31.5390   35.3920   10.3490 C.ar  120  A120        0.1919
   2592  N6        30.9180   34.9200   11.4280 N.pl3 120  A120       -0.1054
   2593  N7        32.8760   37.3130   11.4000 N.ar  120  A120       -0.2193
   2594  C8        33.6890   38.1530   10.8030 C.ar  120  A120        0.1816
   2595  N9        33.8110   37.9390    9.4610 N.ar  120  A120       -0.2693
   2596  OP1       36.0610   43.0360   12.8340 O.2   120  A120       -0.5172
   2597  OP2       34.8110   41.0200   13.7840 O.co2 120  A120       -0.4373
   2598  P         32.5460   42.9670    8.5460 P.3   121  U121        0.2141
   2599  C5'       31.4510   42.2250    6.2630 C.3   121  U121        0.1812
   2600  O5'       31.4050   42.2540    7.6830 O.3   121  U121       -0.3114
   2601  C4'       30.7030   41.0160    5.7380 C.3   121  U121        0.1773
   2602  O4'       31.1500   39.8270    6.4350 O.3   121  U121       -0.3307
   2603  C3'       29.2080   41.0360    6.0000 C.3   121  U121        0.1860
   2604  O3'       28.5470   41.7970    5.0200 O.3   121  U121       -0.3112
   2605  C2'       28.8630   39.5550    5.9070 C.3   121  U121        0.2309
   2606  O2'       28.7680   39.0830    4.5760 O.3   121  U121       -0.2156
   2607  C1'       30.0670   38.9270    6.6090 C.3   121  U121        0.2420
   2608  N1        29.8300   38.6290    8.0760 N.ar  121  U121       -0.2534
   2609  C2        29.0780   37.5150    8.4210 C.ar  121  U121        0.3546
   2610  O2        28.5930   36.7550    7.5930 O.2   121  U121       -0.2443
   2611  N3        28.9110   37.3180    9.7810 N.ar  121  U121       -0.1530
   2612  C4        29.4080   38.1040   10.8070 C.ar  121  U121        0.2846
   2613  O4        29.1720   37.8080   11.9730 O.2   121  U121       -0.2650
   2614  C5        30.1770   39.2400   10.3750 C.ar  121  U121        0.0814
   2615  C6        30.3540   39.4530    9.0610 C.ar  121  U121        0.0870
   2616  OP1       32.7270   44.3650    8.0940 O.2   121  U121       -0.5172
   2617  OP2       32.2240   42.6650    9.9610 O.co2 121  U121       -0.4373
   2618  P         27.3350   42.7470    5.4510 P.3   122  G122        0.2141
   2619  C5'       25.2910   41.2320    4.7870 C.3   122  G122        0.1812
   2620  O5'       26.1660   41.7150    5.8010 O.3   122  G122       -0.3114
   2621  C4'       24.6150   39.9630    5.2570 C.3   122  G122        0.1773
   2622  O4'       25.5730   39.1570    5.9800 O.3   122  G122       -0.3307
   2623  C3'       23.5300   40.1480    6.2990 C.3   122  G122        0.1860
   2624  O3'       22.3210   40.5620    5.7270 O.3   122  G122       -0.3112
   2625  C2'       23.4120   38.7310    6.8340 C.3   122  G122        0.2309
   2626  O2'       22.7450   37.8350    5.9620 O.3   122  G122       -0.2156
   2627  C1'       24.8840   38.3590    6.9270 C.3   122  G122        0.2408
   2628  N1        24.7620   36.4330   11.5990 N.ar  122  G122       -0.1709
   2629  C2        24.1160   36.0390   10.4430 C.ar  122  G122        0.2606
   2630  N2        23.3160   34.9720   10.5070 N.pl3 122  G122       -0.0859
   2631  N3        24.2440   36.6500    9.2770 N.ar  122  G122       -0.1918
   2632  C4        25.0850   37.7120    9.3410 C.ar  122  G122        0.1723
   2633  C5        25.7740   38.1970   10.4300 C.ar  122  G122        0.1748
   2634  C6        25.6280   37.5280   11.6830 C.ar  122  G122        0.3023
   2635  O6        26.1570   37.7950   12.7730 O.2   122  G122       -0.2633
   2636  N7        26.5240   39.3080   10.0580 N.ar  122  G122       -0.2173
   2637  C8        26.2740   39.4630    8.7850 C.ar  122  G122        0.1817
   2638  N9        25.4070   38.5240    8.2840 N.ar  122  G122       -0.2693
   2639  OP1       26.9660   43.5530    4.2600 O.2   122  G122       -0.5172
   2640  OP2       27.6920   43.4210    6.7170 O.co2 122  G122       -0.4373
   2641  P         21.2950   41.3950    6.6260 P.3   123  G123        0.2141
   2642  C5'       19.3920   39.6440    6.8680 C.3   123  G123        0.1812
   2643  O5'       20.5060   40.2850    7.4650 O.3   123  G123       -0.3114
   2644  C4'       18.9740   38.4190    7.6520 C.3   123  G123        0.1773
   2645  O4'       20.1220   37.6580    8.0940 O.3   123  G123       -0.3307
   2646  C3'       18.2870   38.7490    8.9540 C.3   123  G123        0.1860
   2647  O3'       16.9540   39.1260    8.7300 O.3   123  G123       -0.3112
   2648  C2'       18.4110   37.4440    9.7150 C.3   123  G123        0.2309
   2649  O2'       17.5360   36.4460    9.2250 O.3   123  G123       -0.2156
   2650  C1'       19.8700   37.1320    9.3880 C.3   123  G123        0.2408
   2651  N1        21.6530   36.9810   14.1890 N.ar  123  G123       -0.1709
   2652  C2        20.6190   36.2770   13.6110 C.ar  123  G123        0.2606
   2653  N2        19.9590   35.4080   14.3850 N.pl3 123  G123       -0.0859
   2654  N3        20.2500   36.4020   12.3440 N.ar  123  G123       -0.1918
   2655  C4        20.9980   37.3130   11.6720 C.ar  123  G123        0.1723
   2656  C5        22.0450   38.0720   12.1560 C.ar  123  G123        0.1748
   2657  C6        22.4340   37.9200   13.5110 C.ar  123  G123        0.3023
   2658  O6        23.3440   38.5130   14.1020 O.2   123  G123       -0.2633
   2659  N7        22.5630   38.8900   11.1620 N.ar  123  G123       -0.2173
   2660  C8        21.8260   38.6170   10.1170 C.ar  123  G123        0.1817
   2661  N9        20.8510   37.6700   10.3460 N.ar  123  G123       -0.2693
   2662  OP1       20.3590   42.0380    5.6750 O.2   123  G123       -0.5172
   2663  OP2       22.0540   42.2120    7.6040 O.co2 123  G123       -0.4373
   2664  P         16.5050   40.4280    9.5200 P.3   124  G124        0.2141
   2665  C5'       15.2180   39.0310   11.2730 C.3   124  G124        0.1812
   2666  O5'       16.3250   39.8740   11.0100 O.3   124  G124       -0.3114
   2667  C4'       15.3630   38.3110   12.5880 C.3   124  G124        0.1773
   2668  O4'       16.7440   37.9280   12.7640 O.3   124  G124       -0.3307
   2669  C3'       15.1010   39.1760   13.8090 C.3   124  G124        0.1860
   2670  O3'       13.7080   39.3410   14.0420 O.3   124  G124       -0.3112
   2671  C2'       15.7580   38.3300   14.8860 C.3   124  G124        0.2309
   2672  O2'       14.9470   37.2510   15.3020 O.3   124  G124       -0.2156
   2673  C1'       17.0020   37.8180   14.1570 C.3   124  G124        0.2408
   2674  N1        20.2280   38.9240   17.9420 N.ar  124  G124       -0.1709
   2675  C2        19.0960   38.1430   17.9340 C.ar  124  G124        0.2606
   2676  N2        18.7450   37.5500   19.0820 N.pl3 124  G124       -0.0859
   2677  N3        18.3420   37.9390   16.8670 N.ar  124  G124       -0.1918
   2678  C4        18.8020   38.5840   15.7670 C.ar  124  G124        0.1723
   2679  C5        19.9120   39.3880   15.6630 C.ar  124  G124        0.1748
   2680  C6        20.7150   39.5920   16.8240 C.ar  124  G124        0.3023
   2681  O6        21.7430   40.2640   16.9440 O.2   124  G124       -0.2633
   2682  N7        20.0350   39.8670   14.3640 N.ar  124  G124       -0.2173
   2683  C8        19.0170   39.3460   13.7310 C.ar  124  G124        0.1817
   2684  N9        18.2210   38.5520   14.5210 N.ar  124  G124       -0.2693
   2685  OP1       15.2090   40.8620    8.9560 O.2   124  G124       -0.5172
   2686  OP2       17.6640   41.3460    9.5190 O.co2 124  G124       -0.4373
   2687  P         13.0710   40.8040   14.2490 P.3   125  G125        0.2141
   2688  C5'       13.4090   40.7480   16.8590 C.3   125  G125        0.1812
   2689  O5'       13.7610   41.3160   15.6070 O.3   125  G125       -0.3114
   2690  C4'       14.4550   41.0380   17.9240 C.3   125  G125        0.1773
   2691  O4'       15.7490   40.4920   17.5660 O.3   125  G125       -0.3307
   2692  C3'       14.7620   42.4980   18.2150 C.3   125  G125        0.1860
   2693  O3'       13.7300   43.0530   19.0000 O.3   125  G125       -0.3112
   2694  C2'       16.0760   42.3450   18.9820 C.3   125  G125        0.2309
   2695  O2'       15.9580   41.8180   20.2960 O.3   125  G125       -0.2156
   2696  C1'       16.7720   41.3090   18.1120 C.3   125  G125        0.2408
   2697  N1        21.1600   43.5190   16.7660 N.ar  125  G125       -0.1709
   2698  C2        20.7820   43.0230   17.9980 C.ar  125  G125        0.2606
   2699  N2        21.6900   43.1270   18.9830 N.pl3 125  G125       -0.0859
   2700  N3        19.6010   42.4570   18.2360 N.ar  125  G125       -0.1918
   2701  C4        18.8170   42.4340   17.1260 C.ar  125  G125        0.1723
   2702  C5        19.1100   42.9020   15.8580 C.ar  125  G125        0.1748
   2703  C6        20.3730   43.4960   15.6130 C.ar  125  G125        0.3023
   2704  O6        20.8090   43.9710   14.5540 O.2   125  G125       -0.2633
   2705  N7        18.0460   42.6950   14.9940 N.ar  125  G125       -0.2173
   2706  C8        17.1470   42.1160   15.7360 C.ar  125  G125        0.1817
   2707  N9        17.5440   41.9230   17.0400 N.ar  125  G125       -0.2693
   2708  OP1       11.6170   40.6600   14.5100 O.3   125  G125       -0.4373
   2709  OP2       13.5180   41.6500   13.1100 O.co2 125  G125       -0.5172
   2710  P         12.7130   44.1360   18.4060 P.3   126  A126        0.2141
   2711  C5'       13.7390   46.4500   17.8590 C.3   126  A126        0.1812
   2712  O5'       13.4020   45.5060   18.8470 O.3   126  A126       -0.3114
   2713  C4'       14.4880   47.5830   18.5060 C.3   126  A126        0.1773
   2714  O4'       14.0190   47.7280   19.8620 O.3   126  A126       -0.3307
   2715  C3'       15.9780   47.3460   18.6550 C.3   126  A126        0.1860
   2716  O3'       16.6350   47.7230   17.4590 O.3   126  A126       -0.3112
   2717  C2'       16.3040   48.3120   19.7770 C.3   126  A126        0.2309
   2718  O2'       16.3340   49.6490   19.3350 O.3   126  A126       -0.2156
   2719  C1'       15.0980   48.1220   20.6860 C.3   126  A126        0.2408
   2720  N1        17.8700   46.6090   24.7720 N.ar  126  A126       -0.2040
   2721  C2        18.0350   47.6360   23.9250 C.ar  126  A126        0.2016
   2722  N3        17.2760   47.9720   22.8850 N.ar  126  A126       -0.2048
   2723  C4        16.2450   47.1160   22.7330 C.ar  126  A126        0.1692
   2724  C5        15.9530   46.0180   23.5230 C.ar  126  A126        0.1518
   2725  C6        16.8260   45.7670   24.6030 C.ar  126  A126        0.1919
   2726  N6        16.6770   44.7460   25.4500 N.pl3 126  A126       -0.1054
   2727  N7        14.8170   45.3690   23.0700 N.ar  126  A126       -0.2193
   2728  C8        14.4460   46.0740   22.0310 C.ar  126  A126        0.1816
   2729  N9        15.2620   47.1410   21.7640 N.ar  126  A126       -0.2693
   2730  OP1       11.4590   44.0380   19.1820 O.3   126  A126       -0.4373
   2731  OP2       12.6820   44.0460   16.9180 O.co2 126  A126       -0.5172
   2732  P         17.4740   46.6490   16.6160 P.3   127  A127        0.2141
   2733  C5'       19.4230   47.9790   17.6630 C.3   127  A127        0.1812
   2734  O5'       18.8860   46.7010   17.3490 O.3   127  A127       -0.3114
   2735  C4'       20.2580   47.8850   18.9170 C.3   127  A127        0.1773
   2736  O4'       19.4440   47.5330   20.0550 O.3   127  A127       -0.3307
   2737  C3'       21.2920   46.7890   18.8190 C.3   127  A127        0.1860
   2738  O3'       22.3550   47.3550   18.0710 O.3   127  A127       -0.3112
   2739  C2'       21.5750   46.5000   20.2930 C.3   127  A127        0.2309
   2740  O2'       22.5780   47.3310   20.8380 O.3   127  A127       -0.2156
   2741  C1'       20.2320   46.7940   20.9680 C.3   127  A127        0.2408
   2742  N1        19.3530   43.3990   24.7600 N.ar  127  A127       -0.2040
   2743  C2        20.2470   44.3880   24.6320 C.ar  127  A127        0.2016
   2744  N3        20.4190   45.2330   23.6120 N.ar  127  A127       -0.2048
   2745  C4        19.5440   44.9790   22.6240 C.ar  127  A127        0.1692
   2746  C5        18.5720   43.9900   22.6130 C.ar  127  A127        0.1518
   2747  C6        18.4870   43.1690   23.7560 C.ar  127  A127        0.1919
   2748  N6        17.6060   42.1730   23.9040 N.pl3 127  A127       -0.1054
   2749  N7        17.8510   44.0250   21.4370 N.ar  127  A127       -0.2193
   2750  C8        18.3990   45.0220   20.7740 C.ar  127  A127        0.1816
   2751  N9        19.4330   45.6460   21.4250 N.ar  127  A127       -0.2693
   2752  OP1       17.6560   47.1770   15.2440 O.2   127  A127       -0.5172
   2753  OP2       16.8820   45.3090   16.8140 O.co2 127  A127       -0.4373
   2754  P         23.6390   46.5560   17.5690 P.3   128  U128        0.2141
   2755  C5'       25.9510   46.7200   18.8540 C.3   128  U128        0.1812
   2756  O5'       24.5360   46.6110   18.8900 O.3   128  U128       -0.3114
   2757  C4'       26.4870   46.5830   20.2650 C.3   128  U128        0.1773
   2758  O4'       25.8200   47.5330   21.1290 O.3   128  U128       -0.3307
   2759  C3'       26.1920   45.2530   20.9410 C.3   128  U128        0.1860
   2760  O3'       27.1200   44.2620   20.5110 O.3   128  U128       -0.3112
   2761  C2'       26.3470   45.6130   22.4200 C.3   128  U128        0.2309
   2762  O2'       27.6790   45.4760   22.8700 O.3   128  U128       -0.2156
   2763  C1'       25.9540   47.0900   22.4700 C.3   128  U128        0.2420
   2764  N1        24.6950   47.4620   23.2290 N.ar  128  U128       -0.2534
   2765  C2        23.5830   46.6350   23.3040 C.ar  128  U128        0.3546
   2766  O2        23.5020   45.5380   22.7860 O.2   128  U128       -0.2443
   2767  N3        22.5230   47.1500   24.0190 N.ar  128  U128       -0.1530
   2768  C4        22.4550   48.3710   24.6680 C.ar  128  U128        0.2846
   2769  O4        21.4350   48.6870   25.2780 O.2   128  U128       -0.2650
   2770  C5        23.6440   49.1740   24.5470 C.ar  128  U128        0.0814
   2771  C6        24.6860   48.7010   23.8510 C.ar  128  U128        0.0870
   2772  OP1       24.2690   47.3780   16.5100 O.2   128  U128       -0.5172
   2773  OP2       23.2970   45.1380   17.3210 O.co2 128  U128       -0.4373
   2774  P         26.6970   42.7240   20.3670 P.3   129  A129        0.2141
   2775  C5'       27.1030   42.1710   22.8930 C.3   129  A129        0.1812
   2776  O5'       26.1800   42.3400   21.8210 O.3   129  A129       -0.3114
   2777  C4'       26.3810   42.0910   24.2250 C.3   129  A129        0.1773
   2778  O4'       25.2650   43.0200   24.2600 O.3   129  A129       -0.3307
   2779  C3'       25.7440   40.7390   24.5040 C.3   129  A129        0.1860
   2780  O3'       26.6840   39.8210   25.0290 O.3   129  A129       -0.3112
   2781  C2'       24.6540   41.1200   25.5000 C.3   129  A129        0.2309
   2782  O2'       25.1410   41.4280   26.7920 O.3   129  A129       -0.2156
   2783  C1'       24.1270   42.3870   24.8330 C.3   129  A129        0.2408
   2784  N1        19.5820   40.1830   23.6000 N.ar  129  A129       -0.2040
   2785  C2        20.2690   40.2150   24.7490 C.ar  129  A129        0.2016
   2786  N3        21.4390   40.8010   25.0150 N.ar  129  A129       -0.2048
   2787  C4        21.9270   41.4230   23.9230 C.ar  129  A129        0.1692
   2788  C5        21.3270   41.4780   22.6710 C.ar  129  A129        0.1518
   2789  C6        20.0870   40.8150   22.5140 C.ar  129  A129        0.1919
   2790  N6        19.3910   40.7920   21.3660 N.pl3 129  A129       -0.1054
   2791  N7        22.1040   42.2040   21.7900 N.ar  129  A129       -0.2193
   2792  C8        23.1400   42.5650   22.5080 C.ar  129  A129        0.1816
   2793  N9        23.1090   42.1340   23.8040 N.ar  129  A129       -0.2693
   2794  OP1       27.9290   41.9540   20.0980 O.3   129  A129       -0.4373
   2795  OP2       25.5550   42.6340   19.4320 O.co2 129  A129       -0.5172
   2796  P         27.0380   38.4810   24.2280 P.3   130  C130        0.2141
   2797  C5'       25.0360   37.0430   25.1750 C.3   130  C130        0.1812
   2798  O5'       25.6400   37.7210   24.0680 O.3   130  C130       -0.3114
   2799  C4'       23.6540   36.5080   24.8450 C.3   130  C130        0.1773
   2800  O4'       22.7620   37.6110   24.5580 O.3   130  C130       -0.3307
   2801  C3'       23.6030   35.6690   23.5850 C.3   130  C130        0.1860
   2802  O3'       23.8680   34.3200   23.8750 O.3   130  C130       -0.3112
   2803  C2'       22.1860   35.9090   23.0560 C.3   130  C130        0.2309
   2804  O2'       21.1460   35.1670   23.6710 O.3   130  C130       -0.2156
   2805  C1'       22.0370   37.3870   23.3560 C.3   130  C130        0.2420
   2806  N1        22.5290   38.2310   22.2070 N.ar  130  C130       -0.2535
   2807  C2        21.7450   38.3120   21.0470 C.ar  130  C130        0.3532
   2808  O2        20.6740   37.6950   21.0000 O.2   130  C130       -0.2443
   2809  N3        22.1800   39.0690   20.0020 N.ar  130  C130       -0.1739
   2810  C4        23.3480   39.7140   20.0850 C.ar  130  C130        0.1759
   2811  N4        23.7390   40.4410   19.0370 N.pl3 130  C130       -0.1070
   2812  C5        24.1670   39.6430   21.2510 C.ar  130  C130        0.0566
   2813  C6        23.7200   38.9000   22.2680 C.ar  130  C130        0.0850
   2814  OP1       27.9400   37.7060   25.1080 O.3   130  C130       -0.4373
   2815  OP2       27.4880   38.8150   22.8590 O.co2 130  C130       -0.5172
   2816  P         24.6250   33.4510   22.7780 P.3   131  C131        0.2141
   2817  C5'       22.3210   32.4290   22.1020 C.3   131  C131        0.1812
   2818  O5'       23.4780   33.1490   21.7070 O.3   131  C131       -0.3114
   2819  C4'       21.2840   32.4670   21.0090 C.3   131  C131        0.1773
   2820  O4'       20.8960   33.8360   20.7280 O.3   131  C131       -0.3307
   2821  C3'       21.8120   31.9800   19.6790 C.3   131  C131        0.1860
   2822  O3'       21.7700   30.5830   19.6370 O.3   131  C131       -0.3112
   2823  C2'       20.8320   32.6110   18.7100 C.3   131  C131        0.2309
   2824  O2'       19.6120   31.9120   18.6670 O.3   131  C131       -0.2156
   2825  C1'       20.6310   33.9790   19.3450 C.3   131  C131        0.2420
   2826  N1        21.5420   34.9920   18.7390 N.ar  131  C131       -0.2535
   2827  C2        21.2160   35.5100   17.4740 C.ar  131  C131        0.3532
   2828  O2        20.1840   35.1220   16.9160 O.2   131  C131       -0.2443
   2829  N3        22.0380   36.4290   16.9040 N.ar  131  C131       -0.1739
   2830  C4        23.1430   36.8200   17.5560 C.ar  131  C131        0.1759
   2831  N4        23.9250   37.7300   16.9650 N.pl3 131  C131       -0.1070
   2832  C5        23.5000   36.3020   18.8450 C.ar  131  C131        0.0566
   2833  C6        22.6770   35.4010   19.3960 C.ar  131  C131        0.0850
   2834  OP1       25.0470   32.1840   23.4210 O.3   131  C131       -0.4373
   2835  OP2       25.6150   34.3300   22.1170 O.co2 131  C131       -0.5172
   2836  P         22.9940   29.8620   18.9190 P.3   132  C132        0.2141
   2837  C5'       21.4130   29.5040   16.9060 C.3   132  C132        0.1812
   2838  O5'       22.6190   30.0680   17.3810 O.3   132  C132       -0.3114
   2839  C4'       21.1370   30.0410   15.5340 C.3   132  C132        0.1773
   2840  O4'       21.0470   31.4770   15.5810 O.3   132  C132       -0.3307
   2841  C3'       22.2890   29.8560   14.5840 C.3   132  C132        0.1860
   2842  O3'       22.3570   28.5250   14.1860 O.3   132  C132       -0.3112
   2843  C2'       21.8440   30.7960   13.4720 C.3   132  C132        0.2309
   2844  O2'       20.7540   30.3200   12.7030 O.3   132  C132       -0.2156
   2845  C1'       21.4370   31.9930   14.3250 C.3   132  C132        0.2420
   2846  N1        22.5540   32.9750   14.4910 N.ar  132  C132       -0.2535
   2847  C2        22.8500   33.8300   13.4290 C.ar  132  C132        0.3532
   2848  O2        22.1730   33.7530   12.3970 O.2   132  C132       -0.2443
   2849  N3        23.8600   34.7260   13.5630 N.ar  132  C132       -0.1739
   2850  C4        24.5620   34.7780   14.6950 C.ar  132  C132        0.1759
   2851  N4        25.5480   35.6750   14.7840 N.pl3 132  C132       -0.1070
   2852  C5        24.2820   33.9120   15.7910 C.ar  132  C132        0.0566
   2853  C6        23.2810   33.0350   15.6460 C.ar  132  C132        0.0850
   2854  OP1       22.9470   28.4100   19.2310 O.3   132  C132       -0.4373
   2855  OP2       24.2130   30.6700   19.1860 O.co2 132  C132       -0.5172
   2856  P         23.7450   27.9930   13.6440 P.3   133  A133        0.2141
   2857  C5'       22.9770   28.1590   11.2080 C.3   133  A133        0.1812
   2858  O5'       23.8630   28.6490   12.1920 O.3   133  A133       -0.3114
   2859  C4'       23.2230   28.7950    9.8630 C.3   133  A133        0.1773
   2860  O4'       23.0050   30.2230    9.9520 O.3   133  A133       -0.3307
   2861  C3'       24.6350   28.6290    9.3250 C.3   133  A133        0.1860
   2862  O3'       24.7450   27.3880    8.6430 O.3   133  A133       -0.3112
   2863  C2'       24.7370   29.8360    8.3950 C.3   133  A133        0.2309
   2864  O2'       24.1160   29.6470    7.1380 O.3   133  A133       -0.2156
   2865  C1'       24.0060   30.8930    9.2140 C.3   133  A133        0.2408
   2866  N1        27.2390   34.8340    9.7700 N.ar  133  A133       -0.2040
   2867  C2        26.5440   34.3830    8.7140 C.ar  133  A133        0.2016
   2868  N3        25.7150   33.3420    8.6480 N.ar  133  A133       -0.2048
   2869  C4        25.6330   32.7210    9.8390 C.ar  133  A133        0.1692
   2870  C5        26.2880   33.0620   11.0090 C.ar  133  A133        0.1518
   2871  C6        27.1340   34.1860   10.9470 C.ar  133  A133        0.1919
   2872  N6        27.8340   34.6430   11.9840 N.pl3 133  A133       -0.1054
   2873  N7        25.9570   32.1920   12.0360 N.ar  133  A133       -0.2193
   2874  C8        25.1200   31.3540   11.4660 C.ar  133  A133        0.1816
   2875  N9        24.8800   31.6140   10.1410 N.ar  133  A133       -0.2693
   2876  OP1       23.5610   26.5380   13.4760 O.2   133  A133       -0.5172
   2877  OP2       24.8210   28.5190   14.5070 O.co2 133  A133       -0.4373
   2878  P         26.1500   26.6420    8.4600 P.3   134  U134        0.2141
   2879  C5'       26.6820   27.6070    6.1080 C.3   134  U134        0.1812
   2880  O5'       26.9650   27.6110    7.4950 O.3   134  U134       -0.3114
   2881  C4'       27.3920   28.7730    5.4570 C.3   134  U134        0.1773
   2882  O4'       27.0570   30.0110    6.1440 O.3   134  U134       -0.3307
   2883  C3'       28.9050   28.7220    5.5670 C.3   134  U134        0.1860
   2884  O3'       29.4700   27.8390    4.6250 O.3   134  U134       -0.3112
   2885  C2'       29.2670   30.1760    5.2990 C.3   134  U134        0.2309
   2886  O2'       29.2200   30.5220    3.9260 O.3   134  U134       -0.2156
   2887  C1'       28.1750   30.8870    6.1080 C.3   134  U134        0.2420
   2888  N1        28.6400   31.2320    7.5020 N.ar  134  U134       -0.2534
   2889  C2        29.4860   32.3170    7.6750 C.ar  134  U134        0.3546
   2890  O2        29.8730   33.0260    6.7550 O.2   134  U134       -0.2443
   2891  N3        29.8690   32.5510    8.9800 N.ar  134  U134       -0.1530
   2892  C4        29.5090   31.8230   10.1040 C.ar  134  U134        0.2846
   2893  O4        29.9380   32.1520   11.2020 O.2   134  U134       -0.2650
   2894  C5        28.6320   30.7060    9.8460 C.ar  134  U134        0.0814
   2895  C6        28.2450   30.4610    8.5860 C.ar  134  U134        0.0870
   2896  OP1       25.8620   25.4100    7.6850 O.2   134  U134       -0.5172
   2897  OP2       26.8440   26.5880    9.7710 O.co2 134  U134       -0.4373
   2898  P         30.7910   27.0700    5.0720 P.3   135  A135        0.2141
   2899  C5'       32.1850   28.5870    3.4120 C.3   135  A135        0.1812
   2900  O5'       31.9650   28.0980    4.7370 O.3   135  A135       -0.3114
   2901  C4'       33.1520   29.7630    3.4380 C.3   135  A135        0.1773
   2902  O4'       32.5430   30.8870    4.1340 O.3   135  A135       -0.3307
   2903  C3'       34.4690   29.5170    4.1760 C.3   135  A135        0.1860
   2904  O3'       35.4260   28.8290    3.3540 O.3   135  A135       -0.3112
   2905  C2'       34.8670   30.9480    4.5400 C.3   135  A135        0.2309
   2906  O2'       35.4490   31.6840    3.4780 O.3   135  A135       -0.2156
   2907  C1'       33.5160   31.5430    4.9280 C.3   135  A135        0.2408
   2908  N1        34.3820   33.1970    9.7840 N.ar  135  A135       -0.2040
   2909  C2        34.8170   33.6480    8.5970 C.ar  135  A135        0.2016
   2910  N3        34.5500   33.1760    7.3720 N.ar  135  A135       -0.2048
   2911  C4        33.7320   32.1000    7.4100 C.ar  135  A135        0.1692
   2912  C5        33.2050   31.5230    8.5570 C.ar  135  A135        0.1518
   2913  C6        33.5640   32.1160    9.7970 C.ar  135  A135        0.1919
   2914  N6        33.1320   31.6650   10.9740 N.pl3 135  A135       -0.1054
   2915  N7        32.4080   30.4370    8.2250 N.ar  135  A135       -0.2193
   2916  C8        32.4650   30.3770    6.9150 C.ar  135  A135        0.1816
   2917  N9        33.2430   31.3480    6.3520 N.ar  135  A135       -0.2693
   2918  OP1       30.9430   25.8610    4.2340 O.2   135  A135       -0.5172
   2919  OP2       30.7320   26.9710    6.5470 O.co2 135  A135       -0.4373
   2920  P         36.5400   27.8370    3.9670 P.3   136  C136        0.2141
   2921  C5'       38.2780   29.7780    3.8770 C.3   136  C136        0.1812
   2922  O5'       37.5610   28.8420    4.6730 O.3   136  C136       -0.3114
   2923  C4'       38.9950   30.7950    4.7390 C.3   136  C136        0.1773
   2924  O4'       38.0420   31.6130    5.4660 O.3   136  C136       -0.3307
   2925  C3'       39.8730   30.2080    5.8300 C.3   136  C136        0.1860
   2926  O3'       41.1030   29.7560    5.2990 O.3   136  C136       -0.3112
   2927  C2'       40.0160   31.4390    6.7120 C.3   136  C136        0.2309
   2928  O2'       40.7940   32.4540    6.1110 O.3   136  C136       -0.2156
   2929  C1'       38.5570   31.8730    6.7620 C.3   136  C136        0.2420
   2930  N1        37.7090   31.1930    7.8270 N.ar  136  C136       -0.2535
   2931  C2        37.7990   31.5910    9.1840 C.ar  136  C136        0.3532
   2932  O2        38.5750   32.4920    9.5230 O.2   136  C136       -0.2443
   2933  N3        37.0210   30.9690   10.1160 N.ar  136  C136       -0.1739
   2934  C4        36.1850   29.9930    9.7450 C.ar  136  C136        0.1759
   2935  N4        35.4420   29.4140   10.6910 N.pl3 136  C136       -0.1070
   2936  C5        36.0780   29.5670    8.3810 C.ar  136  C136        0.0566
   2937  C6        36.8410   30.1900    7.4720 C.ar  136  C136        0.0850
   2938  OP1       37.2170   27.1850    2.8230 O.2   136  C136       -0.5172
   2939  OP2       35.9540   26.9750    5.0220 O.co2 136  C136       -0.4373
   2940  P         41.7970   28.4360    5.8680 P.3   137  C137        0.2141
   2941  C5'       43.4190   29.9100    7.3310 C.3   137  C137        0.1812
   2942  O5'       42.3850   28.9260    7.2660 O.3   137  C137       -0.3114
   2943  C4'       43.5220   30.4890    8.7370 C.3   137  C137        0.1773
   2944  O4'       42.2410   31.0430    9.1410 O.3   137  C137       -0.3307
   2945  C3'       43.7890   29.4980    9.8630 C.3   137  C137        0.1860
   2946  O3'       45.1240   29.0840    9.9220 O.3   137  C137       -0.3112
   2947  C2'       43.3550   30.2830   11.0860 C.3   137  C137        0.2309
   2948  O2'       44.2600   31.3050   11.4280 O.3   137  C137       -0.2156
   2949  C1'       42.0620   30.8650   10.5390 C.3   137  C137        0.2420
   2950  N1        40.8860   29.9800   10.8080 N.ar  137  C137       -0.2535
   2951  C2        40.3190   29.9880   12.1010 C.ar  137  C137        0.3532
   2952  O2        40.7980   30.7220   12.9780 O.2   137  C137       -0.2443
   2953  N3        39.2490   29.1960   12.3680 N.ar  137  C137       -0.1739
   2954  C4        38.7500   28.4200   11.4130 C.ar  137  C137        0.1759
   2955  N4        37.7020   27.6660   11.7450 N.pl3 137  C137       -0.1070
   2956  C5        39.3100   28.3860   10.0920 C.ar  137  C137        0.0566
   2957  C6        40.3650   29.1730    9.8290 C.ar  137  C137        0.0850
   2958  OP1       42.9330   28.1290    4.9810 O.2   137  C137       -0.5172
   2959  OP2       40.7630   27.4070    6.1300 O.co2 137  C137       -0.4373
   2960  P         45.3770   27.5760    9.4640 P.3   138  A138        0.2141
   2961  C5'       46.3790   26.2510   11.4880 C.3   138  A138        0.1812
   2962  O5'       46.5980   27.1160   10.3840 O.3   138  A138       -0.3114
   2963  C4'       46.2840   27.0680   12.7560 C.3   138  A138        0.1773
   2964  O4'       45.2040   28.0340   12.6540 O.3   138  A138       -0.3307
   2965  C3'       45.9520   26.2580   13.9920 C.3   138  A138        0.1860
   2966  O3'       47.1280   25.7090   14.5210 O.3   138  A138       -0.3112
   2967  C2'       45.3880   27.3480   14.8940 C.3   138  A138        0.2309
   2968  O2'       46.3980   28.1620   15.4650 O.3   138  A138       -0.2156
   2969  C1'       44.5230   28.1200   13.8930 C.3   138  A138        0.2408
   2970  N1        40.0710   26.9140   16.2470 N.ar  138  A138       -0.2040
   2971  C2        41.1950   27.4800   16.7030 C.ar  138  A138        0.2016
   2972  N3        42.3150   27.7640   16.0360 N.ar  138  A138       -0.2048
   2973  C4        42.2210   27.4070   14.7360 C.ar  138  A138        0.1692
   2974  C5        41.1270   26.8120   14.1220 C.ar  138  A138        0.1518
   2975  C6        40.0000   26.5590   14.9450 C.ar  138  A138        0.1919
   2976  N6        38.8680   26.0020   14.5080 N.pl3 138  A138       -0.1054
   2977  N7        41.3880   26.5860   12.7780 N.ar  138  A138       -0.2193
   2978  C8        42.6090   27.0400   12.6090 C.ar  138  A138        0.1816
   2979  N9        43.1750   27.5560   13.7440 N.ar  138  A138       -0.2693
   2980  OP1       45.8390   27.6320    8.0540 O.2   138  A138       -0.5172
   2981  OP2       44.1840   26.7700    9.8280 O.co2 138  A138       -0.4373
   2982  P         47.0920   24.2630   15.1930 P.3   139  C139        0.2141
   2983  C5'       46.3510   25.1060   17.5350 C.3   139  C139        0.1812
   2984  O5'       45.9940   24.4390   16.3430 O.3   139  C139       -0.3114
   2985  C4'       45.2230   25.0480   18.5390 C.3   139  C139        0.1773
   2986  O4'       44.0130   25.6180   17.9830 O.3   139  C139       -0.3307
   2987  C3'       44.7850   23.6560   18.9380 C.3   139  C139        0.1860
   2988  O3'       45.7110   23.0980   19.8560 O.3   139  C139       -0.3112
   2989  C2'       43.4300   23.9920   19.5500 C.3   139  C139        0.2309
   2990  O2'       43.5500   24.6920   20.7720 O.3   139  C139       -0.2156
   2991  C1'       42.8770   24.9460   18.5030 C.3   139  C139        0.2420
   2992  N1        42.0860   24.3050   17.3700 N.ar  139  C139       -0.2535
   2993  C2        40.7370   23.9260   17.5400 C.ar  139  C139        0.3532
   2994  O2        40.1810   24.1070   18.6270 O.2   139  C139       -0.2443
   2995  N3        40.0650   23.3620   16.4930 N.ar  139  C139       -0.1739
   2996  C4        40.6800   23.1750   15.3140 C.ar  139  C139        0.1759
   2997  N4        39.9980   22.6160   14.3090 N.pl3 139  C139       -0.1070
   2998  C5        42.0430   23.5500   15.1150 C.ar  139  C139        0.0566
   2999  C6        42.6880   24.1060   16.1510 C.ar  139  C139        0.0850
   3000  OP1       48.4240   24.0510   15.8110 O.3   139  C139       -0.4373
   3001  OP2       46.5790   23.2950   14.1940 O.co2 139  C139       -0.5172
   3002  P         45.9550   21.5170   19.8540 P.3   140  U140        0.2141
   3003  C5'       44.0960   21.1440   21.6870 C.3   140  U140        0.1812
   3004  O5'       44.5360   20.9560   20.3430 O.3   140  U140       -0.3114
   3005  C4'       42.6680   20.6670   21.8570 C.3   140  U140        0.1773
   3006  O4'       41.7990   21.3920   20.9540 O.3   140  U140       -0.3307
   3007  C3'       42.4550   19.2220   21.4540 C.3   140  U140        0.1860
   3008  O3'       42.8610   18.3600   22.4870 O.3   140  U140       -0.3112
   3009  C2'       40.9620   19.1790   21.1290 C.3   140  U140        0.2309
   3010  O2'       40.0790   19.0750   22.2320 O.3   140  U140       -0.2156
   3011  C1'       40.8030   20.5280   20.4280 C.3   140  U140        0.2420
   3012  N1        40.9560   20.3900   18.9380 N.ar  140  U140       -0.2534
   3013  C2        39.9270   19.8450   18.1960 C.ar  140  U140        0.3546
   3014  O2        38.8750   19.4660   18.6690 O.2   140  U140       -0.2443
   3015  N3        40.1740   19.7580   16.8500 N.ar  140  U140       -0.1530
   3016  C4        41.3200   20.1390   16.1810 C.ar  140  U140        0.2846
   3017  O4        41.3890   19.9900   14.9670 O.2   140  U140       -0.2650
   3018  C5        42.3540   20.6940   17.0120 C.ar  140  U140        0.0814
   3019  C6        42.1320   20.7940   18.3250 C.ar  140  U140        0.0870
   3020  OP1       46.9940   21.1910   20.8600 O.3   140  U140       -0.4373
   3021  OP2       46.1330   21.0750   18.4510 O.co2 140  U140       -0.5172
   3022  P         43.6300   17.0190   22.0840 P.3   141  G141        0.2141
   3023  C5'       41.6090   15.6690   22.9940 C.3   141  G141        0.1812
   3024  O5'       42.3750   16.0560   21.8590 O.3   141  G141       -0.3114
   3025  C4'       40.2900   15.0480   22.5960 C.3   141  G141        0.1773
   3026  O4'       39.5380   15.9760   21.7760 O.3   141  G141       -0.3307
   3027  C3'       40.4330   13.8190   21.7200 C.3   141  G141        0.1860
   3028  O3'       40.7540   12.6560   22.4610 O.3   141  G141       -0.3112
   3029  C2'       39.0610   13.7670   21.0610 C.3   141  G141        0.2309
   3030  O2'       38.0520   13.2140   21.8810 O.3   141  G141       -0.2156
   3031  C1'       38.8390   15.2520   20.7790 C.3   141  G141        0.2408
   3032  N1        38.0970   15.2160   15.7210 N.ar  141  G141       -0.1709
   3033  C2        37.2600   14.7800   16.7210 C.ar  141  G141        0.2606
   3034  N2        36.0910   14.2680   16.3150 N.pl3 141  G141       -0.0859
   3035  N3        37.5490   14.8370   18.0230 N.ar  141  G141       -0.1918
   3036  C4        38.7740   15.3810   18.2460 C.ar  141  G141        0.1723
   3037  C5        39.6750   15.8450   17.3150 C.ar  141  G141        0.1748
   3038  C6        39.3510   15.7730   15.9390 C.ar  141  G141        0.3023
   3039  O6        40.0320   16.1360   14.9780 O.2   141  G141       -0.2633
   3040  N7        40.8190   16.3240   17.9330 N.ar  141  G141       -0.2173
   3041  C8        40.5970   16.1500   19.1980 C.ar  141  G141        0.1817
   3042  N9        39.3740   15.5900   19.4640 N.ar  141  G141       -0.2693
   3043  OP1       44.4230   16.5990   23.2650 O.3   141  G141       -0.4373
   3044  OP2       44.2920   17.1700   20.7680 O.co2 141  G141       -0.5172
   3045  P         41.7990   11.6530   21.7870 P.3   142  U142        0.2141
   3046  C5'       39.7850   10.2050   20.9810 C.3   142  U142        0.1812
   3047  O5'       40.9510   10.9220   20.6630 O.3   142  U142       -0.3114
   3048  C4'       39.1020    9.8410   19.6820 C.3   142  U142        0.1773
   3049  O4'       38.7660   11.0520   18.9630 O.3   142  U142       -0.3307
   3050  C3'       39.9770    9.0840   18.6980 C.3   142  U142        0.1860
   3051  O3'       40.0690    7.7040   19.0230 O.3   142  U142       -0.3112
   3052  C2'       39.2270    9.3440   17.4000 C.3   142  U142        0.2309
   3053  O2'       38.0810    8.5240   17.2520 O.3   142  U142       -0.2156
   3054  C1'       38.8450   10.8100   17.5730 C.3   142  U142        0.2420
   3055  N1        39.8270   11.7470   16.9590 N.ar  142  U142       -0.2534
   3056  C2        39.7950   11.9320   15.5810 C.ar  142  U142        0.3546
   3057  O2        39.0030   11.3650   14.8550 O.2   142  U142       -0.2443
   3058  N3        40.7270   12.8080   15.0690 N.ar  142  U142       -0.1530
   3059  C4        41.6780   13.5030   15.7920 C.ar  142  U142        0.2846
   3060  O4        42.4430   14.2500   15.1960 O.2   142  U142       -0.2650
   3061  C5        41.6620   13.2650   17.2230 C.ar  142  U142        0.0814
   3062  C6        40.7560   12.4170   17.7470 C.ar  142  U142        0.0870
   3063  OP1       42.2380   10.6290   22.7560 O.3   142  U142       -0.4373
   3064  OP2       42.7890   12.5030   21.0930 O.co2 142  U142       -0.5172
   3065  P         41.5000    6.9800   19.0180 P.3   143  C143        0.2141
   3066  C5'       40.9410    5.2570   17.1380 C.3   143  C143        0.1812
   3067  O5'       41.6640    6.4090   17.5390 O.3   143  C143       -0.3114
   3068  C4'       40.3890    5.4630   15.7470 C.3   143  C143        0.1773
   3069  O4'       39.9810    6.8430   15.6230 O.3   143  C143       -0.3307
   3070  C3'       41.4060    5.2930   14.6360 C.3   143  C143        0.1860
   3071  O3'       41.5450    3.9500   14.2720 O.3   143  C143       -0.3112
   3072  C2'       40.8110    6.1370   13.5170 C.3   143  C143        0.2309
   3073  O2'       39.8020    5.5120   12.7520 O.3   143  C143       -0.2156
   3074  C1'       40.2300    7.2990   14.3100 C.3   143  C143        0.2420
   3075  N1        41.1790    8.4350   14.3230 N.ar  143  C143       -0.2535
   3076  C2        41.2800    9.2190   13.1630 C.ar  143  C143        0.3532
   3077  O2        40.5740    8.9570   12.1790 O.2   143  C143       -0.2443
   3078  N3        42.1520   10.2580   13.1460 N.ar  143  C143       -0.1739
   3079  C4        42.9010   10.5230   14.2140 C.ar  143  C143        0.1759
   3080  N4        43.7320   11.5630   14.1210 N.pl3 143  C143       -0.1070
   3081  C5        42.8230    9.7350   15.4060 C.ar  143  C143        0.0566
   3082  C6        41.9590    8.7080   15.4160 C.ar  143  C143        0.0850
   3083  OP1       41.3740    5.8540   19.9650 O.3   143  C143       -0.4373
   3084  OP2       42.5710    7.9920   19.1550 O.co2 143  C143       -0.5172
   3085  P         43.0030    3.4350   13.8470 P.3   144  A144        0.2141
   3086  C5'       42.2190    3.5150   11.3190 C.3   144  A144        0.1812
   3087  O5'       43.1380    3.9570   12.3310 O.3   144  A144       -0.3114
   3088  C4'       42.4470    4.2230   10.0000 C.3   144  A144        0.1773
   3089  O4'       42.0570    5.6100   10.1250 O.3   144  A144       -0.3307
   3090  C3'       43.9030    4.2940    9.5940 C.3   144  A144        0.1860
   3091  O3'       44.2960    3.1290    8.9180 O.3   144  A144       -0.3112
   3092  C2'       43.9560    5.5420    8.7150 C.3   144  A144        0.2309
   3093  O2'       43.5510    5.3350    7.3790 O.3   144  A144       -0.2156
   3094  C1'       42.9730    6.4480    9.4370 C.3   144  A144        0.2408
   3095  N1        45.9150   10.6460   10.0150 N.ar  144  A144       -0.2040
   3096  C2        45.3920   10.0790    8.9140 C.ar  144  A144        0.2016
   3097  N3        44.6350    8.9820    8.8340 N.ar  144  A144       -0.2048
   3098  C4        44.4130    8.4440   10.0560 C.ar  144  A144        0.1692
   3099  C5        44.8830    8.9200   11.2700 C.ar  144  A144        0.1518
   3100  C6        45.6740   10.0850   11.2270 C.ar  144  A144        0.1919
   3101  N6        46.1890   10.6350   12.3340 N.pl3 144  A144       -0.1054
   3102  N7        44.4630    8.1220   12.3200 N.ar  144  A144       -0.2193
   3103  C8        43.7520    7.1880   11.7330 C.ar  144  A144        0.1816
   3104  N9        43.6730    7.3220   10.3740 N.ar  144  A144       -0.2693
   3105  OP1       42.9680    1.9530   13.8630 O.2   144  A144       -0.5172
   3106  OP2       44.0080    4.1270   14.6920 O.co2 144  A144       -0.4373
   3107  P         45.8040    2.6410    9.1110 P.3   145  C145        0.2141
   3108  C5'       46.4140    3.7510    6.8020 C.3   145  C145        0.1812
   3109  O5'       46.6300    3.6790    8.2180 O.3   145  C145       -0.3114
   3110  C4'       47.1120    4.9540    6.2020 C.3   145  C145        0.1773
   3111  O4'       46.5490    6.1770    6.7370 O.3   145  C145       -0.3307
   3112  C3'       48.5650    5.0730    6.6110 C.3   145  C145        0.1860
   3113  O3'       49.3990    4.1790    5.9150 O.3   145  C145       -0.3112
   3114  C2'       48.8440    6.5460    6.3280 C.3   145  C145        0.2309
   3115  O2'       48.9790    6.8750    4.9600 O.3   145  C145       -0.2156
   3116  C1'       47.5720    7.1450    6.9140 C.3   145  C145        0.2420
   3117  N1        47.7750    7.4530    8.3600 N.ar  145  C145       -0.2535
   3118  C2        48.3960    8.6580    8.7260 C.ar  145  C145        0.3532
   3119  O2        48.7500    9.4610    7.8550 O.2   145  C145       -0.2443
   3120  N3        48.5870    8.9210   10.0460 N.ar  145  C145       -0.1739
   3121  C4        48.2020    8.0400   10.9750 C.ar  145  C145        0.1759
   3122  N4        48.4160    8.3490   12.2550 N.pl3 145  C145       -0.1070
   3123  C5        47.5760    6.8060   10.6290 C.ar  145  C145        0.0566
   3124  C6        47.3890    6.5610    9.3260 C.ar  145  C145        0.0850
   3125  OP1       45.9090    1.3040    8.4900 O.2   145  C145       -0.5172
   3126  OP2       46.1720    2.8340   10.5360 O.co2 145  C145       -0.4373
   3127  P         50.5890    3.5130    6.7550 P.3   146  G146        0.2141
   3128  C5'       52.2280    4.9850    5.2990 C.3   146  G146        0.1812
   3129  O5'       51.7770    4.5700    6.5880 O.3   146  G146       -0.3114
   3130  C4'       52.9890    6.2990    5.3900 C.3   146  G146        0.1773
   3131  O4'       52.1070    7.3660    5.8260 O.3   146  G146       -0.3307
   3132  C3'       54.1040    6.3670    6.4240 C.3   146  G146        0.1860
   3133  O3'       55.2760    5.6950    6.0140 O.3   146  G146       -0.3112
   3134  C2'       54.3030    7.8710    6.5200 C.3   146  G146        0.2309
   3135  O2'       54.9540    8.4240    5.3990 O.3   146  G146       -0.2156
   3136  C1'       52.8470    8.3160    6.5770 C.3   146  G146        0.2408
   3137  N1        53.1960   10.7590   11.0360 N.ar  146  G146       -0.1709
   3138  C2        53.8090   11.0330    9.8310 C.ar  146  G146        0.2606
   3139  N2        54.6240   12.0950    9.8010 N.pl3 146  G146       -0.0859
   3140  N3        53.6320   10.3140    8.7260 N.ar  146  G146       -0.1918
   3141  C4        52.7770    9.2720    8.9200 C.ar  146  G146        0.1723
   3142  C5        52.1170    8.9110   10.0800 C.ar  146  G146        0.1748
   3143  C6        52.3190    9.6950   11.2500 C.ar  146  G146        0.3023
   3144  O6        51.8230    9.5380   12.3700 O.2   146  G146       -0.2633
   3145  N7        51.3330    7.7780    9.8680 N.ar  146  G146       -0.2173
   3146  C8        51.5280    7.4860    8.6110 C.ar  146  G146        0.1817
   3147  N9        52.3890    8.3530    7.9680 N.ar  146  G146       -0.2693
   3148  OP1       50.9580    2.2510    6.0790 O.2   146  G146       -0.5172
   3149  OP2       50.2070    3.5130    8.1880 O.co2 146  G146       -0.4373
   3150  P         56.0620    4.8280    7.1040 P.3   147  G147        0.2141
   3151  C5'       57.7860    6.7570    7.5420 C.3   147  G147        0.1812
   3152  O5'       56.7200    5.9540    8.0240 O.3   147  G147       -0.3114
   3153  C4'       58.0260    7.9110    8.4950 C.3   147  G147        0.1773
   3154  O4'       56.7730    8.4910    8.9350 O.3   147  G147       -0.3307
   3155  C3'       58.6570    7.5410    9.8250 C.3   147  G147        0.1860
   3156  O3'       60.0260    7.2000    9.6920 O.3   147  G147       -0.3112
   3157  C2'       58.4130    8.8230   10.6170 C.3   147  G147        0.2309
   3158  O2'       59.2370    9.9180   10.2660 O.3   147  G147       -0.2156
   3159  C1'       56.9730    9.0990   10.2020 C.3   147  G147        0.2408
   3160  N1        54.9920    9.7010   14.8580 N.ar  147  G147       -0.1709
   3161  C2        55.9630   10.4380   14.2160 C.ar  147  G147        0.2606
   3162  N2        56.4810   11.4780   14.8920 N.pl3 147  G147       -0.0859
   3163  N3        56.3940   10.1730   12.9850 N.ar  147  G147       -0.1918
   3164  C4        55.7770    9.0950   12.4310 C.ar  147  G147        0.1723
   3165  C5        54.8020    8.2970   12.9850 C.ar  147  G147        0.1748
   3166  C6        54.3460    8.5930   14.3000 C.ar  147  G147        0.3023
   3167  O6        53.4810    8.0000   14.9600 O.2   147  G147       -0.2633
   3168  N7        54.4280    7.2960   12.0950 N.ar  147  G147       -0.2173
   3169  C8        55.1710    7.5020   11.0420 C.ar  147  G147        0.1817
   3170  N9        56.0120    8.5800   11.1740 N.ar  147  G147       -0.2693
   3171  OP1       57.1190    4.0580    6.4080 O.2   147  G147       -0.5172
   3172  OP2       55.0780    4.1030    7.9370 O.co2 147  G147       -0.4373
   3173  P         60.6720    6.1940   10.7530 P.3   148  A148        0.2141
   3174  C5'       62.2020    8.0620   11.7820 C.3   148  A148        0.1812
   3175  O5'       61.0880    7.1930   11.9250 O.3   148  A148       -0.3114
   3176  C4'       62.3630    8.8860   13.0410 C.3   148  A148        0.1773
   3177  O4'       61.1510    9.6480   13.2620 O.3   148  A148       -0.3307
   3178  C3'       62.5030    8.0850   14.3270 C.3   148  A148        0.1860
   3179  O3'       63.8340    7.6800   14.5220 O.3   148  A148       -0.3112
   3180  C2'       62.0820    9.1240   15.3530 C.3   148  A148        0.2309
   3181  O2'       63.0660   10.1220   15.5420 O.3   148  A148       -0.2156
   3182  C1'       60.8580    9.6980   14.6520 C.3   148  A148        0.2408
   3183  N1        57.2270    8.6670   18.1740 N.ar  148  A148       -0.2040
   3184  C2        58.3260    9.4320   18.2160 C.ar  148  A148        0.2016
   3185  N3        59.2310    9.6480   17.2580 N.ar  148  A148       -0.2048
   3186  C4        58.9180    8.9820   16.1320 C.ar  148  A148        0.1692
   3187  C5        57.8210    8.1600   15.9370 C.ar  148  A148        0.1518
   3188  C6        56.9380    8.0070   17.0340 C.ar  148  A148        0.1919
   3189  N6        55.8390    7.2500   17.0140 N.pl3 148  A148       -0.1054
   3190  N7        57.8270    7.6440   14.6520 N.ar  148  A148       -0.2193
   3191  C8        58.9070    8.1550   14.1110 C.ar  148  A148        0.1816
   3192  N9        59.6150    8.9750   14.9460 N.ar  148  A148       -0.2693
   3193  OP1       61.8880    5.6010   10.1480 O.2   148  A148       -0.5172
   3194  OP2       59.6050    5.3140   11.2820 O.co2 148  A148       -0.4373
   3195  P         64.1380    6.3550   15.3520 P.3   149  G149        0.2141
   3196  C5'       64.3690    7.5700   17.6690 C.3   149  G149        0.1812
   3197  O5'       63.6280    6.7020   16.8270 O.3   149  G149       -0.3114
   3198  C4'       63.5650    7.8770   18.9110 C.3   149  G149        0.1773
   3199  O4'       62.2070    8.1730   18.5230 O.3   149  G149       -0.3307
   3200  C3'       63.3690    6.7150   19.8710 C.3   149  G149        0.1860
   3201  O3'       64.5130    6.4880   20.6740 O.3   149  G149       -0.3112
   3202  C2'       62.1850    7.2180   20.6890 C.3   149  G149        0.2309
   3203  O2'       62.5150    8.1660   21.6830 O.3   149  G149       -0.2156
   3204  C1'       61.3380    7.8630   19.5980 C.3   149  G149        0.2408
   3205  N1        56.9660    5.6080   20.9010 N.ar  149  G149       -0.1709
   3206  C2        57.7570    6.4660   21.6310 C.ar  149  G149        0.2606
   3207  N2        57.3460    6.7760   22.8690 N.pl3 149  G149       -0.0859
   3208  N3        58.8850    6.9910   21.1710 N.ar  149  G149       -0.1918
   3209  C4        59.1760    6.5870   19.9010 C.ar  149  G149        0.1723
   3210  C5        58.4540    5.7370   19.0920 C.ar  149  G149        0.1748
   3211  C6        57.2480    5.1830   19.5990 C.ar  149  G149        0.3023
   3212  O6        56.4740    4.4020   19.0290 O.2   149  G149       -0.2633
   3213  N7        59.0840    5.5790   17.8600 N.ar  149  G149       -0.2173
   3214  C8        60.1560    6.3220   17.9450 C.ar  149  G149        0.1817
   3215  N9        60.2740    6.9660   19.1540 N.ar  149  G149       -0.2693
   3216  OP1       65.6100    6.1870   15.3630 O.3   149  G149       -0.4373
   3217  OP2       63.2610    5.2820   14.8320 O.co2 149  G149       -0.5172
   3218  P         64.9400    4.9940   21.0490 P.3   150  G150        0.2141
   3219  C5'       63.8850    5.1260   23.4480 C.3   150  G150        0.1812
   3220  O5'       63.8660    4.5730   22.1450 O.3   150  G150       -0.3114
   3221  C4'       62.5890    4.7690   24.1450 C.3   150  G150        0.1773
   3222  O4'       61.4770    5.2470   23.3450 O.3   150  G150       -0.3307
   3223  C3'       62.3300    3.2750   24.3010 C.3   150  G150        0.1860
   3224  O3'       62.9190    2.7680   25.4920 O.3   150  G150       -0.3112
   3225  C2'       60.8090    3.2330   24.3710 C.3   150  G150        0.2309
   3226  O2'       60.3160    3.5720   25.6520 O.3   150  G150       -0.2156
   3227  C1'       60.4280    4.2930   23.3440 C.3   150  G150        0.2408
   3228  N1        57.3900    1.6140   20.2180 N.ar  150  G150       -0.1709
   3229  C2        57.2150    1.9540   21.5440 C.ar  150  G150        0.2606
   3230  N2        56.0880    1.5320   22.1190 N.pl3 150  G150       -0.0859
   3231  N3        58.0790    2.6600   22.2650 N.ar  150  G150       -0.1918
   3232  C4        59.1680    3.0150   21.5390 C.ar  150  G150        0.1723
   3233  C5        59.4400    2.7250   20.2150 C.ar  150  G150        0.1748
   3234  C6        58.5020    1.9720   19.4550 C.ar  150  G150        0.3023
   3235  O6        58.5720    1.6190   18.2660 O.2   150  G150       -0.2633
   3236  N7        60.6610    3.2680   19.8440 N.ar  150  G150       -0.2173
   3237  C8        61.0920    3.8570   20.9240 C.ar  150  G150        0.1817
   3238  N9        60.2400    3.7500   21.9960 N.ar  150  G150       -0.2693
   3239  OP1       66.2710    5.0570   21.6880 O.3   150  G150       -0.4373
   3240  OP2       64.7140    4.1330   19.8680 O.co2 150  G150       -0.5172
   3241  P         63.4890    1.2750   25.5500 P.3   151  U151        0.2141
   3242  C5'       61.0790    0.3180   26.1380 C.3   151  U151        0.1812
   3243  O5'       62.2120    0.3530   25.2590 O.3   151  U151       -0.3114
   3244  C4'       59.9150   -0.4340   25.5040 C.3   151  U151        0.1773
   3245  O4'       59.7220   -0.0280   24.1230 O.3   151  U151       -0.3307
   3246  C3'       60.0880   -1.9540   25.4940 C.3   151  U151        0.1860
   3247  O3'       58.9050   -2.6070   25.9610 O.3   151  U151       -0.3112
   3248  C2'       60.3980   -2.2860   24.0340 C.3   151  U151        0.2309
   3249  O2'       59.9130   -3.5500   23.6180 O.3   151  U151       -0.2156
   3250  C1'       59.6810   -1.1680   23.2840 C.3   151  U151        0.2420
   3251  N1        60.3240   -0.8520   21.9650 N.ar  151  U151       -0.2534
   3252  C2        59.5670   -0.9110   20.8050 C.ar  151  U151        0.3546
   3253  O2        58.3800   -1.1990   20.7820 O.2   151  U151       -0.2443
   3254  N3        60.2670   -0.6070   19.6530 N.ar  151  U151       -0.1530
   3255  C4        61.6100   -0.2620   19.5410 C.ar  151  U151        0.2846
   3256  O4        62.0960   -0.0160   18.4380 O.2   151  U151       -0.2650
   3257  C5        62.3290   -0.2290   20.7910 C.ar  151  U151        0.0814
   3258  C6        61.6730   -0.5170   21.9240 C.ar  151  U151        0.0870
   3259  OP1       63.9390    1.0350   26.9380 O.3   151  U151       -0.4373
   3260  OP2       64.4360    1.1000   24.4270 O.co2 151  U151       -0.5172
   3261  P         58.5430   -2.6930   27.5190 P.3   152  C152        0.2141
   3262  C5'       56.1990   -1.8410   28.2530 C.3   152  C152        0.1812
   3263  O5'       57.4250   -1.5530   27.6140 O.3   152  C152       -0.3114
   3264  C4'       55.0550   -2.0670   27.2730 C.3   152  C152        0.1773
   3265  O4'       55.4860   -2.6220   25.9950 O.3   152  C152       -0.3307
   3266  C3'       53.9880   -3.0320   27.7820 C.3   152  C152        0.1860
   3267  O3'       52.7460   -2.5590   27.2920 O.3   152  C152       -0.3112
   3268  C2'       54.3950   -4.3290   27.0940 C.3   152  C152        0.2309
   3269  O2'       53.3580   -5.2890   27.0920 O.3   152  C152       -0.2156
   3270  C1'       54.6460   -3.7340   25.7080 C.3   152  C152        0.2420
   3271  N1        55.2400   -4.6420   24.6380 N.ar  152  C152       -0.2535
   3272  C2        54.5080   -5.7300   24.0990 C.ar  152  C152        0.3532
   3273  O2        53.3600   -5.9820   24.4920 O.2   152  C152       -0.2443
   3274  N3        55.0800   -6.5040   23.1370 N.ar  152  C152       -0.1739
   3275  C4        56.3160   -6.2300   22.7090 C.ar  152  C152        0.1759
   3276  N4        56.8390   -7.0120   21.7640 N.pl3 152  C152       -0.1070
   3277  C5        57.0760   -5.1390   23.2320 C.ar  152  C152        0.0566
   3278  C6        56.5050   -4.3800   24.1780 C.ar  152  C152        0.0850
   3279  OP1       59.7050   -2.2720   28.3390 O.3   152  C152       -0.4373
   3280  OP2       57.9400   -4.0240   27.7590 O.co2 152  C152       -0.5172
   3281  P         51.3630   -2.7460   28.0700 P.3   153  U153        0.2141
   3282  C5'       50.6530   -0.3170   27.2570 C.3   153  U153        0.1812
   3283  O5'       50.3920   -1.7250   27.2930 O.3   153  U153       -0.3114
   3284  C4'       51.1520    0.1440   25.8940 C.3   153  U153        0.1773
   3285  O4'       52.1620   -0.7420   25.3390 O.3   153  U153       -0.3307
   3286  C3'       50.0940    0.2900   24.7970 C.3   153  U153        0.1860
   3287  O3'       50.0340    1.6620   24.4360 O.3   153  U153       -0.3112
   3288  C2'       50.6480   -0.5250   23.6300 C.3   153  U153        0.2309
   3289  O2'       50.4390    0.0720   22.3650 O.3   153  U153       -0.2156
   3290  C1'       52.1310   -0.4620   23.9580 C.3   153  U153        0.2420
   3291  N1        53.0280   -1.3520   23.1440 N.ar  153  U153       -0.2534
   3292  C2        54.3320   -0.9390   22.9300 C.ar  153  U153        0.3546
   3293  O2        54.7820    0.0970   23.3850 O.2   153  U153       -0.2443
   3294  N3        55.1050   -1.7890   22.1680 N.ar  153  U153       -0.1530
   3295  C4        54.7040   -2.9880   21.6010 C.ar  153  U153        0.2846
   3296  O4        55.5000   -3.6470   20.9380 O.2   153  U153       -0.2650
   3297  C5        53.3290   -3.3480   21.8640 C.ar  153  U153        0.0814
   3298  C6        52.5570   -2.5380   22.6050 C.ar  153  U153        0.0870
   3299  OP1       51.5550   -2.2940   29.4690 O.3   153  U153       -0.4373
   3300  OP2       50.8870   -4.1210   27.7950 O.co2 153  U153       -0.5172
   3301  P         48.6700    2.4930   24.3460 P.3   154  C154        0.2141
   3302  C5'       49.5480    4.1250   26.2290 C.3   154  C154        0.1812
   3303  O5'       49.1840    3.9290   24.8530 O.3   154  C154       -0.3114
   3304  C4'       50.8970    4.8030   26.3930 C.3   154  C154        0.1773
   3305  O4'       51.9560    3.9260   25.9330 O.3   154  C154       -0.3307
   3306  C3'       51.1270    6.0410   25.5500 C.3   154  C154        0.1860
   3307  O3'       50.4740    7.1730   26.0690 O.3   154  C154       -0.3112
   3308  C2'       52.6430    6.1640   25.6250 C.3   154  C154        0.2309
   3309  O2'       53.1160    6.6490   26.8680 O.3   154  C154       -0.2156
   3310  C1'       53.0290    4.7030   25.4130 C.3   154  C154        0.2420
   3311  N1        53.2870    4.3870   23.9570 N.ar  154  C154       -0.2535
   3312  C2        54.4940    4.7880   23.3480 C.ar  154  C154        0.3532
   3313  O2        55.3540    5.3920   24.0040 O.2   154  C154       -0.2443
   3314  N3        54.6940    4.4930   22.0340 N.ar  154  C154       -0.1739
   3315  C4        53.7580    3.8390   21.3330 C.ar  154  C154        0.1759
   3316  N4        54.0060    3.5720   20.0470 N.pl3 154  C154       -0.1070
   3317  C5        52.5250    3.4250   21.9250 C.ar  154  C154        0.0566
   3318  C6        52.3400    3.7190   23.2200 C.ar  154  C154        0.0850
   3319  OP1       47.7010    1.9270   25.3200 O.3   154  C154       -0.4373
   3320  OP2       48.2960    2.6090   22.9150 O.co2 154  C154       -0.5172
   3321  P         50.0860    8.3400   25.0490 P.3   155  U155        0.2141
   3322  C5'       52.0470    9.9400   25.7160 C.3   155  U155        0.1812
   3323  O5'       51.4780    9.0610   24.7570 O.3   155  U155       -0.3114
   3324  C4'       53.3830   10.4750   25.2350 C.3   155  U155        0.1773
   3325  O4'       54.2210    9.3710   24.8060 O.3   155  U155       -0.3307
   3326  C3'       53.3270   11.3710   24.0070 C.3   155  U155        0.1860
   3327  O3'       52.9930   12.6980   24.3430 O.3   155  U155       -0.3112
   3328  C2'       54.7570   11.2640   23.4980 C.3   155  U155        0.2309
   3329  O2'       55.6740   12.0540   24.2290 O.3   155  U155       -0.2156
   3330  C1'       55.0210    9.7760   23.7080 C.3   155  U155        0.2420
   3331  N1        54.7130    8.9620   22.4810 N.ar  155  U155       -0.2534
   3332  C2        55.6370    8.9520   21.4560 C.ar  155  U155        0.3546
   3333  O2        56.6920    9.5560   21.5050 O.2   155  U155       -0.2443
   3334  N3        55.2970    8.1910   20.3640 N.ar  155  U155       -0.1530
   3335  C4        54.1390    7.4580   20.1900 C.ar  155  U155        0.2846
   3336  O4        53.9760    6.8300   19.1500 O.2   155  U155       -0.2650
   3337  C5        53.2130    7.5160   21.2960 C.ar  155  U155        0.0814
   3338  C6        53.5290    8.2500   22.3730 C.ar  155  U155        0.0870
   3339  OP1       49.2130    9.2810   25.7790 O.3   155  U155       -0.4373
   3340  OP2       49.6400    7.7250   23.7770 O.co2 155  U155       -0.5172
   3341  P         51.9660   13.5040   23.4200 P.3   156  C156        0.2141
   3342  C5'       53.8860   14.9710   22.4370 C.3   156  C156        0.1812
   3343  O5'       52.8500   14.0450   22.2090 O.3   156  C156       -0.3114
   3344  C4'       54.9490   14.8030   21.3740 C.3   156  C156        0.1773
   3345  O4'       55.3280   13.4080   21.2510 O.3   156  C156       -0.3307
   3346  C3'       54.5210   15.1400   19.9570 C.3   156  C156        0.1860
   3347  O3'       54.4400   16.5380   19.7680 O.3   156  C156       -0.3112
   3348  C2'       55.6770   14.4920   19.2020 C.3   156  C156        0.2309
   3349  O2'       56.9250   15.1410   19.3840 O.3   156  C156       -0.2156
   3350  C1'       55.7080   13.1440   19.9100 C.3   156  C156        0.2420
   3351  N1        54.8020   12.1140   19.2990 N.ar  156  C156       -0.2535
   3352  C2        55.1110   11.5780   18.0350 C.ar  156  C156        0.3532
   3353  O2        56.1230   11.9590   17.4350 O.2   156  C156       -0.2443
   3354  N3        54.2860   10.6460   17.4960 N.ar  156  C156       -0.1739
   3355  C4        53.2020   10.2500   18.1650 C.ar  156  C156        0.1759
   3356  N4        52.4220    9.3280   17.5960 N.pl3 156  C156       -0.1070
   3357  C5        52.8660   10.7780   19.4500 C.ar  156  C156        0.0566
   3358  C6        53.6860   11.6960   19.9720 C.ar  156  C156        0.0850
   3359  OP1       51.4950   14.6420   24.2400 O.3   156  C156       -0.4373
   3360  OP2       50.9980   12.5580   22.8150 O.co2 156  C156       -0.5172
   3361  P         53.5210   17.1390   18.6080 P.3   157  C157        0.2141
   3362  C5'       55.4300   17.4500   16.8520 C.3   157  C157        0.1812
   3363  O5'       54.2870   16.7200   17.2690 O.3   157  C157       -0.3114
   3364  C4'       55.8510   17.0390   15.4560 C.3   157  C157        0.1773
   3365  O4'       56.1560   15.6250   15.4240 O.3   157  C157       -0.3307
   3366  C3'       54.7920   17.1700   14.3820 C.3   157  C157        0.1860
   3367  O3'       54.6840   18.4990   13.9750 O.3   157  C157       -0.3112
   3368  C2'       55.3780   16.2830   13.2980 C.3   157  C157        0.2309
   3369  O2'       56.4730   16.8600   12.6090 O.3   157  C157       -0.2156
   3370  C1'       55.8070   15.0930   14.1550 C.3   157  C157        0.2420
   3371  N1        54.7070   14.0810   14.3080 N.ar  157  C157       -0.2535
   3372  C2        54.3900   13.2100   13.2520 C.ar  157  C157        0.3532
   3373  O2        55.0300   13.2630   12.1960 O.2   157  C157       -0.2443
   3374  N3        53.3820   12.3140   13.4200 N.ar  157  C157       -0.1739
   3375  C4        52.7030   12.2710   14.5720 C.ar  157  C157        0.1759
   3376  N4        51.7200   11.3810   14.6970 N.pl3 157  C157       -0.1070
   3377  C5        53.0020   13.1450   15.6570 C.ar  157  C157        0.0566
   3378  C6        53.9990   14.0210   15.4800 C.ar  157  C157        0.0850
   3379  OP1       53.5650   18.6100   18.7700 O.3   157  C157       -0.4373
   3380  OP2       52.2120   16.4530   18.6140 O.co2 157  C157       -0.5172
   3381  P         53.2310   19.1380   13.7870 P.3   158  G158        0.2141
   3382  C5'       53.5380   18.9080   11.2140 C.3   158  G158        0.1812
   3383  O5'       52.8000   18.5360   12.3640 O.3   158  G158       -0.3114
   3384  C4'       53.4480   17.8660   10.1220 C.3   158  G158        0.1773
   3385  O4'       53.6530   16.5400   10.6500 O.3   158  G158       -0.3307
   3386  C3'       52.0870   17.7130    9.4760 C.3   158  G158        0.1860
   3387  O3'       51.7710   18.8160    8.6510 O.3   158  G158       -0.3112
   3388  C2'       52.3060   16.4150    8.7060 C.3   158  G158        0.2309
   3389  O2'       53.1520   16.5390    7.5810 O.3   158  G158       -0.2156
   3390  C1'       53.0280   15.6130    9.7780 C.3   158  G158        0.2408
   3391  N1        50.0340   11.4920    9.7080 N.ar  158  G158       -0.1709
   3392  C2        50.7580   12.0570    8.6800 C.ar  158  G158        0.2606
   3393  N2        50.6850   11.4550    7.4830 N.pl3 158  G158       -0.0859
   3394  N3        51.5110   13.1480    8.8200 N.ar  158  G158       -0.1918
   3395  C4        51.4790   13.6410   10.0870 C.ar  158  G158        0.1723
   3396  C5        50.7920   13.1500   11.1740 C.ar  158  G158        0.1748
   3397  C6        50.0000   11.9920   11.0110 C.ar  158  G158        0.3023
   3398  O6        49.3240   11.4250   11.8680 O.2   158  G158       -0.2633
   3399  N7        51.0150   13.9320   12.2970 N.ar  158  G158       -0.2173
   3400  C8        51.8240   14.8640   11.8790 C.ar  158  G158        0.1817
   3401  N9        52.1470   14.7500   10.5490 N.ar  158  G158       -0.2693
   3402  OP1       53.4300   20.6040   13.6910 O.2   158  G158       -0.5172
   3403  OP2       52.3040   18.6020   14.8150 O.co2 158  G158       -0.4373
   3404  P         50.2340   19.2090    8.5100 P.3   159  U159        0.2141
   3405  C5'       49.9560   17.8860    6.2410 C.3   159  U159        0.1812
   3406  O5'       49.6700   18.0030    7.6250 O.3   159  U159       -0.3114
   3407  C4'       49.2290   16.6760    5.7010 C.3   159  U159        0.1773
   3408  O4'       49.6080   15.5230    6.4940 O.3   159  U159       -0.3307
   3409  C3'       47.7150   16.7130    5.8550 C.3   159  U159        0.1860
   3410  O3'       47.0700   17.5010    4.8500 O.3   159  U159       -0.3112
   3411  C2'       47.3640   15.2240    5.7870 C.3   159  U159        0.2309
   3412  O2'       47.2140   14.7010    4.4800 O.3   159  U159       -0.2156
   3413  C1'       48.5390   14.5920    6.5320 C.3   159  U159        0.2420
   3414  N1        48.1250   14.3520    7.9280 N.ar  159  U159       -0.2534
   3415  C2        47.2960   13.2870    8.2000 C.ar  159  U159        0.3546
   3416  O2        46.8990   12.5030    7.3610 O.2   159  U159       -0.2443
   3417  N3        46.9450   13.1530    9.5150 N.ar  159  U159       -0.1530
   3418  C4        47.3240   13.9710   10.5580 C.ar  159  U159        0.2846
   3419  O4        46.9200   13.7200   11.6830 O.2   159  U159       -0.2650
   3420  C5        48.1820   15.0690   10.2040 C.ar  159  U159        0.0814
   3421  C6        48.5410   15.2100    8.9270 C.ar  159  U159        0.0870
   3422  OP1       50.1490   20.4680    7.7340 O.2   159  U159       -0.5172
   3423  OP2       49.6040   19.1160    9.8490 O.co2 159  U159       -0.4373
   3424  P         45.6010   18.0770    5.1320 P.3   160  G160        0.2141
   3425  C5'       44.2200   16.1440    4.0460 C.3   160  G160        0.1812
   3426  O5'       44.7050   16.7600    5.2230 O.3   160  G160       -0.3114
   3427  C4'       43.4640   14.8780    4.3870 C.3   160  G160        0.1773
   3428  O4'       44.1910   14.0930    5.3630 O.3   160  G160       -0.3307
   3429  C3'       42.1160   15.0910    5.0430 C.3   160  G160        0.1860
   3430  O3'       41.1570   15.4690    4.0640 O.3   160  G160       -0.3112
   3431  C2'       41.8820   13.7010    5.6220 C.3   160  G160        0.2309
   3432  O2'       41.5030   12.7480    4.6510 O.3   160  G160       -0.2156
   3433  C1'       43.2690   13.3580    6.1430 C.3   160  G160        0.2408
   3434  N1        42.4700   11.8680   10.9420 N.ar  160  G160       -0.1709
   3435  C2        42.1740   11.2170    9.7640 C.ar  160  G160        0.2606
   3436  N2        41.5900   10.0210    9.8810 N.pl3 160  G160       -0.0859
   3437  N3        42.4300   11.7080    8.5560 N.ar  160  G160       -0.1918
   3438  C4        43.0220   12.9320    8.6250 C.ar  160  G160        0.1723
   3439  C5        43.3520   13.6620    9.7550 C.ar  160  G160        0.1748
   3440  C6        43.0690   13.1220   11.0420 C.ar  160  G160        0.3023
   3441  O6        43.2860   13.6070   12.1660 O.2   160  G160       -0.2633
   3442  N7        43.9450   14.8650    9.3900 N.ar  160  G160       -0.2173
   3443  C8        43.9580   14.8430    8.0850 C.ar  160  G160        0.1817
   3444  N9        43.4180   13.7000    7.5520 N.ar  160  G160       -0.2693
   3445  OP1       45.1800   18.8690    3.9620 O.2   160  G160       -0.5172
   3446  OP2       45.5770   18.6870    6.4770 O.co2 160  G160       -0.4373
   3447  P         39.8210   16.2510    4.4900 P.3   161  G161        0.2141
   3448  C5'       38.4600   13.9850    4.2310 C.3   161  G161        0.1812
   3449  O5'       38.8710   15.0890    5.0530 O.3   161  G161       -0.3114
   3450  C4'       37.9550   12.8300    5.0830 C.3   161  G161        0.1773
   3451  O4'       38.9480   12.4050    6.0410 O.3   161  G161       -0.3307
   3452  C3'       36.7960   13.1900    5.9750 C.3   161  G161        0.1860
   3453  O3'       35.6470   13.1080    5.2090 O.3   161  G161       -0.3112
   3454  C2'       36.8330   12.1090    7.0410 C.3   161  G161        0.2309
   3455  O2'       36.2060   10.9120    6.6310 O.3   161  G161       -0.2156
   3456  C1'       38.3290   11.9060    7.2080 C.3   161  G161        0.2408
   3457  N1        38.9830   12.0520   12.2880 N.ar  161  G161       -0.1709
   3458  C2        38.3010   11.1230   11.5260 C.ar  161  G161        0.2606
   3459  N2        37.7280   10.1120   12.1910 N.pl3 161  G161       -0.0859
   3460  N3        38.1850   11.1760   10.2020 N.ar  161  G161       -0.1918
   3461  C4        38.8240   12.2600    9.6840 C.ar  161  G161        0.1723
   3462  C5        39.5300   13.2370   10.3590 C.ar  161  G161        0.1748
   3463  C6        39.6480   13.1680   11.7710 C.ar  161  G161        0.3023
   3464  O6        40.2440   13.9640   12.5190 O.2   161  G161       -0.2633
   3465  N7        40.0370   14.1780    9.4840 N.ar  161  G161       -0.2173
   3466  C8        39.6380   13.7640    8.3170 C.ar  161  G161        0.1817
   3467  N9        38.8980   12.6110    8.3540 N.ar  161  G161       -0.2693
   3468  OP1       39.2490   16.7960    3.2370 O.2   161  G161       -0.5172
   3469  OP2       40.1090   17.1360    5.6460 O.co2 161  G161       -0.4373
   3470  P         34.5580   14.2630    5.3430 P.3   162  A162        0.2141
   3471  C5'       33.1860   12.2280    6.3170 C.3   162  A162        0.1812
   3472  O5'       33.5150   13.6180    6.3600 O.3   162  A162       -0.3114
   3473  C4'       32.9930   11.7300    7.7390 C.3   162  A162        0.1773
   3474  O4'       34.1270   12.1400    8.5510 O.3   162  A162       -0.3307
   3475  C3'       31.7590   12.2710    8.4500 C.3   162  A162        0.1860
   3476  O3'       31.2390   11.2580    9.2810 O.3   162  A162       -0.3112
   3477  C2'       32.3250   13.4410    9.2470 C.3   162  A162        0.2309
   3478  O2'       31.4970   13.8190   10.3300 O.3   162  A162       -0.2156
   3479  C1'       33.6630   12.8390    9.6820 C.3   162  A162        0.2408
   3480  N1        36.9630   14.2590   13.3420 N.ar  162  A162       -0.2040
   3481  C2        36.0750   13.2600   13.2750 C.ar  162  A162        0.2016
   3482  N3        35.2450   12.9510   12.2840 N.ar  162  A162       -0.2048
   3483  C4        35.3930   13.8040   11.2570 C.ar  162  A162        0.1692
   3484  C5        36.2650   14.8810   11.1780 C.ar  162  A162        0.1518
   3485  C6        37.0930   15.1120   12.3010 C.ar  162  A162        0.1919
   3486  N6        37.9920   16.1070   12.3840 N.pl3 162  A162       -0.1054
   3487  N7        36.1300   15.5320    9.9600 N.ar  162  A162       -0.2193
   3488  C8        35.1960   14.8420    9.3430 C.ar  162  A162        0.1816
   3489  N9        34.7030   13.7900   10.0680 N.ar  162  A162       -0.2693
   3490  OP1       33.9220   14.3990    4.0010 O.2   162  A162       -0.5172
   3491  OP2       35.1550   15.4330    6.0320 O.co2 162  A162       -0.4373
   3492  P         29.6590   11.0130    9.3590 P.3   163  G163        0.2141
   3493  C5'       30.0260   11.1280   11.9670 C.3   163  G163        0.1812
   3494  O5'       29.4510   10.4590   10.8530 O.3   163  G163       -0.3114
   3495  C4'       29.2670   10.8050   13.2400 C.3   163  G163        0.1773
   3496  O4'       30.2130   10.6240   14.3190 O.3   163  G163       -0.3307
   3497  C3'       28.2960   11.8730   13.7310 C.3   163  G163        0.1860
   3498  O3'       27.2170   11.2820   14.4170 O.3   163  G163       -0.3112
   3499  C2'       29.1170   12.6610   14.7400 C.3   163  G163        0.2309
   3500  O2'       28.3070   13.2830   15.7240 O.3   163  G163       -0.2156
   3501  C1'       29.9580   11.5460   15.3520 C.3   163  G163        0.2408
   3502  N1        32.5110   12.6070   19.5770 N.ar  163  G163       -0.1709
   3503  C2        31.2350   12.1090   19.4150 C.ar  163  G163        0.2606
   3504  N2        30.5330   11.8530   20.5280 N.pl3 163  G163       -0.0859
   3505  N3        30.6810   11.8710   18.2380 N.ar  163  G163       -0.1918
   3506  C4        31.5140   12.1810   17.2180 C.ar  163  G163        0.1723
   3507  C5        32.7960   12.6830   17.2650 C.ar  163  G163        0.1748
   3508  C6        33.3830   12.9330   18.5330 C.ar  163  G163        0.3023
   3509  O6        34.5120   13.3810   18.7870 O.2   163  G163       -0.2633
   3510  N7        33.3040   12.8540   15.9820 N.ar  163  G163       -0.2173
   3511  C8        32.3340   12.4620   15.2050 C.ar  163  G163        0.1817
   3512  N9        31.2210   12.0370   15.8880 N.ar  163  G163       -0.2693
   3513  OP1       29.3160    9.8910    8.4510 O.2   163  G163       -0.5172
   3514  OP2       28.9940   12.3290    9.2040 O.co2 163  G163       -0.4373
   3515  P         25.9350   10.7190   13.6550 P.3   164  A164        0.2141
   3516  C5'       25.6830    8.0200   13.6970 C.3   164  A164        0.1812
   3517  O5'       26.4470    9.2100   13.4370 O.3   164  A164       -0.3114
   3518  C4'       25.9560    6.9780   12.6120 C.3   164  A164        0.1773
   3519  O4'       25.1810    7.2660   11.4130 O.3   164  A164       -0.3307
   3520  C3'       27.4060    6.9060   12.1410 C.3   164  A164        0.1860
   3521  O3'       27.7920    5.5730   11.8270 O.3   164  A164       -0.3112
   3522  C2'       27.3850    7.7620   10.8860 C.3   164  A164        0.2309
   3523  O2'       28.4460    7.4240   10.0290 O.3   164  A164       -0.2156
   3524  C1'       26.0380    7.3670   10.3030 C.3   164  A164        0.2408
   3525  N1        24.3820    8.3860    5.5110 N.ar  164  A164       -0.2040
   3526  C2        24.8010    7.2430    6.0830 C.ar  164  A164        0.2016
   3527  N3        25.2160    7.0480    7.3440 N.ar  164  A164       -0.2048
   3528  C4        25.1800    8.1930    8.0600 C.ar  164  A164        0.1692
   3529  C5        24.7750    9.4410    7.6020 C.ar  164  A164        0.1518
   3530  C6        24.3570    9.5220    6.2530 C.ar  164  A164        0.1919
   3531  N6        23.9420   10.6600    5.6830 N.pl3 164  A164       -0.1054
   3532  N7        24.8670   10.3880    8.6070 N.ar  164  A164       -0.2193
   3533  C8        25.3180    9.7020    9.6350 C.ar  164  A164        0.1816
   3534  N9        25.5260    8.3710    9.3810 N.ar  164  A164       -0.2693
   3535  OP1       25.7830   11.4280   12.3570 O.2   164  A164       -0.5172
   3536  OP2       24.8070   10.7340   14.6220 O.co2 164  A164       -0.4373
   3537  P         28.8030    4.7610   12.7650 P.3   165  G165        0.2141
   3538  C5'       31.0660    5.9210   11.9510 C.3   165  G165        0.1812
   3539  O5'       30.0430    5.7670   12.9420 O.3   165  G165       -0.3114
   3540  C4'       32.1670    6.8450   12.4480 C.3   165  G165        0.1773
   3541  O4'       31.6170    8.0480   13.0450 O.3   165  G165       -0.3307
   3542  C3'       33.0190    6.2720   13.5630 C.3   165  G165        0.1860
   3543  O3'       34.0220    5.4760   13.0290 O.3   165  G165       -0.3112
   3544  C2'       33.5970    7.5070   14.2380 C.3   165  G165        0.2309
   3545  O2'       34.6700    8.1360   13.5640 O.3   165  G165       -0.2156
   3546  C1'       32.3880    8.4130   14.1780 C.3   165  G165        0.2408
   3547  N1        32.3110    9.1680   19.2100 N.ar  165  G165       -0.1709
   3548  C2        33.3300    9.3740   18.3170 C.ar  165  G165        0.2606
   3549  N2        34.4790    9.8360   18.8230 N.pl3 165  G165       -0.0859
   3550  N3        33.2300    9.1280   17.0160 N.ar  165  G165       -0.1918
   3551  C4        32.0030    8.6630   16.6590 C.ar  165  G165        0.1723
   3552  C5        30.9200    8.4310   17.4720 C.ar  165  G165        0.1748
   3553  C6        31.0460    8.6970   18.8660 C.ar  165  G165        0.3023
   3554  O6        30.1990    8.5580   19.7560 O.2   165  G165       -0.2633
   3555  N7        29.8470    7.9520   16.7280 N.ar  165  G165       -0.2173
   3556  C8        30.2910    7.9050   15.5100 C.ar  165  G165        0.1817
   3557  N9        31.5910    8.3260   15.3930 N.ar  165  G165       -0.2693
   3558  OP1       29.2500    3.5820   11.9940 O.2   165  G165       -0.5172
   3559  OP2       28.1510    4.5710   14.0900 O.co2 165  G165       -0.4373
   3560  P         34.2120    4.0260   13.6440 P.3   166  C166        0.2141
   3561  C5'       36.3340    5.0540   14.8180 C.3   166  C166        0.1812
   3562  O5'       35.1650    4.2470   14.9030 O.3   166  C166       -0.3114
   3563  C4'       36.6400    5.6410   16.1800 C.3   166  C166        0.1773
   3564  O4'       35.5730    6.5210   16.6050 O.3   166  C166       -0.3307
   3565  C3'       36.6630    4.6150   17.2970 C.3   166  C166        0.1860
   3566  O3'       37.8700    3.8630   17.2830 O.3   166  C166       -0.3112
   3567  C2'       36.5190    5.5090   18.5200 C.3   166  C166        0.2309
   3568  O2'       37.7240    6.1430   18.9010 O.3   166  C166       -0.2156
   3569  C1'       35.5130    6.5400   18.0180 C.3   166  C166        0.2420
   3570  N1        34.1320    6.2160   18.4700 N.ar  166  C166       -0.2535
   3571  C2        33.7740    6.4070   19.8210 C.ar  166  C166        0.3532
   3572  O2        34.6080    6.8530   20.6220 O.2   166  C166       -0.2443
   3573  N3        32.5120    6.0970   20.2200 N.ar  166  C166       -0.1739
   3574  C4        31.6320    5.6130   19.3420 C.ar  166  C166        0.1759
   3575  N4        30.4070    5.3270   19.7840 N.pl3 166  C166       -0.1070
   3576  C5        31.9730    5.4070   17.9690 C.ar  166  C166        0.0566
   3577  C6        33.2200    5.7150   17.5800 C.ar  166  C166        0.0850
   3578  OP1       34.9220    3.2580   12.5990 O.2   166  C166       -0.5172
   3579  OP2       32.9360    3.5410   14.2260 O.co2 166  C166       -0.4373
   3580  P         37.8400    2.3480   17.7910 P.3   167  C167        0.2141
   3581  C5'       39.0000    3.2150   19.9730 C.3   167  C167        0.1812
   3582  O5'       37.8940    2.5550   19.3770 O.3   167  C167       -0.3114
   3583  C4'       38.7630    3.2520   21.4530 C.3   167  C167        0.1773
   3584  O4'       37.6090    4.0720   21.7360 O.3   167  C167       -0.3307
   3585  C3'       38.3200    1.9180   21.9690 C.3   167  C167        0.1860
   3586  O3'       39.4470    1.0920   22.1250 O.3   167  C167       -0.3112
   3587  C2'       37.6400    2.3110   23.2790 C.3   167  C167        0.2309
   3588  O2'       38.5350    2.6740   24.3100 O.3   167  C167       -0.2156
   3589  C1'       36.8560    3.5210   22.8070 C.3   167  C167        0.2420
   3590  N1        35.4390    3.2040   22.3670 N.ar  167  C167       -0.2535
   3591  C2        34.4130    3.1170   23.3240 C.ar  167  C167        0.3532
   3592  O2        34.6710    3.3010   24.5230 O.2   167  C167       -0.2443
   3593  N3        33.1450    2.8380   22.9140 N.ar  167  C167       -0.1739
   3594  C4        32.8840    2.6470   21.6160 C.ar  167  C167        0.1759
   3595  N4        31.6250    2.3690   21.2610 N.pl3 167  C167       -0.1070
   3596  C5        33.9080    2.7240   20.6250 C.ar  167  C167        0.0566
   3597  C6        35.1500    3.0000   21.0440 C.ar  167  C167        0.0850
   3598  OP1       39.0860    1.6950   17.3340 O.2   167  C167       -0.5172
   3599  OP2       36.5180    1.7580   17.4700 O.co2 167  C167       -0.4373
   3600  P         39.2090   -0.4900   22.1510 P.3   168  G168        0.2141
   3601  C5'       37.3100   -1.4080   23.6150 C.3   168  G168        0.1812
   3602  O5'       38.4800   -0.6590   23.5580 O.3   168  G168       -0.3114
   3603  C4'       36.7850   -1.3290   25.0180 C.3   168  G168        0.1773
   3604  O4'       35.9290   -0.1730   25.1290 O.3   168  G168       -0.3307
   3605  C3'       35.9280   -2.5190   25.3770 C.3   168  G168        0.1860
   3606  O3'       36.7410   -3.4580   26.0290 O.3   168  G168       -0.3112
   3607  C2'       34.8960   -1.9100   26.3070 C.3   168  G168        0.2309
   3608  O2'       35.3890   -1.7660   27.6290 O.3   168  G168       -0.2156
   3609  C1'       34.6660   -0.5620   25.6200 C.3   168  G168        0.2408
   3610  N1        29.8120   -1.1870   24.1630 N.ar  168  G168       -0.1709
   3611  C2        30.3660   -1.2400   25.4260 C.ar  168  G168        0.2606
   3612  N2        29.5350   -1.4850   26.4410 N.pl3 168  G168       -0.0859
   3613  N3        31.6480   -1.0510   25.6870 N.ar  168  G168       -0.1918
   3614  C4        32.3590   -0.8120   24.5630 C.ar  168  G168        0.1723
   3615  C5        31.9030   -0.7440   23.2580 C.ar  168  G168        0.1748
   3616  C6        30.5310   -0.9380   22.9960 C.ar  168  G168        0.3023
   3617  O6        29.9610   -0.9130   21.9010 O.2   168  G168       -0.2633
   3618  N7        32.9380   -0.4820   22.3760 N.ar  168  G168       -0.2173
   3619  C8        33.9820   -0.3980   23.1580 C.ar  168  G168        0.1817
   3620  N9        33.7160   -0.5910   24.5010 N.ar  168  G168       -0.2693
   3621  OP1       40.5280   -1.1640   22.2440 O.3   168  G168       -0.4373
   3622  OP2       38.2400   -0.8260   21.0710 O.co2 168  G168       -0.5172
   3623  P         36.6520   -4.9990   25.6250 P.3   169  U169        0.2141
   3624  C5'       35.0850   -5.3540   27.6550 C.3   169  U169        0.1812
   3625  O5'       35.2490   -5.4340   26.2440 O.3   169  U169       -0.3114
   3626  C4'       33.6480   -5.6210   28.0370 C.3   169  U169        0.1773
   3627  O4'       32.8190   -4.5250   27.5890 O.3   169  U169       -0.3307
   3628  C3'       33.0270   -6.8240   27.3510 C.3   169  U169        0.1860
   3629  O3'       33.4480   -8.0500   27.9540 O.3   169  U169       -0.3112
   3630  C2'       31.5530   -6.5220   27.5630 C.3   169  U169        0.2309
   3631  O2'       31.1400   -6.7590   28.8890 O.3   169  U169       -0.2156
   3632  C1'       31.5260   -5.0250   27.2900 C.3   169  U169        0.2420
   3633  N1        31.1250   -4.7210   25.8750 N.ar  169  U169       -0.2534
   3634  C2        29.7720   -4.7300   25.5430 C.ar  169  U169        0.3546
   3635  O2        28.8650   -4.9720   26.3270 O.2   169  U169       -0.2443
   3636  N3        29.5070   -4.4410   24.2240 N.ar  169  U169       -0.1530
   3637  C4        30.4330   -4.1640   23.2300 C.ar  169  U169        0.2846
   3638  O4        30.0330   -3.9340   22.1010 O.2   169  U169       -0.2650
   3639  C5        31.8170   -4.1750   23.6440 C.ar  169  U169        0.0814
   3640  C6        32.1030   -4.4440   24.9270 C.ar  169  U169        0.0870
   3641  OP1       37.7280   -5.6800   26.3900 O.3   169  U169       -0.4373
   3642  OP2       36.5770   -5.1110   24.1470 O.co2 169  U169       -0.5172
   3643  P         33.4180   -9.3840   27.0710 P.3   170  C170        0.2141
   3644  C5'       31.2370  -10.0960   25.7900 C.3   170  C170        0.1812
   3645  O5'       31.8610   -9.7110   27.0000 O.3   170  C170       -0.3114
   3646  C4'       29.7430   -9.9350   25.9730 C.3   170  C170        0.1773
   3647  O4'       29.4000   -8.5310   25.8470 O.3   170  C170       -0.3307
   3648  C3'       28.8610  -10.6450   24.9570 C.3   170  C170        0.1860
   3649  O3'       28.6620  -12.0210   25.2940 O.3   170  C170       -0.3112
   3650  C2'       27.6050   -9.7830   25.0680 C.3   170  C170        0.2309
   3651  O2'       26.9070   -9.9420   26.2890 O.3   170  C170       -0.2156
   3652  C1'       28.2470   -8.4040   25.0430 C.3   170  C170        0.2420
   3653  N1        28.6390   -7.8820   23.6770 N.ar  170  C170       -0.2535
   3654  C2        27.6610   -7.3720   22.8000 C.ar  170  C170        0.3532
   3655  O2        26.4710   -7.3620   23.1430 O.2   170  C170       -0.2443
   3656  N3        28.0460   -6.8970   21.5780 N.ar  170  C170       -0.1739
   3657  C4        29.3370   -6.9140   21.2220 C.ar  170  C170        0.1759
   3658  N4        29.6690   -6.4400   20.0230 N.pl3 170  C170       -0.1070
   3659  C5        30.3470   -7.4210   22.0930 C.ar  170  C170        0.0566
   3660  C6        29.9560   -7.8810   23.2900 C.ar  170  C170        0.0850
   3661  OP1       34.0680  -10.4490   27.8570 O.3   170  C170       -0.4373
   3662  OP2       33.8930   -9.0730   25.7030 O.co2 170  C170       -0.5172
   3663  P         28.4490  -13.1190   24.1480 P.3   171  G171        0.2141
   3664  C5'       25.7820  -13.2940   24.1020 C.3   171  G171        0.1812
   3665  O5'       26.9970  -12.7480   23.5730 O.3   171  G171       -0.3114
   3666  C4'       24.5600  -12.7530   23.3680 C.3   171  G171        0.1773
   3667  O4'       24.6700  -11.3110   23.1880 O.3   171  G171       -0.3307
   3668  C3'       24.3570  -13.2580   21.9430 C.3   171  G171        0.1860
   3669  O3'       23.7720  -14.5440   21.8810 O.3   171  G171       -0.3112
   3670  C2'       23.4330  -12.1870   21.3810 C.3   171  G171        0.2309
   3671  O2'       22.1010  -12.2750   21.8400 O.3   171  G171       -0.2156
   3672  C1'       24.1140  -10.9410   21.9350 C.3   171  G171        0.2408
   3673  N1        24.9610   -8.8320   17.3980 N.ar  171  G171       -0.1709
   3674  C2        23.7780   -9.1880   17.9900 C.ar  171  G171        0.2606
   3675  N2        22.6530   -8.9620   17.3070 N.pl3 171  G171       -0.0859
   3676  N3        23.7000   -9.7330   19.1880 N.ar  171  G171       -0.1918
   3677  C4        24.9170   -9.9040   19.7660 C.ar  171  G171        0.1723
   3678  C5        26.1530   -9.5800   19.2580 C.ar  171  G171        0.1748
   3679  C6        26.2220   -8.9950   17.9710 C.ar  171  G171        0.3023
   3680  O6        27.2300   -8.6420   17.3420 O.2   171  G171       -0.2633
   3681  N7        27.1550   -9.9120   20.1580 N.ar  171  G171       -0.2173
   3682  C8        26.5130  -10.4210   21.1790 C.ar  171  G171        0.1817
   3683  N9        25.1450  -10.4430   21.0150 N.ar  171  G171       -0.2693
   3684  OP1       28.4450  -14.4640   24.7680 O.3   171  G171       -0.4373
   3685  OP2       29.4240  -12.8350   23.0730 O.co2 171  G171       -0.5172
   3686  P         24.4730  -15.6810   20.9930 P.3   172  G172        0.2141
   3687  C5'       22.2460  -15.3750   19.6200 C.3   172  G172        0.1812
   3688  O5'       23.6090  -15.7830   19.6520 O.3   172  G172       -0.3114
   3689  C4'       21.9230  -14.5630   18.3780 C.3   172  G172        0.1773
   3690  O4'       22.4640  -13.2240   18.4840 O.3   172  G172       -0.3307
   3691  C3'       22.5180  -15.0570   17.0640 C.3   172  G172        0.1860
   3692  O3'       21.8340  -16.1770   16.5630 O.3   172  G172       -0.3112
   3693  C2'       22.2920  -13.8380   16.1890 C.3   172  G172        0.2309
   3694  O2'       20.9430  -13.6970   15.7930 O.3   172  G172       -0.2156
   3695  C1'       22.7160  -12.7470   17.1700 C.3   172  G172        0.2408
   3696  N1        26.3210  -10.5980   14.2780 N.ar  172  G172       -0.1709
   3697  C2        24.9630  -10.6980   14.0540 C.ar  172  G172        0.2606
   3698  N2        24.5050  -10.1600   12.9200 N.pl3 172  G172       -0.0859
   3699  N3        24.1080  -11.2860   14.8820 N.ar  172  G172       -0.1918
   3700  C4        24.7320  -11.7780   15.9840 C.ar  172  G172        0.1723
   3701  C5        26.0730  -11.7320   16.2990 C.ar  172  G172        0.1748
   3702  C6        26.9740  -11.1000   15.4070 C.ar  172  G172        0.3023
   3703  O6        28.2010  -10.9770   15.5310 O.2   172  G172       -0.2633
   3704  N7        26.3150  -12.3530   17.5130 N.ar  172  G172       -0.2173
   3705  C8        25.1420  -12.7560   17.9070 C.ar  172  G172        0.1817
   3706  N9        24.1340  -12.4370   17.0340 N.ar  172  G172       -0.2693
   3707  OP1       24.3520  -16.9350   21.7630 O.3   172  G172       -0.4373
   3708  OP2       25.8120  -15.2200   20.5730 O.co2 172  G172       -0.5172
   3709  P         22.6340  -17.2610   15.7020 P.3   173  U173        0.2141
   3710  C5'       22.1370  -16.3420   13.2830 C.3   173  U173        0.1813
   3711  O5'       23.0410  -16.4570   14.3790 O.3   173  U173       -0.3114
   3712  C4'       22.6220  -15.2920   12.3080 C.3   173  U173        0.1801
   3713  O4'       23.2430  -14.2090   13.0460 O.3   173  U173       -0.3306
   3714  C3'       23.7190  -15.7580   11.3680 C.3   173  U173        0.2161
   3715  O3'       23.1730  -16.4220   10.2520 O.3   173  U173       -0.2175
   3716  C2'       24.3570  -14.4390   10.9710 C.3   173  U173        0.2338
   3717  O2'       23.5910  -13.7640    9.9940 O.3   173  U173       -0.2155
   3718  C1'       24.3390  -13.6920   12.3080 C.3   173  U173        0.2421
   3719  N1        25.6050  -13.8290   13.1280 N.ar  173  U173       -0.2534
   3720  C2        26.7770  -13.1860   12.7370 C.ar  173  U173        0.3546
   3721  O2        26.8850  -12.4820   11.7510 O.2   173  U173       -0.2443
   3722  N3        27.8550  -13.3950   13.5640 N.ar  173  U173       -0.1530
   3723  C4        27.8850  -14.1660   14.7180 C.ar  173  U173        0.2846
   3724  O4        28.9250  -14.2550   15.3620 O.2   173  U173       -0.2650
   3725  C5        26.6380  -14.8010   15.0650 C.ar  173  U173        0.0814
   3726  C6        25.5750  -14.6110   14.2730 C.ar  173  U173        0.0870
   3727  OP1       21.6530  -18.3140   15.3550 O.2   173  U173       -0.5172
   3728  OP2       23.8860  -17.6290   16.3980 O.co2 173  U173       -0.4373
@<TRIPOS>BOND
     1  1040  1019    2
     2  1003  1019    1
     3  1003  1002    1
     4  1017   997    2
     5  1019  1021    1
     6  1019  1041    1
     7  1020  1021    1
     8  1020  1022    1
     9   998  1000    1
    10   998   999    1
    11  1000  1002    1
    12  1000  1001    1
    13  1005  1004    1
    14  1063  1042    2
    15  1002  1004    1
    16   982   981    1
    17   980   997    1
    18   980   979    1
    19   997   999    1
    20   997  1018    1
    21  1022  1024    1
    22  1022  1023    1
    23  1025  1042    1
    24  1025  1024    1
    25  1001  1006    1
    26   861   843    2
    27   862   843    1
    28  1004  1006    1
    29   881   863    2
    30  1042  1064    1
    31  1042  1044    1
    32  1024  1026    1
    33   843   845    1
    34   843   827    1
    35  1006  1016    1
    36  1023  1028    1
    37   981   979    1
    38   981   983    1
    39   979   977    1
    40   977   975    1
    41   977   978    1
    42   844   845    1
    43   844   846    1
    44   995   974    2
    45   882   863    1
    46   863   849    1
    47   863   865    1
    48  1044  1043    1
    49  1027  1026    1
    50   848   849    1
    51   848   846    1
    52   848   850    1
    53   841   821    2
    54   827   826    1
    55  1026  1028    1
    56   975   976    1
    57   978   983    1
    58   983   994    1
    59  1016  1015   ar
    60  1016  1010   ar
    61   823   821    1
    62   823   822    1
    63   846   847    1
    64  1028  1039    1
    65   851   850    1
    66   850   852    1
    67   826   828    1
    68   826   824    1
    69  1043  1045    1
    70  1015  1014   ar
    71   865   864    1
    72  2138  2137    1
    73   959   958    1
    74  1038  1039   ar
    75  1038  1037   ar
    76   821   842    1
    77   821   807    1
    78   974   976    1
    79   974   957    1
    80   974   996    1
    81   829   828    1
    82   822   824    1
    83  1039  1033   ar
    84   957   956    1
    85   987   985   ar
    86   987   988   ar
    87   986   985    1
    88   828   830    1
    89  1010  1009   ar
    90  1010  1011   ar
    91   824   825    1
    92   994   988   ar
    93   994   993   ar
    94  1009  1008   ar
    95   847   852    1
    96  1037  1034   ar
    97  1085  1065    2
    98   852   853    1
    99  1014  1011   ar
   100   958   956    1
   101   958   960    1
   102   985   984   ar
   103   963   962    1
   104   988   989   ar
   105  1045  1046    1
   106  1045  1047    1
   107  2137  2139    1
   108  2137  2135    1
   109   864   866    1
   110   807   806    1
   111  2139  2134    1
   112  2139  2140    1
   113  2142  2141    2
   114  2134  2133    1
   115   956   954    1
   116  2133  2135    1
   117  2133  2131    1
   118  1011  1012   ar
   119  1046  1051    1
   120   860   853   ar
   121   860   859   ar
   122  2158  2157    1
   123  2153  2151    1
   124  2153  2154    1
   125  2153  2155    1
   126  1033  1034   ar
   127  1033  1032   ar
   128  2151  2152    1
   129   993   992   ar
   130  2118  2117    1
   131  2136  2135    1
   132  2136  2150    1
   133  2154  2159    1
   134   853   854   ar
   135   830   825    1
   136   830   840    1
   137   964   962   ar
   138   964   965   ar
   139   866   867    1
   140   866   868    1
   141  1034  1035   ar
   142  1008  1007   ar
   143  2122  2121    2
   144   962   961   ar
   145  1065  1048    1
   146  1065  1086    1
   147  1065  1067    1
   148  1047  1048    1
   149  1047  1049    1
   150   867   872    1
   151   954   955    1
   152   954   952    1
   153  1061  1060   ar
   154  1061  1062   ar
   155   960   955    1
   156   960   971    1
   157   859   857   ar
   158   984   990   ar
   159   989   992   ar
   160   989   990   ar
   161  2131  2132    1
   162  2141  2140   ar
   163  2141  2143   ar
   164  2168  2150    2
   165  2140  2147   ar
   166  2159  2157    1
   167  2159  2160    1
   168   819   801    2
   169  1032  1030   ar
   170   806   804    1
   171   806   808    1
   172  2157  2155    1
   173  1898  1877    2
   174  2156  2155    1
   175  2156  2170    1
   176  1060  1057   ar
   177  2152  2150    1
   178  1012  1007   ar
   179  1012  1013    1
   180   854   855    2
   181   854   856   ar
   182   809   808    1
   183  2150  2169    1
   184  2117  2119    1
   185  2117  2115    1
   186  1051  1062    1
   187  1051  1049    1
   188   965   971   ar
   189   965   966   ar
   190   840   839   ar
   191   840   834   ar
   192   990   991    2
   193   961   967   ar
   194  1918  1900    2
   195   971   970   ar
   196  1062  1056   ar
   197   802   804    1
   198   802   803    1
   199  2121  2123   ar
   200  2121  2120   ar
   201   872   873    1
   202   872   870    1
   203  2119  2120    1
   204  2119  2114    1
   205   869   868    1
   206   869   883    1
   207   952   953    1
   208   804   805    1
   209   839   838   ar
   210  1035  1036    2
   211  1035  1029   ar
   212  1878  1880    1
   213  1878  1879    1
   214   868   870    1
   215  1067  1066    1
   216   808   810    1
   217   857   856   ar
   218   857   858    2
   219  1049  1050    1
   220  2143  2144   ar
   221  2147  2146   ar
   222   904   883    2
   223  1863  1877    1
   224  1863  1862    1
   225  1124  1123    2
   226  2132  2130    1
   227  1030  1029   ar
   228  1030  1031    1
   229  2160  2167   ar
   230  2160  2161   ar
   231   880   873   ar
   232   880   879   ar
   233   903   883    1
   234   803   801    1
   235   801   820    1
   236   801   787    1
   237  1865  1864    1
   238  2123  2124   ar
   239   873   874   ar
   240  2191  2170    2
   241  1883  1900    1
   242  1883  1882    1
   243  1880  1882    1
   244  1880  1881    1
   245  2120  2127   ar
   246  2171  2173    1
   247  2171  2172    1
   248  1877  1879    1
   249  1877  1899    1
   250  2382  2384    1
   251  2382  2383    1
   252   883   885    1
   253  2116  2115    1
   254  2116  2130    1
   255  2162  2161    2
   256  2384  2385    1
   257  2384  2386    1
   258  2114  2113    1
   259  1066  1068    1
   260   834   833   ar
   261   834   835   ar
   262   966   967   ar
   263   966   969   ar
   264  2170  2172    1
   265  2170  2192    1
   266  1057  1056   ar
   267  1057  1058   ar
   268   870   871    1
   269  2115  2113    1
   270   967   968    2
   271  2102  2101    2
   272  2167  2166   ar
   273   953   951    1
   274  1900  1919    1
   275  1900  1902    1
   276   833   832   ar
   277   879   877   ar
   278  1123  1122   ar
   279  1123  1125   ar
   280  2938  2920    2
   281  2113  2111    1
   282  2389  2388    1
   283   970   969   ar
   284  1860  1858    1
   285  1860  1862    1
   286  1860  1861    1
   287   838   835   ar
   288  1056  1055   ar
   289   972   951    2
   290  2161  2163   ar
   291   874   875    2
   292   874   876   ar
   293  1858  1859    1
   294  2385  2390    1
   295  2144  2146   ar
   296  2144  2145    1
   297  1122  1120   ar
   298  2387  2386    1
   299  2387  2401    1
   300  2173  2174    1
   301  2173  2175    1
   302  1108  1087    2
   303  2400  2381    2
   304  2174  2179    1
   305   805   810    1
   306  2419  2401    2
   307  1882  1884    1
   308  1862  1864    1
   309  3468  3447    2
   310  2130  2148    2
   311  2130  2149    1
   312  1103  1102    1
   313   810   811    1
   314   787   786    1
   315  1881  1886    1
   316  1125  1126   ar
   317  2904  2920    1
   318  2904  2903    1
   319   835   836   ar
   320  2899  2901    1
   321  2899  2900    1
   322   922   921    2
   323  2383  2381    1
   324  2901  2902    1
   325  2901  2903    1
   326   877   876   ar
   327   877   878    1
   328  1885  1884    1
   329  2906  2905    1
   330  1864  1866    1
   331   940   939    1
   332  2386  2388    1
   333  1117  1116    1
   334  1059  1058    2
   335  2124  2125    1
   336  2124  2126   ar
   337   951   973    1
   338   951   934    1
   339  1058  1052   ar
   340  1120  1121    2
   341  1120  1119   ar
   342  1901  1902    1
   343  1901  1903    1
   344  2127  2126   ar
   345  2101  2103   ar
   346  2101  2100   ar
   347  2103  2104   ar
   348  1861  1866    1
   349  2388  2390    1
   350  2921  2922    1
   351  2921  2923    1
   352  2390  2391    1
   353  2166  2164   ar
   354  2886  2885    1
   355   832   831   ar
   356  1083  1082   ar
   357  1083  1084   ar
   358  1875  1857    2
   359  3445  3424    2
   360  2920  2922    1
   361  2920  2939    1
   362  1082  1079   ar
   363  3490  3470    2
   364   885   884    1
   365  2402  2403    1
   366  2402  2404    1
   367  1126  1119   ar
   368  3425  3427    1
   369  3425  3426    1
   370  2401  2403    1
   371  2401  2420    1
   372  3430  3447    1
   373  3430  3429    1
   374  1068  1069    1
   375  1068  1070    1
   376  2381  2399    1
   377  2381  2364    1
   378  1884  1886    1
   379  2902  2907    1
   380  1055  1053   ar
   381  2163  2164   ar
   382  2098  2097    1
   383  2903  2905    1
   384  1104  1101   ar
   385  1104  1105   ar
   386  2111  2112    1
   387  3448  3449    1
   388  3448  3450    1
   389  1119  1118    1
   390  2918  2898    2
   391  1859  1857    1
   392  2639  2618    2
   393   811   818   ar
   394   811   812   ar
   395  1866  1867    1
   396  1069  1074    1
   397   921   915   ar
   398   921   920   ar
   399  3427  3429    1
   400  3427  3428    1
   401  2179  2190    1
   402  2179  2177    1
   403  1886  1897    1
   404  1087  1107    1
   405  1087  1071    1
   406  1087  1089    1
   407  1842  1841    1
   408  3412  3411    1
   409  3447  3449    1
   410  3447  3469    1
   411  1102  1101   ar
   412  1102  1097   ar
   413  1116  1118    1
   414  1116  1114    1
   415   939   938   ar
   416   939   941   ar
   417   789   788    1
   418  2905  2907    1
   419   818   817   ar
   420  2175  2176    1
   421  2175  2177    1
   422  2606  2605    1
   423   836   831   ar
   424   836   837    1
   425  2164  2165    1
   426  2884  2898    1
   427  2884  2883    1
   428   813   812    2
   429   927   905    2
   430  3432  3431    1
   431  1070  1071    1
   432  1070  1072    1
   433   786   788    1
   434   786   784    1
   435  2176  2193    1
   436   915   916   ar
   437   936   935    1
   438  2900  2898    1
   439  2923  2924    1
   440  2923  2925    1
   441  2105  2104    2
   442   884   886    1
   443  2619  2621    1
   444  2619  2620    1
   445  3410  3424    1
   446  3410  3409    1
   447  1857  1840    1
   448  1857  1876    1
   449  2097  2099    1
   450  2097  2095    1
   451   812   814   ar
   452  1101  1100   ar
   453  2104  2106   ar
   454  2189  2190   ar
   455  2189  2188   ar
   456   934   933    1
   457  2907  2917    1
   458  1052  1053   ar
   459  1940  1920    2
   460   938   944   ar
   461  3115  3114    1
   462  2404  2405    1
   463  2404  2406    1
   464  2178  2177    1
   465  2958  2940    2
   466  1161  1160    1
   467  1840  1839    1
   468  1118  1113    1
   469  2100  2099    1
   470  2100  2107   ar
   471  2604  2618    1
   472  2604  2603    1
   473  1903  1904    1
   474  1903  1905    1
   475  3429  3431    1
   476   941   942   ar
   477  2898  2919    1
   478  3450  3452    1
   479  3450  3451    1
   480  2099  2094    1
   481  1105  1106   ar
   482   788   790    1
   483  1053  1054    1
   484  3424  3426    1
   485  3424  3446    1
   486  2190  2184   ar
   487  1084  1074    1
   488  1084  1078   ar
   489  2112  2110    1
   490  3453  3470    1
   491  3453  3452    1
   492  1941  1920    1
   493   920   923   ar
   494   920   919   ar
   495  2621  2622    1
   496  2621  2623    1
   497  2391  2398   ar
   498  2391  2392   ar
   499   923   924   ar
   500  2885  2883    1
   501  2885  2887    1
   502  3128  3130    1
   503  3128  3129    1
   504  2926  2925    1
   505  2926  2940    1
   506  1079  1080   ar
   507  1079  1078   ar
   508  2364  2363    1
   509  3470  3491    1
   510  3470  3472    1
   511  3428  3433    1
   512   935   933    1
   513   935   937    1
   514  3130  3131    1
   515  3130  3132    1
   516  3135  3134    1
   517   817   815   ar
   518  1081  1080    1
   519  1846  1845    1
   520  2618  2620    1
   521  2618  2640    1
   522  2881  2883    1
   523  2881  2879    1
   524  2881  2882    1
   525  1159  1160   ar
   526  1159  1165   ar
   527  2924  2929    1
   528  2370  2369    1
   529  1074  1072    1
   530  1184  1183    1
   531  1097  1098   ar
   532  2085  2084    1
   533  3525  3526   ar
   534  3525  3530   ar
   535  1089  1088    1
   536   784   782    1
   537   784   785    1
   538  2211  2193    2
   539  2405  2410    1
   540  1906  1920    1
   541  1906  1905    1
   542  1841  1839    1
   543  1841  1843    1
   544  3431  3433    1
   545  1920  1922    1
   546   799   781    2
   547  2398  2397   ar
   548  1897  1896   ar
   549  1897  1891   ar
   550  2662  2641    2
   551  3531  3530    1
   552  1160  1162   ar
   553  2212  2193    1
   554  1128  1109    2
   555  3407  3409    1
   556  3407  3405    1
   557  3407  3408    1
   558   782   783    1
   559  2083  2084   ar
   560  2083  2081   ar
   561  2624  2623    1
   562  2624  2641    1
   563   916   917    1
   564   916   918   ar
   565  2601  2603    1
   566  2601  2599    1
   567  2601  2602    1
   568  2188  2185   ar
   569  2193  2195    1
   570  1867  1874   ar
   571  1867  1868   ar
   572  1896  1895   ar
   573   814   815   ar
   574  3411  3409    1
   575  3411  3413    1
   576   888   886    1
   577   888   890    1
   578   888   889    1
   579  1166  1165    2
   580  1114  1115    1
   581  1114  1112    1
   582  1904  1909    1
   583  3131  3136    1
   584  2925  2927    1
   585  2393  2392    2
   586   933   931    1
   587  2940  2959    1
   588  2940  2942    1
   589  2605  2603    1
   590  2605  2607    1
   591  2407  2406    1
   592  2407  2421    1
   593  3113  3112    1
   594  3113  3127    1
   595  2626  2625    1
   596  2082  2081    2
   597  3452  3454    1
   598  2622  2627    1
   599  1072  1073    1
   600  1905  1907    1
   601   944   945    2
   602   944   943   ar
   603  2346  2345    1
   604  1869  1868    2
   605  3133  3132    1
   606  3133  3150    1
   607  1080  1075   ar
   608   886   887    1
   609   815   816    1
   610  1115  1129    1
   611  3451  3456    1
   612  1839  1837    1
   613  2439  2421    2
   614  3148  3127    2
   615   905   926    1
   616   905   889    1
   617   905   907    1
   618  3526  3527   ar
   619   942   943   ar
   620   942   948   ar
   621  1078  1077   ar
   622  1165  1164   ar
   623  2887  2882    1
   624  2887  2888    1
   625  2879  2880    1
   626  2928  2927    1
   627  3433  3444    1
   628  2106  2107   ar
   629  2406  2408    1
   630  3110  3112    1
   631  3110  3111    1
   632  3110  3108    1
   633  2392  2394   ar
   634  2184  2185   ar
   635  2184  2183   ar
   636  3405  3406    1
   637    32    31    1
   638  2363  2361    1
   639  2363  2365    1
   640  3530  3529   ar
   641  1100  1106   ar
   642  1100  1099   ar
   643   919   918   ar
   644   919   925   ar
   645  2599  2600    1
   646   890   891    1
   647   890   892    1
   648   924   925   ar
   649   783   781    1
   650  2084  2086   ar
   651  2623  2625    1
   652  3471  3472    1
   653  3471  3473    1
   654  2065  2064    1
   655  1183  1182   ar
   656  1183  1185   ar
   657  2095  2096    1
   658  2095  2093    1
   659  3114  3112    1
   660  3114  3116    1
   661  2917  2916   ar
   662  2917  2911   ar
   663  1113  1112    1
   664  2094  2093    1
   665  1106  1096    1
   666  1847  1845   ar
   667  1847  1848   ar
   668  1874  1873   ar
   669  3171  3150    2
   670  3132  3134    1
   671  2602  2607    1
   672  2096  2110    1
   673  2081  2080   ar
   674  2584  2583    1
   675  1868  1870   ar
   676  3408  3413    1
   677  1845  1844   ar
   678  3134  3136    1
   679  3413  3414    1
   680  1162  1163   ar
   681   943   946   ar
   682  3136  3147    1
   683  2185  2186   ar
   684  3129  3127    1
   685  1111  1109    1
   686  1111  1110    1
   687  2607  2608    1
   688   790   785    1
   689   790   791    1
   690  1148  1129    2
   691  2641  2643    1
   692  2641  2663    1
   693  3455  3454    1
   694  1147  1129    1
   695  1182  1188   ar
   696  2110  2128    2
   697  2110  2129    1
   698   901   900   ar
   699   901   902   ar
   700   937   948    1
   701   937   932    1
   702   887   892    1
   703  2421  2440    1
   704  2421  2423    1
   705  2927  2929    1
   706  1837  1838    1
   707  1837  1835    1
   708  3111  3116    1
   709   781   800    1
   710   781   767    1
   711  3127  3149    1
   712  2890  2889    2
   713  2369  2371   ar
   714  2369  2368   ar
   715  2929  2930    1
   716  1098  1099   ar
   717  2183  2181   ar
   718  1185  1186   ar
   719  3108  3109    1
   720  1843  1838    1
   721  1843  1854    1
   722  2625  2627    1
   723  2409  2408    1
   724   948   947   ar
   725  2642  2643    1
   726  2642  2644    1
   727  2045  2044    2
   728  2359  2361    1
   729  2359  2360    1
   730  1129  1131    1
   731  2410  2408    1
   732  2410  2411    1
   733  1088  1090    1
   734  2397  2395   ar
   735  3116  3117    1
   736  2916  2915   ar
   737  1112  1110    1
   738  2627  2638    1
   739   907   906    1
   740   925   914    1
   741  2379  2358    2
   742  1891  1890   ar
   743  1891  1892   ar
   744  1109  1127    1
   745  1109  1093    1
   746  1207  1206    1
   747  2093  2091    1
   748  1895  1892   ar
   749  1164  1163   ar
   750  1164  1167   ar
   751  3454  3456    1
   752   793   792    2
   753  3150  3172    1
   754  3150  3152    1
   755  2371  2372   ar
   756  1917  1916   ar
   757  1917  1910   ar
   758  2344  2358    1
   759  2344  2343    1
   760  2864  2863    1
   761   931   932    1
   762   931   929    1
   763  2361  2362    1
   764  2195  2194    1
   765  1909  1907    1
   766  1909  1910    1
   767  1163  1169   ar
   768  3456  3467    1
   769  2365  2366    1
   770  2365  2367    1
   771  1922  1921    1
   772   900   897   ar
   773  2942  2941    1
   774  1907  1908    1
   775   892   902    1
   776  1890  1888   ar
   777  2043  2044   ar
   778  2043  2041   ar
   779  1092  1090    1
   780  1092  1094    1
   781  1092  1093    1
   782  2941  2943    1
   783  3527  3528   ar
   784   913   912    1
   785  3416  3415    2
   786  2910  2911   ar
   787  2910  2909   ar
   788  3093  3092    1
   789  1075  1076   ar
   790   791   792   ar
   791   791   798   ar
   792  2345  2347    1
   793  2345  2343    1
   794  2911  2912   ar
   795  1077  1076   ar
   796    48    50    1
   797    48    49    1
   798  2194  2196    1
   799  1203  1202    1
   800  2937  2930   ar
   801  2937  2936   ar
   802  2394  2395   ar
   803  3393  3392    1
   804  1091  1096    1
   805  1091  1090    1
   806  2880  2878    1
   807  2418  2411   ar
   808  2418  2417   ar
   809  1188  1189    2
   810  1188  1187   ar
   811  2888  2889   ar
   812  2888  2895   ar
   813  1848  1854   ar
   814  1848  1849   ar
   815   912   914    1
   816   912   910    1
   817  3151  3152    1
   818  3151  3153    1
   819  2064  2063   ar
   820  2064  2066   ar
   821  3444  3443   ar
   822  3444  3438   ar
   823   792   794   ar
   824  1823  1822    1
   825  3389  3388    1
   826   902   896   ar
   827  2044  2046   ar
   828  2610  2609    2
   829  1096  1094    1
   830  3529  3528   ar
   831  3529  3532   ar
   832  1186  1187   ar
   833  1186  1192   ar
   834  2063  2061   ar
   835   946   947   ar
   836  3406  3404    1
   837  2368  2374   ar
   838    31    33    1
   839    31    29    1
   840  1208  1206   ar
   841  1208  1209   ar
   842  1835  1836    1
   843  2644  2645    1
   844  2644  2646    1
   845  2042  2041    2
   846    50    51    1
   847    50    52    1
   848  1844  1850   ar
   849  2186  2187    2
   850  2186  2180   ar
   851  2889  2891   ar
   852  2600  2598    1
   853  2341  2342    1
   854  2341  2343    1
   855  2341  2339    1
   856  2896  2878    2
   857  1873  1871   ar
   858  1206  1205   ar
   859  1916  1914   ar
   860  2086  2087   ar
   861  1180  1179    1
   862  3422  3404    2
   863  3473  3475    1
   864  3473  3474    1
   865  1854  1853   ar
   866  1892  1893   ar
   867    30    29    1
   868    30    47    1
   869  2181  2180   ar
   870  2181  2182    1
   871  2930  2931   ar
   872  2583  2585    1
   873  2583  2581    1
   874  2395  2396    1
   875  1870  1871   ar
   876  1910  1911   ar
   877  1167  1168   ar
   878  3119  3118    2
   879  2347  2342    1
   880  2347  2348    1
   881  2411  2412   ar
   882  2358  2360    1
   883  2358  2380    1
   884  1921  1923    1
   885  1094  1095    1
   886  2080  2087   ar
   887  2080  2079    1
   888    27    28    1
   889    27    29    1
   890    27    25    1
   891    65    47    2
   892    33    28    1
   893    33    44    1
   894  3414  3415   ar
   895  3414  3421   ar
   896   767   766    1
   897   798   797   ar
   898  1204  1199    1
   899  1204  1202    1
   900  1204  1215    1
   901  3147  3146   ar
   902  3147  3141   ar
   903  2588  2587   ar
   904  2588  2589   ar
   905  1187  1190   ar
   906  2041  2040   ar
   907    51    56    1
   908  2980  2960    2
   909  3528  3534   ar
   910    55    54    1
   911  2587  2586   ar
   912   914   909    1
   913  2608  2609   ar
   914  2608  2615   ar
   915  3443  3442   ar
   916   929   930    1
   917  2645  2650    1
   918  2616  2598    2
   919  2582  2598    1
   920  2582  2581    1
   921  1181  1192    1
   922  1181  1179    1
   923  1181  1176    1
   924  1169  1168   ar
   925  1169  1158    1
   926  2423  2422    1
   927  3415  3417   ar
   928  3109  3107    1
   929  2915  2912   ar
   930  1192  1191   ar
   931   794   795   ar
   932  2638  2637   ar
   933  2638  2632   ar
   934  2350  2349    2
   935  2197  2196    1
   936  2197  2202    1
   937  2327  2328   ar
   938  2327  2326   ar
   939  3466  3467   ar
   940  3466  3465   ar
   941    36    35    1
   942   906   908    1
   943  2417  2415   ar
   944   930   928    1
   945  3467  3461   ar
   946  3117  3118   ar
   947  3117  3124   ar
   948  2209  2210   ar
   949  2209  2207   ar
   950  1226  1225    1
   951  1199  1198    1
   952  2936  2934   ar
   953  2863  2865    1
   954  2863  2861    1
   955  1202  1200    1
   956  2609  2611   ar
   957  1209  1215   ar
   958  1209  1210   ar
   959  1131  1130    1
   960  2372  2378   ar
   961  2372  2373   ar
   962  3475  3477    1
   963  3475  3476    1
   964  3513  3492    2
   965  2422  2424    1
   966  2878  2862    1
   967  2878  2897    1
   968    53    52    1
   969    53    67    1
   970  1205  1211   ar
   971  2210  2203   ar
   972  3125  3107    2
   973  3153  3154    1
   974  3153  3155    1
   975  1871  1872    2
   976  3404  3387    1
   977  3404  3423    1
   978  2585  2580    1
   979  2585  2595    1
   980  2091  2092    1
   981  2362  2367    1
   982    37    35   ar
   983    37    38   ar
   984  2598  2617    1
   985  3474  3479    1
   986  3437  3438   ar
   987  3437  3435   ar
   988  2912  2913   ar
   989  1179  1177    1
   990  1215  1214   ar
   991  2367  2378    1
   992  2895  2894   ar
   993   897   896   ar
   994   897   898   ar
   995   910   908    1
   996   910   911    1
   997  2909  2908   ar
   998  3532  3533   ar
   999  2196  2198    1
  1000  3146  3145   ar
  1001  2339  2340    1
  1002  1888  1889    1
  1003  1888  1887   ar
  1004  3438  3439   ar
  1005  1836  1834    1
  1006  2862  2861    1
  1007   797   795   ar
  1008    49    47    1
  1009  2868  2867   ar
  1010  2868  2869   ar
  1011    47    66    1
  1012  3387  3386    1
  1013  2328  2329   ar
  1014    13    12    1
  1015  3392  3394   ar
  1016  3392  3391   ar
  1017  1158  1156    1
  1018  1158  1153    1
  1019  3388  3386    1
  1020  3388  3390    1
  1021  2867  2866   ar
  1022  3092  3094    1
  1023  3092  3090    1
  1024  2079  2077    1
  1025  2079  2074    1
  1026  2066  2067   ar
  1027  3118  3120   ar
  1028  3140  3141   ar
  1029  3140  3138   ar
  1030  2046  2047   ar
  1031  2647  2646    1
  1032  2647  2664    1
  1033  2943  2944    1
  1034  2943  2945    1
  1035  2581  2579    1
  1036  1849  1850   ar
  1037  1849  1852   ar
  1038  1222  1227    1
  1039  1222  1221    1
  1040    25    26    1
  1041   909   908    1
  1042  2637  2636   ar
  1043  1822  1821   ar
  1044  1822  1824   ar
  1045   795   796    1
  1046    52    54    1
  1047  2077  2078    1
  1048  2077  2075    1
  1049  3394  3395   ar
  1050  2061  2062    2
  1051  2061  2060   ar
  1052   896   895   ar
  1053    85    67    2
  1054  3097  3096   ar
  1055  3097  3098   ar
  1056  1190  1191   ar
  1057  2324  2323    1
  1058  1850  1851    2
  1059  2092  2090    1
  1060  3096  3095   ar
  1061  3091  3107    1
  1062  3091  3090    1
  1063  3141  3142   ar
  1064  3421  3420   ar
  1065   769   768    1
  1066  3154  3159    1
  1067    56    54    1
  1068    56    57    1
  1069  1176  1175    1
  1070  2646  2648    1
  1071  2685  2664    2
  1072  2891  2892   ar
  1073  2374  2373   ar
  1074  2374  2375    2
  1075  1227  1225    1
  1076  1227  1238    1
  1077  2579  2580    1
  1078  2579  2577    1
  1079     9     8    1
  1080  2615  2614   ar
  1081    35    34   ar
  1082  1853  1852   ar
  1083  2326  2331   ar
  1084  2040  2047   ar
  1085  2040  2039    1
  1086  2378  2377   ar
  1087  3107  3126    1
  1088  1914  1915    1
  1089  1914  1913   ar
  1090  2944  2949    1
  1091  1145  1146   ar
  1092  1145  1143   ar
  1093  1221  1219    1
  1094  1221  1223    1
  1095  1893  1887   ar
  1096  1893  1894    2
  1097  2412  2413    2
  1098  2412  2414   ar
  1099  2586  2591   ar
  1100  2589  2595   ar
  1101  2589  2590   ar
  1102    44    38   ar
  1103    44    43   ar
  1104  2931  2932    2
  1105  2931  2933   ar
  1106  2208  2207    1
  1107  2348  2349   ar
  1108  2348  2355   ar
  1109  3514  3492    1
  1110   766   768    1
  1111   766   764    1
  1112  1210  1211   ar
  1113  1210  1213   ar
  1114  2865  2860    1
  1115  2865  2875    1
  1116  2649  2648    1
  1117  1911  1913   ar
  1118  1911  1912    2
  1119  1198  1200    1
  1120  1198  1196    1
  1121  2207  2206   ar
  1122  1821  1827   ar
  1123  3477  3479    1
  1124  3477  3478    1
  1125  2349  2351   ar
  1126  1211  1212    2
  1127  2631  2632   ar
  1128  2631  2629   ar
  1129  3476  3492    1
  1130  2861  2859    1
  1131  3124  3123   ar
  1132  2632  2633   ar
  1133  3488  3487   ar
  1134  3488  3489   ar
  1135  1964  1942    2
  1136  3492  3494    1
  1137  2203  2202    1
  1138  2203  2204   ar
  1139  2373  2376   ar
  1140  1923  1924    1
  1141  1923  1925    1
  1142  3534  3533   ar
  1143  3534  3524    1
  1144  2650  2648    1
  1145  2650  2661    1
  1146  3442  3439   ar
  1147   768   770    1
  1148    38    39   ar
  1149  3094  3089    1
  1150  3094  3104    1
  1151  1157  1156    1
  1152  1130  1132    1
  1153  1156  1154    1
  1154  1214  1213   ar
  1155  1225  1223    1
  1156  2595  2594   ar
  1157  2960  2981    1
  1158  2960  2946    1
  1159  2960  2962    1
  1160  3386  3384    1
  1161  3465  3462   ar
  1162  1144  1143    1
  1163  2202  2200    1
  1164  1824  1825   ar
  1165  3417  3418   ar
  1166  2686  2664    1
  1167  2664  2666    1
  1168    67    86    1
  1169    67    69    1
  1170  3090  3088    1
  1171   899   898    1
  1172  2415  2414   ar
  1173  2415  2416    1
  1174  1938  1937   ar
  1175  1938  1939   ar
  1176  1819  1818    1
  1177  1153  1152    1
  1178  1146  1139   ar
  1179  3479  3489    1
  1180  3461  3460   ar
  1181  3461  3462   ar
  1182  3156  3155    1
  1183  3156  3173    1
  1184  3391  3397   ar
  1185  1200  1201    1
  1186   898   893   ar
  1187   911   928    1
  1188  1219  1220    1
  1189  2934  2933   ar
  1190  2934  2935    1
  1191  3439  3440   ar
  1192  3435  3436    1
  1193  3435  3434   ar
  1194  2866  2871   ar
  1195  3390  3401    1
  1196  3390  3385    1
  1197  2611  2612   ar
  1198  2908  2913   ar
  1199  2424  2425    1
  1200  2424  2426    1
  1201  2913  2914    1
  1202  1937  1934   ar
  1203  1924  1929    1
  1204  1231  1229   ar
  1205  1231  1232   ar
  1206  3139  3138    1
  1207    12    14   ar
  1208    12    11   ar
  1209  3155  3157    1
  1210  2957  2956   ar
  1211  2957  2950   ar
  1212  3138  3137   ar
  1213  2869  2875   ar
  1214  2869  2870   ar
  1215  2894  2892   ar
  1216  1175  1177    1
  1217  1175  1173    1
  1218    68    69    1
  1219    68    70    1
  1220   928   949    2
  1221   928   950    1
  1222  2859  2860    1
  1223  2859  2857    1
  1224  2945  2946    1
  1225  2945  2947    1
  1226  3145  3142   ar
  1227  1230  1229    1
  1228  2323  2325    1
  1229  2323  2321    1
  1230    14    15   ar
  1231  2067  2060   ar
  1232  2198  2199    1
  1233  2198  2200    1
  1234  2425  2430    1
  1235  2039  2034    1
  1236  2039  2037    1
  1237  1143  1142   ar
  1238  3487  3484   ar
  1239  2025  2024    2
  1240  2463  2441    2
  1241  3717  3716    1
  1242  2060  2059    1
  1243  3088  3089    1
  1244  3088  3086    1
  1245  1925  1926    1
  1246  1925  1927    1
  1247  2329  2335   ar
  1248  2329  2330   ar
  1249  2340  2338    1
  1250  1238  1232   ar
  1251  1238  1237   ar
  1252  3095  3100   ar
  1253  1963  1942    1
  1254  1177  1178    1
  1255   895   894   ar
  1256  3523  3522    1
  1257    26    24    1
  1258  2074  2073    1
  1259  3120  3121   ar
  1260  1926  1942    1
  1261  3098  3104   ar
  1262  3098  3099   ar
  1263  1855  1834    2
  1264  2636  2633   ar
  1265  3489  3483   ar
  1266  1245  1244    1
  1267  1245  1250    1
  1268  3142  3143   ar
  1269  3395  3401   ar
  1270  3395  3396   ar
  1271  2956  2954   ar
  1272  2892  2893    2
  1273  2660  2661   ar
  1274  2660  2659   ar
  1275  1834  1817    1
  1276  1834  1856    1
  1277  2206  2204   ar
  1278  3384  3385    1
  1279  3384  3382    1
  1280  2875  2874   ar
  1281  2075  2076    1
  1282  2075  2073    1
  1283  3193  3173    2
  1284  1223  1224    1
  1285  3159  3157    1
  1286  3159  3170    1
  1287  3460  3458   ar
  1288  1942  1944    1
  1289  1201  1218    1
  1290  3420  3418   ar
  1291  2204  2205    2
  1292  2034  2033    1
  1293  2325  2335    1
  1294  2325  2320    1
  1295  2577  2578    1
  1296  3715  3714    1
  1297    57    64   ar
  1298    57    58   ar
  1299  3158  3157    1
  1300  1224  1241    1
  1301  1196  1197    1
  1302  3524  3522    1
  1303  3524  3519    1
  1304     8    10    1
  1305     8     6    1
  1306   764   762    1
  1307   764   765    1
  1308  1229  1228   ar
  1309  2355  2354   ar
  1310  2109  2090    2
  1311    43    42   ar
  1312  2661  2655   ar
  1313    34    40   ar
  1314  2591  2590   ar
  1315  2591  2592    1
  1316  1232  1233   ar
  1317  3462  3463   ar
  1318  3104  3103   ar
  1319  2614  2612   ar
  1320  2590  2593   ar
  1321  2023  2024   ar
  1322  2023  2021   ar
  1323  2962  2961    1
  1324  2090  2076    1
  1325  2090  2108    1
  1326  2377  2376   ar
  1327  2331  2330   ar
  1328  2331  2332    1
  1329  2633  2634   ar
  1330  2629  2630    1
  1331  2629  2628   ar
  1332  1818  1816    1
  1333  1818  1820    1
  1334    64    63   ar
  1335  1242  1244    1
  1336  1242  1243    1
  1337  1827  1828    2
  1338  1827  1826   ar
  1339  1244  1246    1
  1340  2351  2352   ar
  1341  2949  2950    1
  1342  2949  2947    1
  1343  3401  3400   ar
  1344  3418  3419    2
  1345  1817  1816    1
  1346  2199  2213    1
  1347  3123  3121   ar
  1348  2200  2201    1
  1349  1178  1195    1
  1350  2024  2026   ar
  1351    10     5    1
  1352    10    21    1
  1353  2022  2021    2
  1354  2438  2437   ar
  1355  2438  2431   ar
  1356    39    40   ar
  1357    39    42   ar
  1358  2335  2334   ar
  1359  1825  1826   ar
  1360  1825  1831   ar
  1361  2568  2567    2
  1362  3173  3194    1
  1363  3173  3175    1
  1364   762   763    1
  1365    70    71    1
  1366    70    72    1
  1367  2594  2593   ar
  1368  2612  2613    2
  1369  2950  2951   ar
  1370  2004  2003    2
  1371  1237  1236   ar
  1372  1132  1133    1
  1373  1132  1134    1
  1374  1939  1929    1
  1375  1939  1933   ar
  1376  2232  2213    2
  1377  1220  1218    1
  1378  1154  1152    1
  1379  1154  1155    1
  1380  3494  3493    1
  1381  2462  2441    1
  1382  1250  1248    1
  1383  1250  1260    1
  1384    11    17   ar
  1385  3522  3520    1
  1386  2330  2333   ar
  1387   770   765    1
  1388   770   771    1
  1389  1139  1138    1
  1390  1139  1140   ar
  1391  2356  2338    2
  1392   893   894   ar
  1393  3434  3440   ar
  1394  2871  2870   ar
  1395  2871  2872    1
  1396  1152  1150    1
  1397  1249  1248    1
  1398  3716  3714    1
  1399  3716  3718    1
  1400  2437  2435   ar
  1401  1133  1138    1
  1402  3121  3122    1
  1403  2073  2071    1
  1404  1136  1134    1
  1405  1136  1138    1
  1406  1136  1137    1
  1407  2426  2427    1
  1408  2426  2428    1
  1409  2870  2873   ar
  1410  2666  2665    1
  1411  3397  3396   ar
  1412  3397  3398    2
  1413    71    76    1
  1414  1929  1927    1
  1415   773   772    2
  1416  2322  2338    1
  1417  2322  2321    1
  1418  2441  2427    1
  1419  2441  2443    1
  1420  3137  3143   ar
  1421    59    58    2
  1422  3169  3170   ar
  1423  3169  3168   ar
  1424  3440  3441    2
  1425  2021  2020   ar
  1426  2947  2948    1
  1427  1134  1135    1
  1428    15    21   ar
  1429    15    16   ar
  1430    45    24    2
  1431  1173  1174    1
  1432  2659  2656   ar
  1433  3396  3399   ar
  1434  3170  3164   ar
  1435  1934  1933   ar
  1436  1934  1935   ar
  1437  3484  3483   ar
  1438  3484  3485   ar
  1439     7    24    1
  1440     7     6    1
  1441  2038  2037    1
  1442  2338  2357    1
  1443  1142  1140   ar
  1444  2857  2858    1
  1445  3382  3383    1
  1446  2321  2319    1
  1447  1197  1195    1
  1448  3100  3099   ar
  1449  3100  3101    1
  1450  2320  2319    1
  1451    58    60   ar
  1452   763   761    1
  1453  3143  3144    2
  1454  3483  3482   ar
  1455  3099  3102   ar
  1456    40    41    2
  1457  2665  2667    1
  1458  1816  1814    1
  1459  2037  2035    1
  1460  1826  1829   ar
  1461    24    46    1
  1462  2430  2431    1
  1463  2430  2428    1
  1464  1228  1234   ar
  1465  3086  3087    1
  1466  2059  2057    1
  1467  2059  2054    1
  1468  1233  1236   ar
  1469  1233  1234   ar
  1470  3714  3712    1
  1471  2578  2576    1
  1472  1927  1928    1
  1473  2954  2955    1
  1474  2954  2953   ar
  1475  3519  3518    1
  1476     5     4    1
  1477   772   771   ar
  1478   772   774   ar
  1479   771   778   ar
  1480  2874  2873   ar
  1481     6     4    1
  1482  1218  1239    2
  1483  1218  1240    1
  1484  1243  1241    1
  1485  2961  2963    1
  1486    21    20   ar
  1487  2213  2231    1
  1488  2213  2215    1
  1489  3458  3459    1
  1490  3458  3457   ar
  1491  1936  1935    1
  1492  2354  2352   ar
  1493  2228  2227    2
  1494  2033  2035    1
  1495  2033  2031    1
  1496  1820  1831    1
  1497  1820  1815    1
  1498   779   761    2
  1499  2319  2317    1
  1500  2628  2634   ar
  1501  2564  2563    1
  1502  2431  2432   ar
  1503    63    61   ar
  1504     4     2    1
  1505  2308  2307    2
  1506  1174  1172    1
  1507  2655  2656   ar
  1508  2655  2654   ar
  1509  2634  2635    2
  1510  1241  1261    2
  1511  1241  1262    1
  1512  1248  1246    1
  1513  2352  2353    2
  1514  1260  1259   ar
  1515  1260  1254   ar
  1516  1831  1830   ar
  1517  1944  1943    1
  1518  1140  1141    2
  1519  2072  2071    1
  1520  2072  2070    1
  1521  2057  2055    1
  1522  2057  2058    1
  1523  3103  3102   ar
  1524  1151  1150    1
  1525  1151  1149    1
  1526  1800  1799    1
  1527  3721  3720    2
  1528  3463  3457   ar
  1529  3463  3464    2
  1530  3174  3175    1
  1531  3174  3176    1
  1532  2567  2569   ar
  1533  2567  2566   ar
  1534  1933  1932   ar
  1535  3521  3520    1
  1536  3521  3537    1
  1537  1155  1172    1
  1538  2026  2027   ar
  1539  1981  1980    1
  1540  1246  1247    1
  1541  3400  3399   ar
  1542  2545  2544    1
  1543  1234  1235    2
  1544  2569  2570   ar
  1545  1195  1217    2
  1546  1195  1216    1
  1547  2003  1997   ar
  1548  2003  2002   ar
  1549   774   775   ar
  1550   778   777   ar
  1551  3538  3540    1
  1552  3538  3539    1
  1553  3493  3495    1
  1554  2229  2227   ar
  1555  2229  2230   ar
  1556  1259  1258   ar
  1557  3558  3537    2
  1558  1935  1930   ar
  1559  1171  1149    2
  1560  2334  2333   ar
  1561  2089  2070    2
  1562  2428  2429    1
  1563  3168  3165   ar
  1564  2951  2953   ar
  1565  2951  2952    2
  1566  1960  1961   ar
  1567  1960  1957   ar
  1568  1997  1998   ar
  1569  3520  3518    1
  1570  2656  2657   ar
  1571  2036  2035    1
  1572  2036  2050    1
  1573    17    16   ar
  1574    17    18    2
  1575    72    73    1
  1576    72    74    1
  1577    73    87    1
  1578   761   780    1
  1579   761   747    1
  1580  2020  2027   ar
  1581  2020  2019    1
  1582  2563  2565    1
  1583  2563  2561    1
  1584  2309  2307   ar
  1585  2309  2310   ar
  1586  3077  3076    2
  1587  1247  1263    1
  1588  2858  2856    1
  1589  3373  3372    2
  1590  2435  2436    2
  1591  2435  2434   ar
  1592    16    19   ar
  1593  2227  2226   ar
  1594  3482  3481   ar
  1595  3485  3486    1
  1596  3485  3480   ar
  1597  3712  3713    1
  1598  3712  3710    1
  1599  3718  3713    1
  1600  3718  3719    1
  1601  3087  3085    1
  1602  2031  2032    1
  1603    76    74    1
  1604    76    77    1
  1605  2654  2652   ar
  1606  2054  2053    1
  1607  1254  1253   ar
  1608  1254  1255   ar
  1609  3535  3515    2
  1610  3383  3381    1
  1611  1798  1799   ar
  1612  1798  1804   ar
  1613  1253  1252   ar
  1614   775   777   ar
  1615   775   776    1
  1616  2848  2847    2
  1617    60    61   ar
  1618  3164  3163   ar
  1619  3164  3165   ar
  1620  1135  1149    1
  1621  2443  2442    1
  1622  3540  3541    1
  1623  3540  3542    1
  1624  2032  2030    1
  1625  1959  1958    2
  1626  2018  2017    1
  1627  1814  1815    1
  1628  1814  1812    1
  1629  2017  2019    1
  1630  2017  2015    1
  1631  2055  2053    1
  1632  2055  2056    1
  1633  2307  2306   ar
  1634  1829  1830   ar
  1635  2543  2544   ar
  1636  2543  2549   ar
  1637  2667  2668    1
  1638  2667  2669    1
  1639  3578  3560    2
  1640  2290  2289    2
  1641  1961  1962   ar
  1642  3369  3368    1
  1643  2978  2977   ar
  1644  2978  2979   ar
  1645  3518  3516    1
  1646    61    62    1
  1647    75    74    1
  1648  1799  1801   ar
  1649  1149  1170    1
  1650  2964  2963    1
  1651  2964  2969    1
  1652  2285  2284    1
  1653   108    87    2
  1654  1943  1945    1
  1655  1172  1194    2
  1656  1172  1193    1
  1657  2844  2843    1
  1658  2283  2289   ar
  1659  2283  2284   ar
  1660    84    77   ar
  1661    84    83   ar
  1662  2311  2310    1
  1663  1986  1965    2
  1664  3720  3719   ar
  1665  3720  3722   ar
  1666  1258  1255   ar
  1667  3073  3072    1
  1668  2963  2965    1
  1669  2668  2673    1
  1670  3537  3539    1
  1671  3537  3559    1
  1672  2977  2974   ar
  1673  2215  2214    1
  1674  2070  2056    1
  1675  2070  2088    1
  1676    20    19   ar
  1677  2596  2576    2
  1678  2576  2562    1
  1679  2576  2597    1
  1680  2432  2434   ar
  1681  2432  2433    2
  1682  2230  2223   ar
  1683  1805  1804    2
  1684  2544  2546   ar
  1685  3698  3697    1
  1686  2565  2566    1
  1687  2565  2560    1
  1688  2442  2444    1
  1689  2566  2573   ar
  1690  2052  2050    1
  1691  2052  2051    1
  1692  2019  2014    1
  1693  2571  2570    2
  1694     2     3    1
  1695  3163  3161   ar
  1696  3165  3166   ar
  1697  1255  1256   ar
  1698  2570  2572   ar
  1699  3543  3542    1
  1700  3543  3560    1
  1701  3176  3177    1
  1702  3176  3178    1
  1703  3541  3546    1
  1704  2317  2318    1
  1705   109    87    1
  1706  2562  2561    1
  1707  2002  2005   ar
  1708  2002  2001   ar
  1709    87    89    1
  1710  2550  2549    2
  1711  2709  2687    2
  1712  3719  3726   ar
  1713  2310  2312   ar
  1714  1252  1251   ar
  1715    77    78   ar
  1716  1932  1931   ar
  1717  3078  3076   ar
  1718  3078  3079   ar
  1719  1980  1979   ar
  1720  1980  1975   ar
  1721  3076  3075   ar
  1722  1804  1803   ar
  1723  1982  1979   ar
  1724  1982  1983   ar
  1725  3495  3497    1
  1726  3495  3496    1
  1727  1957  1958   ar
  1728  1957  1956   ar
  1729  2248  2247    1
  1730  3372  3374   ar
  1731  3372  3371   ar
  1732  3177  3182    1
  1733  3481  3480   ar
  1734  3710  3711    1
  1735  2005  2006   ar
  1736  3368  3370    1
  1737  3368  3366    1
  1738  2289  2288   ar
  1739  1998  1999    1
  1740  1998  2000   ar
  1741  2053  2051    1
  1742  2561  2559    1
  1743  1930  1931   ar
  1744  1958  1952   ar
  1745  2068  2050    2
  1746  2050  2069    1
  1747  2284  2286   ar
  1748    83    81   ar
  1749  3374  3375   ar
  1750  2847  2849   ar
  1751  2847  2846   ar
  1752  2304  2303    1
  1753  3517  3515    1
  1754  3517  3516    1
  1755  2226  2224   ar
  1756  2843  2845    1
  1757  2843  2841    1
  1758  2876  2856    2
  1759  2549  2548   ar
  1760  2657  2658    2
  1761  2657  2651   ar
  1762  3072  3074    1
  1763  3072  3070    1
  1764   747   746    1
  1765  2849  2850   ar
  1766  3542  3544    1
  1767  3545  3544    1
  1768  3722  3723   ar
  1769  2015  2016    1
  1770  2015  2013    1
  1771  1281  1263    2
  1772  2652  2651   ar
  1773  2652  2653    1
  1774  3560  3579    1
  1775  3560  3562    1
  1776  2856  2842    1
  1777  2856  2877    1
  1778  3515  3498    1
  1779  3515  3536    1
  1780  1812  1813    1
  1781  1263  1282    1
  1782  1263  1265    1
  1783  3402  3381    2
  1784  2016  2030    1
  1785  1738  1737    2
  1786  2214  2216    1
  1787  2683  2682   ar
  1788  2683  2684   ar
  1789  3497  3498    1
  1790  3497  3499    1
  1791  1256  1251   ar
  1792  1256  1257    1
  1793  1801  1802   ar
  1794  1979  1978   ar
  1795  2979  2969    1
  1796  2979  2973   ar
  1797  2268  2267    2
  1798  3381  3367    1
  1799  3381  3403    1
  1800  2049  2030    2
  1801  2669  2670    1
  1802  2669  2671    1
  1803  2030  2048    1
  1804  3085  3105    2
  1805  3085  3071    1
  1806  3085  3106    1
  1807  2306  2305    1
  1808  2306  2313   ar
  1809  2969  2967    1
  1810  1264  1265    1
  1811  1264  1266    1
  1812  2318  2316    1
  1813  1975  1976   ar
  1814  1267  1266    1
  1815  1267  1272    1
  1816  1962  1956   ar
  1817  1962  1951    1
  1818  2303  2305    1
  1819  2303  2301    1
  1820  3367  3366    1
  1821  2965  2966    1
  1822  2965  2967    1
  1823  2223  2224   ar
  1824  2223  2222    1
  1825  2670  2687    1
  1826  1945  1946    1
  1827  1945  1947    1
  1828  3697  3696   ar
  1829  3697  3699   ar
  1830     3     1    1
  1831  2573  2572   ar
  1832  1965  1985    1
  1833  1965  1948    1
  1834  1965  1967    1
  1835  3191  3190   ar
  1836  3191  3192   ar
  1837  2546  2547   ar
  1838  3080  3079    1
  1839  2974  2973   ar
  1840  2974  2975   ar
  1841  2527  2526    2
  1842  2459  2460   ar
  1843  2459  2456   ar
  1844  1946  1951    1
  1845  3370  3371    1
  1846  3370  3365    1
  1847  2673  2684    1
  1848  2673  2671    1
  1849  2460  2461   ar
  1850   749   748    1
  1851  3546  3544    1
  1852  3546  3557    1
  1853  2842  2841    1
  1854  3001  2982    2
  1855  3079  3081   ar
  1856  3161  3160   ar
  1857  3161  3162    1
  1858  2305  2300    1
  1859  2001  2000   ar
  1860  2001  2007   ar
  1861  2687  2708    1
  1862  2687  2689    1
  1863  2560  2559    1
  1864  1983  1984   ar
  1865  3071  3070    1
  1866  3726  3725   ar
  1867  2217  2216    1
  1868  2217  2222    1
  1869  3696  3702   ar
  1870  1947  1948    1
  1871  1947  1949    1
  1872  3166  3160   ar
  1873  3166  3167    2
  1874  3371  3378   ar
  1875  2997  2996    1
  1876  3074  3075    1
  1877  3074  3069    1
  1878  3496  3501    1
  1879  3075  3082   ar
  1880  2845  2846    1
  1881  2845  2840    1
  1882  3178  3179    1
  1883  3178  3180    1
  1884    78    79    2
  1885    78    80   ar
  1886  2014  2013    1
  1887  1813  1811    1
  1888  2559  2557    1
  1889   748   746    1
  1890   748   750    1
  1891  2682  2679   ar
  1892  3711  3709    1
  1893  3366  3364    1
  1894  1956  1955   ar
  1895  2224  2225    2
  1896  1803  1802   ar
  1897  1803  1806   ar
  1898  1739  1736   ar
  1899  1739  1740   ar
  1900  2444  2445    1
  1901  2444  2446    1
  1902   746   744    1
  1903  2846  2853   ar
  1904  2247  2249   ar
  1905  2247  2246   ar
  1906  2976  2975    1
  1907  2684  2678   ar
  1908  2966  2982    1
  1909  2312  2313   ar
  1910  1266  1268    1
  1911  3179  3195    1
  1912  2006  2007   ar
  1913  2704  2703    2
  1914  1802  1808   ar
  1915  3375  3376    1
  1916  3375  3377   ar
  1917    89    88    1
  1918  2841  2839    1
  1919  2486  2464    2
  1920    81    80   ar
  1921    81    82    1
  1922  3070  3068    1
  1923  2445  2450    1
  1924  3182  3192    1
  1925  3182  3180    1
  1926  3190  3187   ar
  1927  2850  2851    1
  1928  2850  2852   ar
  1929  1952  1953   ar
  1930  3723  3725   ar
  1931  3723  3724    2
  1932  2286  2287   ar
  1933  2973  2972   ar
  1934  2288  2287   ar
  1935  2288  2291   ar
  1936  3499  3501    1
  1937  3499  3500    1
  1938  1737  1736   ar
  1939  1737  1731   ar
  1940  2548  2547   ar
  1941  2548  2551   ar
  1942  3561  3562    1
  1943  3561  3563    1
  1944  2013  2011    1
  1945  2249  2250   ar
  1946  3217  3195    2
  1947  2216  2218    1
  1948  1951  1949    1
  1949  3057  3056    2
  1950  3699  3700   ar
  1951  2671  2672    1
  1952  2967  2968    1
  1953  2267  2266   ar
  1954  2267  2269   ar
  1955  2520  2526   ar
  1956  2520  2521   ar
  1957  2975  2970   ar
  1958  3192  3186   ar
  1959    88    90    1
  1960  3017  3016    2
  1961  2222  2220    1
  1962  3039  3038    2
  1963  2705  2706   ar
  1964  2705  2702   ar
  1965  1272  1273    1
  1966  1272  1270    1
  1967  2009  1987    2
  1968  2547  2553   ar
  1969   753   752    2
  1970  1967  1966    1
  1971  1280  1273   ar
  1972  1280  1279   ar
  1973  1782  1781    1
  1974  3058  3056   ar
  1975  3058  3059   ar
  1976  1978  1984   ar
  1977  1978  1977   ar
  1978  2526  2525   ar
  1979  2998  2996   ar
  1980  2998  2999   ar
  1981  1736  1735   ar
  1982  2007  1996    1
  1983  2266  2264   ar
  1984  2982  3000    1
  1985  2982  2984    1
  1986  3060  3059    2
  1987  3511  3512   ar
  1988  3511  3510   ar
  1989  1740  1741   ar
  1990  2446  2447    1
  1991  2446  2448    1
  1992  2752  2732    2
  1993  1976  1977   ar
  1994   754   752   ar
  1995   754   755   ar
  1996  2996  2995   ar
  1997   752   751   ar
  1998  2287  2293   ar
  1999  1273  1274   ar
  2000  1279  1277   ar
  2001  3195  3216    1
  2002  3195  3197    1
  2003  3501  3512    1
  2004  3180  3181    1
  2005  3727  3709    2
  2006  2481  2480    2
  2007  2252  2233    2
  2008  2301  2302    1
  2009  2301  2299    1
  2010  3557  3556   ar
  2011  3557  3551   ar
  2012  1949  1950    1
  2013  3081  3082   ar
  2014  3702  3703    2
  2015  3702  3701   ar
  2016  2246  2244   ar
  2017  3365  3364    1
  2018  2461  2450    1
  2019  2461  2455   ar
  2020  1984  1974    1
  2021  1776  1781   ar
  2022  1776  1777   ar
  2023  2218  2220    1
  2024  2218  2219    1
  2025  3364  3362    1
  2026  2456  2457   ar
  2027  2456  2455   ar
  2028  2012  2011    1
  2029  2012  2010    1
  2030  3378  3377   ar
  2031  1806  1807   ar
  2032  2458  2457    2
  2033  2316  2302    1
  2034  2316  2336    2
  2035  2316  2337    1
  2036  3556  3555   ar
  2037  2839  2840    1
  2038  2839  2837    1
  2039  2447  2464    1
  2040   756   755    2
  2041  2522  2521    1
  2042     1    22    1
  2043     1    23    1
  2044  3056  3055   ar
  2045  2300  2299    1
  2046   755   757   ar
  2047  2689  2688    1
  2048  2703  2702   ar
  2049  2703  2697   ar
  2050  3069  3068    1
  2051  2029  2010    2
  2052  2853  2852   ar
  2053  1796  1795    1
  2054  2679  2678   ar
  2055  2679  2680   ar
  2056  1955  1953   ar
  2057   751   750    1
  2058   751   758   ar
  2059  3709  3728    1
  2060  3709  3692    1
  2061  2291  2292   ar
  2062  1795  1797    1
  2063  1795  1793    1
  2064   750   745    1
  2065  3032  3038   ar
  2066  3032  3033   ar
  2067  2464  2485    1
  2068  2464  2466    1
  2069  2706  2707   ar
  2070  3068  3066    1
  2071  1808  1807   ar
  2072  1808  1797    1
  2073  2557  2558    1
  2074  2678  2677   ar
  2075  1953  1954    1
  2076  3059  3061   ar
  2077  3694  3693    1
  2078  2450  2448    1
  2079  1731  1732   ar
  2080  2504  2503    2
  2081  2702  2701   ar
  2082  3512  3506   ar
  2083  1781  1780   ar
  2084   744   742    1
  2085   744   745    1
  2086  1811  1833    2
  2087  1811  1832    1
  2088  1811  1794    1
  2089  2521  2523   ar
  2090  1274  1275    2
  2091  1274  1276   ar
  2092  3187  3186   ar
  2093  3187  3188   ar
  2094  3038  3037   ar
  2095  1277  1276   ar
  2096  1277  1278    1
  2097  2551  2552   ar
  2098   757   758   ar
  2099  3510  3507   ar
  2100  3700  3701   ar
  2101  3700  3706   ar
  2102  1268  1270    1
  2103  1268  1269    1
  2104  2972  2971   ar
  2105  2457  2451   ar
  2106  1271  1270    1
  2107  2269  2270   ar
  2108  2220  2221    1
  2109  2250  2243   ar
  2110    91    90    1
  2111    91    96    1
  2112  3186  3185   ar
  2113  2999  2992   ar
  2114  2482  2479   ar
  2115  2482  2483   ar
  2116  3563  3564    1
  2117  3563  3565    1
  2118  3016  3015   ar
  2119  3016  3018   ar
  2120  3693  3691    1
  2121  3693  3695    1
  2122  2299  2297    1
  2123    90    92    1
  2124  2970  2971   ar
  2125  1777  1778   ar
  2126  2455  2454   ar
  2127  3701  3704   ar
  2128  1797  1792    1
  2129  3034  3033    1
  2130  2984  2983    1
  2131  2553  2552   ar
  2132  2553  2542    1
  2133  2219  2233    1
  2134  1735  1741   ar
  2135  1735  1734   ar
  2136  2558  2556    1
  2137  2264  2265    2
  2138  2264  2263   ar
  2139  1741  1730    1
  2140  2448  2449    1
  2141  1987  1989    1
  2142  1987  1971    1
  2143  1987  2008    1
  2144  2010  1993    1
  2145  2010  2028    1
  2146  2525  2528   ar
  2147  2525  2524   ar
  2148  1966  1968    1
  2149  2995  2993   ar
  2150  2772  2754    2
  2151  1996  1994    1
  2152  1996  1991    1
  2153  2480  2479   ar
  2154  2480  2474   ar
  2155   106   105   ar
  2156   106   107   ar
  2157  3692  3691    1
  2158  1994  1992    1
  2159  1994  1995    1
  2160   742   743    1
  2161  1989  1988    1
  2162  3564  3569    1
  2163  2732  2753    1
  2164  2732  2734    1
  2165  2732  2716    1
  2166  1794  1793    1
  2167  1970  1972    1
  2168  1970  1968    1
  2169  1970  1971    1
  2170  3551  3550   ar
  2171  3551  3552   ar
  2172  2233  2235    1
  2173  2233  2251    1
  2174  2293  2292   ar
  2175  2293  2282    1
  2176  2244  2243   ar
  2177  2244  2245    2
  2178  1729  1728    1
  2179  3033  3035   ar
  2180  3555  3552   ar
  2181  2541  2540    1
  2182  1793  1791    1
  2183  2697  2698   ar
  2184  1992  1993    1
  2185  1992  1990    1
  2186  1974  1969    1
  2187  1974  1972    1
  2188  2540  2542    1
  2189  2540  2538    1
  2190  1269  1283    1
  2191  2680  2681    2
  2192  2680  2674   ar
  2193  3197  3196    1
  2194  3015  3013   ar
  2195  3362  3363    1
  2196  2688  2690    1
  2197  1969  1968    1
  2198  2677  2675   ar
  2199   743   741    1
  2200   105   102   ar
  2201  2829  2827   ar
  2202  2829  2830   ar
  2203  2837  2838    1
  2204  2828  2827    2
  2205  2731  2710    2
  2206  2479  2478   ar
  2207  3055  3054    1
  2208  3055  3062   ar
  2209  2831  2830    1
  2210  3018  3019   ar
  2211  3189  3188    1
  2212  3550  3548   ar
  2213  3188  3183   ar
  2214  3706  3695    1
  2215  3706  3705   ar
  2216  2707  2701   ar
  2217  2707  2696    1
  2218  1732  1734   ar
  2219  1732  1733    1
  2220  2466  2465    1
  2221  2243  2242    1
  2222  2528  2529   ar
  2223  2483  2484   ar
  2224  3691  3689    1
  2225  2542  2537    1
  2226  2503  2497   ar
  2227  2503  2502   ar
  2228  1972  1973    1
  2229  2701  2700   ar
  2230  3066  3067    1
  2231  3695  3690    1
  2232  2523  2524   ar
  2233  3506  3507   ar
  2234  3506  3505   ar
  2235  1780  1779   ar
  2236  1780  1783   ar
  2237  3061  3062   ar
  2238  3053  3052    1
  2239  3185  3184   ar
  2240  3507  3508   ar
  2241  2270  2263   ar
  2242  3363  3361    1
  2243  1991  1990    1
  2244  3566  3565    1
  2245  3566  3580    1
  2246  3565  3567    1
  2247  3675  3674    1
  2248  3037  3040   ar
  2249  3037  3036   ar
  2250  2773  2754    1
  2251  3598  3580    2
  2252  1728  1730    1
  2253  1728  1726    1
  2254  3680  3679    2
  2255  2734  2733    1
  2256  2992  2993   ar
  2257  2992  2991    1
  2258  2838  2836    1
  2259  3673  3679   ar
  2260  3673  3674   ar
  2261  2524  2530   ar
  2262  3052  3054    1
  2263  3052  3050    1
  2264    96   107    1
  2265    96    94    1
  2266  3353  3352    2
  2267  2451  2452   ar
  2268    92    93    1
  2269    92    94    1
  2270   107   101   ar
  2271  2716  2715    1
  2272  3599  3580    1
  2273  3552  3553   ar
  2274  2263  2262    1
  2275  2827  2826   ar
  2276  2235  2234    1
  2277  3354  3352   ar
  2278  3354  3355   ar
  2279  3704  3705   ar
  2280  2983  2985    1
  2281  3067  3065    1
  2282  2993  2994    2
  2283  1778  1779   ar
  2284  2830  2832   ar
  2285   735   734    2
  2286  2691  2690    1
  2287  2691  2696    1
  2288  1730  1725    1
  2289  2754  2738    1
  2290  2754  2756    1
  2291  3054  3049    1
  2292  3577  3576   ar
  2293  3577  3570   ar
  2294  3356  3355    1
  2295  2474  2475   ar
  2296  2497  2498   ar
  2297  2454  2452   ar
  2298  2733  2735    1
  2299  3196  3198    1
  2300  2297  2298    1
  2301   760   741    2
  2302  2298  2296    1
  2303   728   734   ar
  2304   728   729   ar
  2305  1792  1791    1
  2306  1990  1988    1
  2307  2282  2280    1
  2308  2282  2277    1
  2309   730   729    1
  2310  3580  3582    1
  2311  2711  2713    1
  2312  2711  2712    1
  2313  3213  3214   ar
  2314  3213  3210   ar
  2315   653   632    2
  2316  2690  2692    1
  2317  3040  3041   ar
  2318  2675  2674   ar
  2319  2675  2676    1
  2320  2505  2502   ar
  2321  2505  2506   ar
  2322  3214  3215   ar
  2323  2538  2539    1
  2324  2538  2536    1
  2325   741   759    1
  2326   741   724    1
  2327  1779  1785   ar
  2328  3576  3574   ar
  2329  3679  3678   ar
  2330  1783  1784   ar
  2331   734   733   ar
  2332  2280  2281    1
  2333  2280  2278    1
  2334  2986  2991    1
  2335  2986  2985    1
  2336  3674  3676   ar
  2337  2698  2700   ar
  2338  2698  2699    1
  2339  2556  2539    1
  2340  2556  2575    2
  2341  2556  2574    1
  2342  3569  3570    1
  2343  3569  3567    1
  2344    93   110    1
  2345  1791  1789    1
  2346  3035  3036   ar
  2347  3352  3351   ar
  2348  2502  2501   ar
  2349  2738  2737    1
  2350  1305  1283    2
  2351   102   101   ar
  2352   102   103   ar
  2353  2696  2694    1
  2354   729   731   ar
  2355  3355  3357   ar
  2356  3183  3184   ar
  2357  2452  2453    1
  2358  3013  3014    2
  2359  3013  3012   ar
  2360  2692  2694    1
  2361  2692  2693    1
  2362  3505  3503   ar
  2363  3036  3042   ar
  2364  1283  1304    1
  2365  1283  1285    1
  2366  3235  3234    2
  2367  2478  2484   ar
  2368  2478  2477   ar
  2369  2465  2467    1
  2370  2529  2530   ar
  2371  3548  3549    1
  2372  3548  3547   ar
  2373  3019  3012   ar
  2374  2484  2473    1
  2375   131   110    2
  2376  3689  3690    1
  2377  3689  3687    1
  2378    94    95    1
  2379  2509  2487    2
  2380  2710  2712    1
  2381  2710  2693    1
  2382  2710  2730    1
  2383  3256  3255    2
  2384  3021  3002    2
  2385   101   100   ar
  2386  2537  2536    1
  2387  3570  3571   ar
  2388  2242  2237    1
  2389  2242  2240    1
  2390  2991  2989    1
  2391  2713  2715    1
  2392  2713  2714    1
  2393  3567  3568    1
  2394  3199  3198    1
  2395  3199  3204    1
  2396  3508  3509    2
  2397  3508  3502   ar
  2398  2985  2987    1
  2399  2530  2519    1
  2400  3361  3380    2
  2401  3361  3379    1
  2402  3361  3347    1
  2403  2237  2236    1
  2404  1725  1724    1
  2405  2715  2717    1
  2406  2824  2823    1
  2407  2272  2253    2
  2408  3050  3051    1
  2409  3050  3048    1
  2410  2823  2825    1
  2411  2823  2821    1
  2412  2315  2296    2
  2413  2826  2825    1
  2414  2826  2833   ar
  2415   130   110    1
  2416   733   732   ar
  2417   733   736   ar
  2418  1726  1727    1
  2419  1726  1724    1
  2420   110   112    1
  2421   104   103    2
  2422  2737  2735    1
  2423  2737  2739    1
  2424   731   732   ar
  2425  2832  2833   ar
  2426  2234  2236    1
  2427  2755  2756    1
  2428  2755  2757    1
  2429  2262  2260    1
  2430  2262  2257    1
  2431  3553  3547   ar
  2432  3553  3554    2
  2433  2475  2477   ar
  2434  2475  2476    1
  2435  3198  3200    1
  2436  2735  2736    1
  2437  2836  2855    2
  2438  2836  2854    1
  2439  2836  2822    1
  2440  3012  3011    1
  2441  2987  2989    1
  2442  2987  2988    1
  2443  2278  2279    1
  2444  2278  2276    1
  2445   103    97   ar
  2446  3049  3048    1
  2447  1790  1789    1
  2448  1790  1788    1
  2449  2498  2499    1
  2450  2498  2500   ar
  2451  2694  2695    1
  2452  2277  2276    1
  2453  1285  1284    1
  2454  3065  3051    1
  2455  3065  3084    2
  2456  3065  3083    1
  2457  3212  3211    2
  2458  2811  2810    1
  2459  2296  2279    1
  2460  2296  2314    1
  2461   630   610    2
  2462  1302  1301   ar
  2463  1302  1303   ar
  2464  3210  3211   ar
  2465  3210  3209   ar
  2466  2536  2534    1
  2467   732   738   ar
  2468  1301  1298   ar
  2469   632   654    1
  2470   632   616    1
  2471   632   634    1
  2472  1784  1785   ar
  2473  3336  3335    2
  2474  3215  3204    1
  2475  3215  3209   ar
  2476  2506  2507   ar
  2477  3676  3677   ar
  2478  3041  3042   ar
  2479  3348  3349    1
  2480  3348  3350    1
  2481  3348  3346    1
  2482  1785  1775    1
  2483   736   737   ar
  2484  3678  3677   ar
  2485  3678  3681   ar
  2486  2238  2240    1
  2487  2238  2236    1
  2488  2238  2239    1
  2489  2468  2467    1
  2490  2468  2473    1
  2491  3351  3350    1
  2492  3351  3358   ar
  2493  2295  2273    2
  2494  2718  2717    1
  2495   724   723    1
  2496  2240  2241    1
  2497  3574  3575    1
  2498  3574  3573   ar
  2499  2825  2820    1
  2500  1727  1744    1
  2501   725   726    1
  2502   725   723    1
  2503   725   727    1
  2504  3582  3581    1
  2505   616   615    1
  2506  2260  2258    1
  2507  2260  2261    1
  2508  2501  2500   ar
  2509  2501  2507   ar
  2510  3503  3502   ar
  2511  3503  3504    1
  2512  1287  1292    1
  2513  1287  1286    1
  2514  2467  2469    1
  2515  1810  1788    2
  2516  2795  2774    2
  2517  3357  3358   ar
  2518  3234  3233   ar
  2519  3234  3228   ar
  2520  3042  3031    1
  2521  2469  2470    1
  2522  2469  2471    1
  2523  1724  1722    1
  2524  2555  2533    2
  2525  3255  3254   ar
  2526  3255  3257   ar
  2527  2989  2990    1
  2528   100    98   ar
  2529  2473  2471    1
  2530  3204  3202    1
  2531  3211  3205   ar
  2532  3687  3688    1
  2533  2822  2821    1
  2534  3688  3686    1
  2535  3254  3252   ar
  2536   723   721    1
  2537  2821  2819    1
  2538  3048  3046    1
  2539  1303  1292    1
  2540  1303  1297   ar
  2541  1722  1723    1
  2542  3677  3683   ar
  2543  2535  2534    1
  2544  2535  2533    1
  2545  3347  3346    1
  2546  2717  2719    1
  2547  2257  2256    1
  2548   611   613    1
  2549   611   612    1
  2550  3571  3573   ar
  2551  3571  3572    2
  2552   738   737   ar
  2553   738   727    1
  2554  3236  3233   ar
  2555  3236  3237   ar
  2556  2487  2470    1
  2557  2487  2489    1
  2558  2487  2508    1
  2559  3002  2988    1
  2560  3002  3004    1
  2561  3002  3020    1
  2562  1298  1299   ar
  2563  1298  1297   ar
  2564  2714  2719    1
  2565  3240  3218    2
  2566  3200  3201    1
  2567  3200  3202    1
  2568  1292  1290    1
  2569  2255  2253    1
  2570  2255  2254    1
  2571  2276  2274    1
  2572  3209  3208   ar
  2573  2519  2517    1
  2574  2519  2514    1
  2575  2275  2273    1
  2576  2275  2274    1
  2577  3350  3345    1
  2578  2532  2510    2
  2579  3346  3344    1
  2580  1300  1299    2
  2581  3581  3583    1
  2582  2258  2256    1
  2583  2258  2259    1
  2584  2517  2515    1
  2585  2517  2518    1
  2586  2809  2810   ar
  2587  2809  2807   ar
  2588  2253  2239    1
  2589  2253  2271    1
  2590  3658  3657    1
  2591  1743  1721    2
  2592  3316  3315    1
  2593   713   712    2
  2594  2736  2741    1
  2595  1788  1809    1
  2596  1788  1772    1
  2597  2810  2812   ar
  2598    97    98   ar
  2599  2507  2496    1
  2600  2794  2774    1
  2601   740   718    2
  2602  3681  3682   ar
  2603  3335  3334   ar
  2604  3335  3337   ar
  2605  2471  2472    1
  2606  3233  3232   ar
  2607  3228  3229   ar
  2608  1299  1293   ar
  2609  1297  1296   ar
  2610   613   615    1
  2611   613   614    1
  2612  2757  2759    1
  2613  2757  2758    1
  2614  1773  1775    1
  2615  1773  1771    1
  2616  1773  1774    1
  2617  2739  2740    1
  2618  2739  2741    1
  2619   112   111    1
  2620  3004  3003    1
  2621    98    99    1
  2622  1284  1286    1
  2623  3334  3332   ar
  2624  1775  1770    1
  2625  2774  2760    1
  2626  2774  2776    1
  2627   127   128   ar
  2628   127   124   ar
  2629  1760  1759    1
  2630   634   633    1
  2631   633   635    1
  2632   727   722    1
  2633  3011  3006    1
  2634  3011  3009    1
  2635  2273  2259    1
  2636  2273  2294    1
  2637  1761  1762   ar
  2638  1761  1758   ar
  2639  2515  2516    1
  2640  2515  2513    1
  2641  1765  1744    2
  2642  2489  2488    1
  2643  2760  2759    1
  2644  2533  2516    1
  2645  2533  2554    1
  2646   610   612    1
  2647   610   596    1
  2648   610   631    1
  2649   615   617    1
  2650  1286  1288    1
  2651   676   655    2
  2652  3708  3686    2
  2653  1744  1764    1
  2654  1744  1746    1
  2655  3596  3597   ar
  2656  3596  3594   ar
  2657  3047  3046    1
  2658  3047  3045    1
  2659  3201  3218    1
  2660  2719  2729    1
  2661  3202  3203    1
  2662  2256  2254    1
  2663  2820  2819    1
  2664   128   129   ar
  2665   677   655    1
  2666  3044  3022    2
  2667  2750  2751   ar
  2668  2750  2749   ar
  2669  1771  1772    1
  2670  1771  1769    1
  2671  3031  3029    1
  2672  3031  3026    1
  2673  3253  3252    2
  2674  3257  3258   ar
  2675  3252  3251   ar
  2676   126   125    1
  2677  2512  2510    1
  2678  2512  2511    1
  2679   712   711   ar
  2680   712   714   ar
  2681   720   718    1
  2682   720   719    1
  2683  1723  1721    1
  2684   618   617    1
  2685  3205  3206   ar
  2686  2514  2513    1
  2687  3237  3238   ar
  2688  3296  3295    2
  2689  2759  2761    1
  2690  3006  3005    1
  2691  2741  2751    1
  2692  1293  1294   ar
  2693   596   595    1
  2694  1296  1294   ar
  2695  3686  3707    1
  2696  3686  3669    1
  2697  2808  2807    2
  2698   111   113    1
  2699  2819  2817    1
  2700  3683  3682   ar
  2701  3683  3672    1
  2702  3597  3590   ar
  2703  2807  2806   ar
  2704  3218  3239    1
  2705  3218  3220    1
  2706  1762  1763   ar
  2707   739   718    1
  2708  3029  3027    1
  2709  3029  3030    1
  2710   718   704    1
  2711  3622  3600    2
  2712  3064  3045    2
  2713  3009  3007    1
  2714  3009  3010    1
  2715  2758  2763    1
  2716  1721  1742    1
  2717  1721  1707    1
  2718   721   722    1
  2719   721   719    1
  2720  3208  3206   ar
  2721  2510  2531    1
  2722  2510  2493    1
  2723   711   709   ar
  2724  3657  3656   ar
  2725  3657  3659   ar
  2726  3345  3344    1
  2727  2812  2813   ar
  2728  3595  3594    1
  2729  3337  3338   ar
  2730  1291  1290    1
  2731  1290  1288    1
  2732  1294  1295    1
  2733  3315  3317   ar
  2734  3315  3314   ar
  2735   655   638    1
  2736   655   657    1
  2737  2790  2789    1
  2738  1759  1758   ar
  2739  1759  1754   ar
  2740  3344  3342    1
  2741  3670  3671    1
  2742  3670  3672    1
  2743  3670  3668    1
  2744  1758  1757   ar
  2745   714   715   ar
  2746  2751  2745   ar
  2747  2749  2746   ar
  2748  3583  3584    1
  2749  3583  3585    1
  2750  3007  3005    1
  2751  3007  3008    1
  2752  3332  3333    2
  2753  3332  3331   ar
  2754  1770  1769    1
  2755   124   125   ar
  2756   124   123   ar
  2757  2513  2511    1
  2758  1470  1469    1
  2759   617   619    1
  2760  2496  2494    1
  2761  2496  2491    1
  2762   614   619    1
  2763  3232  3238   ar
  2764  3232  3231   ar
  2765  3229  3230    1
  2766  3229  3231   ar
  2767   598   597    1
  2768  3656  3654   ar
  2769  3295  3297   ar
  2770  3295  3294   ar
  2771  2492  2494    1
  2772  2492  2493    1
  2773  2492  2490    1
  2774  3594  3593   ar
  2775  3206  3207    1
  2776  3003  3005    1
  2777   114   113    1
  2778   114   119    1
  2779  2818  2817    1
  2780  2818  2816    1
  2781   125   120   ar
  2782  3027  3028    1
  2783  3027  3025    1
  2784  3584  3589    1
  2785  1288  1289    1
  2786  2729  2728   ar
  2787  2729  2723   ar
  2788  3276  3275    1
  2789  3026  3025    1
  2790  3045  3028    1
  2791  3045  3063    1
  2792  2791  2792   ar
  2793  2791  2788   ar
  2794   638   637    1
  2795  2776  2775    1
  2796  1746  1745    1
  2797   635   637    1
  2798   635   636    1
  2799  2494  2495    1
  2800   208   209   ar
  2801   208   213   ar
  2802  3024  3022    1
  2803  3024  3023    1
  2804  3297  3298   ar
  2805  3669  3668    1
  2806  2488  2490    1
  2807  3617  3616    2
  2808  3258  3251   ar
  2809  3317  3318   ar
  2810  2491  2490    1
  2811  3672  3667    1
  2812  3668  3666    1
  2813  3251  3250    1
  2814  3585  3586    1
  2815  3585  3587    1
  2816   129   123   ar
  2817   129   119    1
  2818   566   545    2
  2819  1769  1767    1
  2820  3238  3227    1
  2821  2728  2727   ar
  2822  3314  3312   ar
  2823   709   710    2
  2824   709   708   ar
  2825  3022  3008    1
  2826  3022  3043    1
  2827  3659  3660   ar
  2828  3638  3637    2
  2829  2835  2816    2
  2830   238   239   ar
  2831   238   235   ar
  2832  3586  3600    1
  2833  3220  3219    1
  2834  3600  3621    1
  2835  3600  3602    1
  2836  3294  3292   ar
  2837   113   115    1
  2838   209   210   ar
  2839  2806  2813   ar
  2840  2806  2805    1
  2841  3343  3342    1
  2842  3343  3341    1
  2843   239   240   ar
  2844   715   708   ar
  2845  1745  1747    1
  2846  1763  1757   ar
  2847  1763  1753    1
  2848   697   678    2
  2849   595   593    1
  2850   595   597    1
  2851  3289  3288    1
  2852  3590  3589    1
  2853  3590  3591   ar
  2854   637   639    1
  2855  3338  3331   ar
  2856  3618  3619   ar
  2857  3618  3615   ar
  2858   619   629    1
  2859  1707  1706    1
  2860   147   146    1
  2861  2761  2763    1
  2862  2761  2762    1
  2863  1754  1755   ar
  2864  1748  1753    1
  2865  1748  1747    1
  2866  2763  2764    1
  2867   123   122   ar
  2868  3331  3330    1
  2869  1757  1756   ar
  2870  2792  2793   ar
  2871  2789  2788   ar
  2872  2789  2784   ar
  2873   214   213    1
  2874   593   591    1
  2875   593   594    1
  2876   350   329    2
  2877   704   703    1
  2878  1466  1465    1
  2879   708   707    1
  2880  3025  3023    1
  2881  3298  3291   ar
  2882  2746  2745   ar
  2883  2746  2747   ar
  2884  2745  2744   ar
  2885   192   191    2
  2886   717   698    2
  2887   597   599    1
  2888   119   117    1
  2889  2788  2787   ar
  2890  1767  1768    1
  2891  3275  3274   ar
  2892  3275  3277   ar
  2893  1469  1471   ar
  2894  1469  1468   ar
  2895  2723  2722   ar
  2896  2723  2724   ar
  2897   657   656    1
  2898   703   705    1
  2899   703   701    1
  2900  2816  2834    1
  2901  2816  2802    1
  2902  2766  2765    2
  2903  3654  3655    2
  2904  3654  3653   ar
  2905   636   641    1
  2906  3589  3587    1
  2907  3360  3341    2
  2908   696   678    1
  2909   213   212   ar
  2910   705   707    1
  2911   705   706    1
  2912  2815  2796    2
  2913   591   592    1
  2914  1471  1472   ar
  2915  2722  2721   ar
  2916  2775  2777    1
  2917   120   121   ar
  2918  3593  3591   ar
  2919  3320  3301    2
  2920  1289  1306    1
  2921   693   692    1
  2922  3292  3291   ar
  2923  3292  3293    2
  2924  3616  3615   ar
  2925  3616  3610   ar
  2926   185   191   ar
  2927   185   186   ar
  2928  2803  2805    1
  2929  2803  2801    1
  2930  2803  2804    1
  2931  2727  2724   ar
  2932  3685  3663    2
  2933   115   117    1
  2934   115   116    1
  2935   315   329    1
  2936   315   314    1
  2937  3274  3272   ar
  2938  3291  3290    1
  2939  3619  3620   ar
  2940  1753  1751    1
  2941  1747  1749    1
  2942  3667  3666    1
  2943   187   186    1
  2944  3318  3311   ar
  2945  2764  2765   ar
  2946  2764  2771   ar
  2947  3637  3639   ar
  2948  3637  3636   ar
  2949  3277  3278   ar
  2950   317   316    1
  2951  3615  3614   ar
  2952   228   227    1
  2953  3587  3588    1
  2954  3250  3248    1
  2955  3250  3245    1
  2956   312   310    1
  2957   312   314    1
  2958   312   313    1
  2959  3660  3653   ar
  2960   678   661    1
  2961   678   680    1
  2962  2765  2767   ar
  2963  1447  1446   ar
  2964  1447  1448   ar
  2965  3591  3592    2
  2966   237   236    2
  2967  3227  3222    1
  2968  3227  3225    1
  2969  3222  3221    1
  2970   310   311    1
  2971  3312  3311   ar
  2972  3312  3313    2
  2973  2805  2800    1
  2974  3666  3664    1
  2975   210   211   ar
  2976   700   698    1
  2977   700   699    1
  2978   169   168    2
  2979  3341  3359    1
  2980  3341  3327    1
  2981   545   528    1
  2982   545   565    1
  2983   545   547    1
  2984   592   590    1
  2985   191   190   ar
  2986   235   236   ar
  2987   235   234   ar
  2988  1755  1756   ar
  2989   294   293    1
  2990  3219  3221    1
  2991   146   148   ar
  2992   146   145   ar
  2993   716   698    1
  2994   651   650   ar
  2995   651   652   ar
  2996   656   658    1
  2997  3328  3330    1
  2998  3328  3326    1
  2999  3328  3329    1
  3000  2724  2725   ar
  3001   240   229    1
  3002   240   234   ar
  3003  1328  1306    2
  3004   148   149   ar
  3005   629   628   ar
  3006   629   623   ar
  3007   707   702    1
  3008   698   684    1
  3009  3602  3601    1
  3010  3665  3664    1
  3011  3665  3663    1
  3012  2801  2802    1
  3013  2801  2799    1
  3014   330   332    1
  3015   330   331    1
  3016  2784  2785   ar
  3017   594   599    1
  3018  2744  2743   ar
  3019  3601  3603    1
  3020  3249  3248    1
  3021  3288  3290    1
  3022  3288  3286    1
  3023  1323  1322    2
  3024  3639  3640   ar
  3025  1446  1451   ar
  3026   122   121   ar
  3027  3653  3652    1
  3028   628   627   ar
  3029  1489  1488    1
  3030   151   132    2
  3031  1706  1704    1
  3032  1706  1708    1
  3033  1749  1751    1
  3034  1749  1750    1
  3035   329   331    1
  3036   329   351    1
  3037  3330  3325    1
  3038   694   692   ar
  3039   694   695   ar
  3040  1787  1766    2
  3041  2747  2748    1
  3042  2747  2742   ar
  3043  1465  1467    1
  3044  1465  1463    1
  3045  1468  1474   ar
  3046   599   600    1
  3047  3340  3321    2
  3048  1324  1325   ar
  3049  1324  1321   ar
  3050   117   118    1
  3051  2793  2787   ar
  3052  2793  2783    1
  3053   692   691   ar
  3054  1485  1484    1
  3055  1485  1490    1
  3056   186   188   ar
  3057   528   527    1
  3058   639   641    1
  3059   639   640    1
  3060  2771  2770   ar
  3061  1704  1702    1
  3062  1704  1705    1
  3063   608   590    2
  3064  1467  1478    1
  3065  1467  1462    1
  3066  2787  2786   ar
  3067  2721  2720   ar
  3068  1484  1482    1
  3069  1484  1486    1
  3070   229   227    1
  3071   229   224    1
  3072   236   230   ar
  3073  3311  3310    1
  3074  3290  3285    1
  3075   116   132    1
  3076  1768  1766    1
  3077   314   316    1
  3078   650   647   ar
  3079  3326  3327    1
  3080  3326  3324    1
  3081   313   318    1
  3082  2767  2768   ar
  3083   641   652    1
  3084  3248  3246    1
  3085  2798  2796    1
  3086  2798  2797    1
  3087  1306  1327    1
  3088  1306  1308    1
  3089   546   547    1
  3090   546   548    1
  3091  1448  1449   ar
  3092  3272  3273    2
  3093  3272  3271   ar
  3094  3245  3244    1
  3095   701   699    1
  3096   701   702    1
  3097  3221  3223    1
  3098  3642  3623    2
  3099  3663  3684    1
  3100  3663  3649    1
  3101  1325  1326   ar
  3102  1322  1321   ar
  3103  1322  1316   ar
  3104  3610  3611   ar
  3105   212   211   ar
  3106   212   215   ar
  3107  1482  1483    1
  3108  3278  3271   ar
  3109  1472  1478   ar
  3110  1472  1473   ar
  3111  1751  1752    1
  3112   332   333    1
  3113   332   334    1
  3114  3636  3634   ar
  3115  2777  2778    1
  3116  2777  2779    1
  3117  2796  2780    1
  3118  2796  2814    1
  3119   661   660    1
  3120  1321  1320   ar
  3121  2778  2783    1
  3122   680   679    1
  3123  3223  3225    1
  3124  3223  3224    1
  3125   652   646   ar
  3126   327   309    2
  3127   234   233   ar
  3128  3301  3287    1
  3129  3301  3303    1
  3130  3301  3319    1
  3131   316   318    1
  3132   211   217   ar
  3133  3225  3226    1
  3134   227   225    1
  3135   145   143   ar
  3136  3260  3241    2
  3137  3287  3286    1
  3138   284   266    2
  3139   264   243    2
  3140   673   674   ar
  3141   673   670   ar
  3142   370   352    2
  3143  3620  3614   ar
  3144  3620  3609    1
  3145  1702  1703    1
  3146  2779  2780    1
  3147  2779  2781    1
  3148   590   609    1
  3149   590   573    1
  3150  1709  1708    1
  3151  2770  2768   ar
  3152  1490  1488    1
  3153  1490  1501    1
  3154  2800  2799    1
  3155  3614  3613   ar
  3156   168   162   ar
  3157   168   167   ar
  3158   281   280    1
  3159  2725  2720   ar
  3160  2725  2726    1
  3161   149   142   ar
  3162   226   225    1
  3163   226   243    1
  3164   660   658    1
  3165   660   662    1
  3166  2743  2742   ar
  3167  3271  3270    1
  3168   695   688   ar
  3169  1766  1750    1
  3170  1766  1786    1
  3171  2768  2769    2
  3172  1478  1477   ar
  3173  1462  1461    1
  3174  1705  1710    1
  3175   674   675   ar
  3176   132   150    1
  3177   132   134    1
  3178   311   309    1
  3179   623   622   ar
  3180   623   624   ar
  3181   292   309    1
  3182   292   291    1
  3183   318   319    1
  3184   691   689   ar
  3185  2785  2786   ar
  3186   530   529    1
  3187  1316  1317   ar
  3188  3323  3321    1
  3189  3323  3322    1
  3190   333   338    1
  3191   335   334    1
  3192   335   352    1
  3193   658   659    1
  3194  3286  3284    1
  3195   244   246    1
  3196   244   245    1
  3197  3325  3324    1
  3198  1326  1320   ar
  3199  1326  1315    1
  3200  1488  1486    1
  3201   627   624   ar
  3202   190   189   ar
  3203   190   193   ar
  3204  2783  2781    1
  3205  1708  1710    1
  3206  2799  2797    1
  3207  1310  1315    1
  3208  1310  1309    1
  3209  3303  3302    1
  3210   293   291    1
  3211   293   295    1
  3212  1320  1319   ar
  3213  1464  1463    1
  3214  1464  1481    1
  3215  1710  1711    1
  3216  3640  3633   ar
  3217  1451  1452    1
  3218  1451  1450   ar
  3219   162   163   ar
  3220  3648  3650    1
  3221  3648  3649    1
  3222  3648  3646    1
  3223  1424  1425   ar
  3224  1424  1429   ar
  3225  1408  1407    1
  3226  1461  1463    1
  3227  1461  1459    1
  3228  3603  3604    1
  3229  3603  3605    1
  3230   602   601    2
  3231   622   621   ar
  3232  3652  3650    1
  3233  3652  3647    1
  3234  1425  1426   ar
  3235  3321  3339    1
  3236  3321  3307    1
  3237   684   683    1
  3238  3650  3651    1
  3239  1486  1487    1
  3240  1474  1473   ar
  3241  1474  1475    2
  3242   224   223    1
  3243   188   189   ar
  3244  3604  3609    1
  3245  1487  1504    1
  3246   255   254    1
  3247  1308  1307    1
  3248   309   328    1
  3249   600   601   ar
  3250   600   607   ar
  3251   588   567    2
  3252   672   671    2
  3253   527   525    1
  3254   527   529    1
  3255  3324  3322    1
  3256   647   646   ar
  3257   647   648   ar
  3258   282   280   ar
  3259   282   283   ar
  3260  3243  3241    1
  3261  3243  3242    1
  3262   289   290    1
  3263   289   291    1
  3264   289   287    1
  3265  1473  1476   ar
  3266   225   223    1
  3267   334   336    1
  3268  1713  1712    2
  3269   548   549    1
  3270   548   550    1
  3271  3285  3284    1
  3272   230   231   ar
  3273   280   279   ar
  3274  1315  1313    1
  3275  1449  1450   ar
  3276  1449  1455   ar
  3277   290   295    1
  3278  1317  1319   ar
  3279  1317  1318    1
  3280   683   681    1
  3281   683   685    1
  3282  3605  3606    1
  3283  3605  3607    1
  3284   215   216   ar
  3285   243   245    1
  3286   243   265    1
  3287   679   681    1
  3288  3310  3308    1
  3289  3310  3305    1
  3290   337   336    1
  3291  3611  3613   ar
  3292  3611  3612    1
  3293   352   371    1
  3294   352   354    1
  3295   646   645   ar
  3296   295   306    1
  3297  1483  1481    1
  3298   573   572    1
  3299   525   523    1
  3300   525   526    1
  3301   624   625   ar
  3302  1719  1701    2
  3303   143   142   ar
  3304   143   144    2
  3305   246   247    1
  3306   246   248    1
  3307  3224  3241    1
  3308  3246  3244    1
  3309  3246  3247    1
  3310  2781  2782    1
  3311  3244  3242    1
  3312  1502  1481    2
  3313   670   671   ar
  3314   670   669   ar
  3315  3634  3633   ar
  3316  3634  3635    2
  3317  3241  3259    1
  3318  3306  3308    1
  3319  3306  3307    1
  3320  3306  3304    1
  3321   523   524    1
  3322   189   195   ar
  3323   142   141    1
  3324  1307  1309    1
  3325  3609  3607    1
  3326   688   689   ar
  3327   688   687    1
  3328  3308  3309    1
  3329  3623  3606    1
  3330  3623  3625    1
  3331  3623  3641    1
  3332   659   664    1
  3333   134   133    1
  3334  1402  1407   ar
  3335  1402  1403   ar
  3336   193   194   ar
  3337   601   603   ar
  3338   167   170   ar
  3339   167   166   ar
  3340   233   231   ar
  3341   689   690    2
  3342  3662  3643    2
  3343  3270  3265    1
  3344  3270  3268    1
  3345   170   171   ar
  3346  1344  1343    1
  3347   529   531    1
  3348   217   216   ar
  3349   217   207    1
  3350  3644  3646    1
  3351  3644  3645    1
  3352  1501  1500   ar
  3353  1501  1495   ar
  3354   675   664    1
  3355   675   669   ar
  3356   549   554    1
  3357  1444  1443    1
  3358   671   665   ar
  3359   266   285    1
  3360   266   249    1
  3361   266   268    1
  3362  1703  1701    1
  3363  3647  3646    1
  3364  1450  1453   ar
  3365  3633  3632    1
  3366  1481  1503    1
  3367  1407  1406   ar
  3368  3284  3282    1
  3369  3305  3304    1
  3370   607   606   ar
  3371   338   336    1
  3372   338   349    1
  3373   247   252    1
  3374  3247  3261    1
  3375  1430  1429    1
  3376  1309  1311    1
  3377  3265  3264    1
  3378   223   221    1
  3379  1477  1476   ar
  3380   662   664    1
  3381   662   663    1
  3382  1381  1380    1
  3383  1429  1428   ar
  3384   283   276   ar
  3385  1426  1427   ar
  3386   231   232    1
  3387   279   277   ar
  3388   681   682    1
  3389   543   522    2
  3390   163   164    1
  3391   163   165   ar
  3392   572   570    1
  3393   572   574    1
  3394  3302  3304    1
  3395   319   326   ar
  3396   319   320   ar
  3397   649   648    2
  3398  3625  3624    1
  3399  1711  1712   ar
  3400  1711  1718   ar
  3401   287   288    1
  3402   621   620   ar
  3403   648   642   ar
  3404   685   687    1
  3405   685   686    1
  3406  1459  1460    1
  3407   254   256   ar
  3408   254   253   ar
  3409  3607  3608    1
  3410  1712  1714   ar
  3411   256   257   ar
  3412  1500  1499   ar
  3413   669   668   ar
  3414   353   354    1
  3415   353   355    1
  3416  1455  1445    1
  3417  1455  1454   ar
  3418  1445  1443    1
  3419  1445  1440    1
  3420   207   205    1
  3421   207   202    1
  3422  1522  1504    2
  3423  1443  1441    1
  3424   550   551    1
  3425   550   552    1
  3426  1689  1688    1
  3427  1701  1687    1
  3428  1701  1720    1
  3429  1494  1495   ar
  3430  1494  1492   ar
  3431  1403  1404   ar
  3432   645   643   ar
  3433  1504  1506    1
  3434  1504  1523    1
  3435   249   248    1
  3436   567   551    1
  3437   567   589    1
  3438   567   569    1
  3439   299   297   ar
  3440   299   300   ar
  3441   268   267    1
  3442   687   682    1
  3443   136   141    1
  3444   136   135    1
  3445  1495  1496   ar
  3446  1343  1342   ar
  3447  1343  1345   ar
  3448   248   250    1
  3449   321   320    2
  3450   298   297    1
  3451  1505  1506    1
  3452  1505  1507    1
  3453   326   325   ar
  3454   526   531    1
  3455   625   620   ar
  3456   625   626    1
  3457   524   522    1
  3458   194   195   ar
  3459   141   139    1
  3460   206   205    1
  3461   274   273    1
  3462   195   184    1
  3463   306   300   ar
  3464   306   305   ar
  3465  1313  1311    1
  3466  1313  1314    1
  3467   205   203    1
  3468   531   542    1
  3469   276   277   ar
  3470   276   275    1
  3471   166   165   ar
  3472   166   172   ar
  3473   133   135    1
  3474   603   604   ar
  3475  1364  1363    2
  3476   171   172   ar
  3477   510   509    1
  3478   277   278    2
  3479   570   568    1
  3480   570   571    1
  3481   665   666   ar
  3482   273   275    1
  3483   273   271    1
  3484  3645  3643    1
  3485   568   569    1
  3486  1311  1312    1
  3487   575   574    1
  3488  3643  3661    1
  3489  3643  3629    1
  3490  1687  1686    1
  3491  3269  3268    1
  3492  3268  3266    1
  3493   563   564   ar
  3494   563   562   ar
  3495   349   348   ar
  3496   349   343   ar
  3497   320   322   ar
  3498  1406  1409   ar
  3499  1406  1405   ar
  3500  1342  1340   ar
  3501  1427  1428   ar
  3502  1427  1433   ar
  3503   348   347   ar
  3504   606   604   ar
  3505  1345  1346   ar
  3506  1428  1431   ar
  3507  1453  1454   ar
  3508   554   552    1
  3509   554   564    1
  3510   252   250    1
  3511   252   263    1
  3512  1380  1379   ar
  3513  1380  1382   ar
  3514  3282  3283    1
  3515  3264  3266    1
  3516  3264  3262    1
  3517  3632  3630    1
  3518  3632  3627    1
  3519  3267  3266    1
  3520  3267  3281    1
  3521  3283  3281    1
  3522  1460  1458    1
  3523   522   508    1
  3524   522   544    1
  3525   297   296   ar
  3526  3628  3630    1
  3527  3628  3629    1
  3528  3628  3626    1
  3529   253   259   ar
  3530  1718  1717   ar
  3531   300   301   ar
  3532   221   222    1
  3533   574   576    1
  3534   642   643   ar
  3535   288   286    1
  3536  1499  1496   ar
  3537  1507  1508    1
  3538  1507  1509    1
  3539   668   666   ar
  3540   552   553    1
  3541  1379  1385   ar
  3542   643   644    1
  3543  3261  3263    1
  3544  3261  3280    2
  3545  3261  3279    1
  3546  1492  1493    1
  3547  1492  1491   ar
  3548  1714  1715   ar
  3549  3630  3631    1
  3550   135   137    1
  3551  1440  1439    1
  3552   202   201    1
  3553  3627  3626    1
  3554   508   507    1
  3555   257   263   ar
  3556   257   258   ar
  3557  1508  1513    1
  3558  3263  3262    1
  3559  3624  3626    1
  3560  1496  1497   ar
  3561   355   356    1
  3562   355   357    1
  3563  1409  1410   ar
  3564   222   220    1
  3565  1688  1686    1
  3566  1688  1690    1
  3567   172   161    1
  3568   564   558   ar
  3569   275   270    1
  3570   604   605    2
  3571  1404  1405   ar
  3572   666   667    1
  3573  3300  3281    2
  3574   562   559   ar
  3575  1362  1363   ar
  3576  1362  1360   ar
  3577  1363  1365   ar
  3578  1670  1669    1
  3579   250   251    1
  3580   271   269    1
  3581   271   272    1
  3582   137   139    1
  3583   137   138    1
  3584   174   152    2
  3585  1405  1411   ar
  3586  1441  1442    1
  3587  1441  1439    1
  3588   305   304   ar
  3589   263   262   ar
  3590   509   507    1
  3591   509   511    1
  3592   325   323   ar
  3593   184   182    1
  3594   184   179    1
  3595   267   269    1
  3596   139   140    1
  3597  3281  3299    1
  3598  1693  1692    2
  3599  1340  1341    2
  3600  1340  1339   ar
  3601  1382  1383   ar
  3602  1346  1339   ar
  3603  1686  1684    1
  3604   542   541   ar
  3605   542   536   ar
  3606   356   361    1
  3607   571   576    1
  3608  1442  1458    1
  3609   203   201    1
  3610   203   204    1
  3611  1312  1329    1
  3612   576   587    1
  3613  1439  1437    1
  3614  1433  1423    1
  3615  1433  1432   ar
  3616   391   372    2
  3617   347   344   ar
  3618   343   342   ar
  3619   343   344   ar
  3620   270   269    1
  3621  1431  1432   ar
  3622   322   323   ar
  3623   514   513    2
  3624   390   372    1
  3625   358   357    1
  3626   358   372    1
  3627  1717  1715   ar
  3628  1491  1497   ar
  3629   507   505    1
  3630   182   183    1
  3631   182   180    1
  3632  1361  1360    2
  3633  1715  1716    1
  3634   259   258   ar
  3635   259   260    2
  3636  1339  1338    1
  3637  1385  1386    2
  3638  1385  1384   ar
  3639  1348  1329    2
  3640  1458  1479    2
  3641  1458  1480    1
  3642   258   261   ar
  3643   296   302   ar
  3644   301   304   ar
  3645   301   302   ar
  3646   357   359    1
  3647  1360  1359   ar
  3648  1497  1498    2
  3649   201   199    1
  3650   535   536   ar
  3651   535   533   ar
  3652   342   340   ar
  3653  1423  1421    1
  3654  1423  1418    1
  3655  1513  1511    1
  3656  1513  1514    1
  3657   541   540   ar
  3658  1410  1411   ar
  3659   286   272    1
  3660   286   308    2
  3661   286   307    1
  3662  1690  1685    1
  3663  1690  1691    1
  3664   323   324    1
  3665   372   374    1
  3666  1509  1510    1
  3667  1509  1511    1
  3668  1365  1366   ar
  3669  1510  1524    1
  3670  1684  1685    1
  3671  1684  1682    1
  3672   558   559   ar
  3673   558   557   ar
  3674  1422  1421    1
  3675   559   560   ar
  3676  1512  1511    1
  3677   536   537   ar
  3678   138   152    1
  3679  1411  1401    1
  3680   179   178    1
  3681   161   156    1
  3682   161   159    1
  3683  1421  1419    1
  3684  1669  1671   ar
  3685  1669  1668   ar
  3686   344   345   ar
  3687   204   220    1
  3688   220   242    2
  3689   220   241    1
  3690  1521  1514   ar
  3691  1521  1520   ar
  3692  1692  1691   ar
  3693  1692  1694   ar
  3694   511   512    1
  3695   511   506    1
  3696   152   154    1
  3697   152   173    1
  3698  1383  1384   ar
  3699  1383  1389   ar
  3700   369   368   ar
  3701   369   362   ar
  3702   262   261   ar
  3703  1329  1331    1
  3704  1329  1347    1
  3705   513   512   ar
  3706   513   515   ar
  3707   154   153    1
  3708   302   303    2
  3709   180   178    1
  3710   180   181    1
  3711   156   155    1
  3712   200   199    1
  3713   200   198    1
  3714   505   506    1
  3715   505   503    1
  3716  1545  1524    2
  3717  1384  1387   ar
  3718  1514  1515   ar
  3719   361   359    1
  3720   361   362    1
  3721   534   533    1
  3722   587   586   ar
  3723   587   581   ar
  3724   368   366   ar
  3725  1338  1333    1
  3726  1338  1336    1
  3727  1691  1698   ar
  3728  1333  1332    1
  3729  1359  1366   ar
  3730  1359  1358    1
  3731  1546  1524    1
  3732  1671  1672   ar
  3733  1331  1330    1
  3734   533   532   ar
  3735  1668  1674   ar
  3736  1437  1438    1
  3737  1524  1526    1
  3738  1682  1683    1
  3739   512   519   ar
  3740  1520  1518   ar
  3741   557   556   ar
  3742  1666  1665    1
  3743   540   537   ar
  3744   359   360    1
  3745  1418  1417    1
  3746  1694  1695   ar
  3747   178   176    1
  3748   219   198    2
  3749   159   157    1
  3750   159   160    1
  3751  1683  1681    1
  3752   340   341    1
  3753   340   339   ar
  3754   537   538   ar
  3755   515   516   ar
  3756   362   363   ar
  3757   560   561    1
  3758   560   555   ar
  3759   176   177    1
  3760  1438  1436    1
  3761  1401  1399    1
  3762  1401  1396    1
  3763   580   581   ar
  3764   580   578   ar
  3765  1389  1378    1
  3766  1389  1388   ar
  3767   586   585   ar
  3768   374   373    1
  3769   157   155    1
  3770   157   158    1
  3771  1378  1376    1
  3772  1378  1373    1
  3773   345   339   ar
  3774   345   346    2
  3775   581   582   ar
  3776  1419  1417    1
  3777  1419  1420    1
  3778   181   198    1
  3779   198   218    1
  3780   153   155    1
  3781  1377  1376    1
  3782   503   504    1
  3783   197   175    2
  3784  1330  1332    1
  3785  1358  1353    1
  3786  1358  1356    1
  3787  1515  1516    2
  3788  1515  1517   ar
  3789  1387  1388   ar
  3790  1665  1667    1
  3791  1665  1663    1
  3792   532   538   ar
  3793   491   490   ar
  3794   491   492   ar
  3795   490   495   ar
  3796  1332  1334    1
  3797   556   555   ar
  3798  1376  1374    1
  3799  1698  1697   ar
  3800   519   518   ar
  3801  1399  1400    1
  3802  1399  1397    1
  3803  1672  1673   ar
  3804  1672  1678   ar
  3805   366   367    1
  3806   366   365   ar
  3807  1336  1334    1
  3808  1336  1337    1
  3809  1417  1415    1
  3810  1674  1675    2
  3811  1674  1673   ar
  3812  1396  1395    1
  3813  1518  1517   ar
  3814  1518  1519    1
  3815   538   539    2
  3816   579   578    1
  3817  1457  1436    2
  3818   373   375    1
  3819  1420  1436    1
  3820   516   518   ar
  3821   516   517    2
  3822  1695  1697   ar
  3823  1695  1696    1
  3824   177   175    1
  3825   578   577   ar
  3826  1526  1525    1
  3827  1373  1372    1
  3828  1436  1456    1
  3829   363   365   ar
  3830   363   364    2
  3831   504   502    1
  3832  1334  1335    1
  3833  1353  1352    1
  3834  1681  1699    2
  3835  1681  1664    1
  3836  1681  1700    1
  3837   585   582   ar
  3838  1664  1663    1
  3839  1667  1678    1
  3840  1667  1662    1
  3841   582   583   ar
  3842   158   175    1
  3843   175   196    1
  3844   492   493   ar
  3845  1525  1527    1
  3846  1673  1676   ar
  3847  1356  1357    1
  3848  1356  1354    1
  3849  1397  1395    1
  3850  1397  1398    1
  3851  1678  1677   ar
  3852   495   496    1
  3853   495   494   ar
  3854  1542  1543   ar
  3855  1542  1539   ar
  3856  1663  1661    1
  3857   388   389   ar
  3858   388   386   ar
  3859  1416  1415    1
  3860  1416  1414    1
  3861  1543  1544   ar
  3862  1395  1393    1
  3863   389   382   ar
  3864  1394  1393    1
  3865  1394  1392    1
  3866  1374  1372    1
  3867  1374  1375    1
  3868   577   583   ar
  3869  1372  1370    1
  3870   375   376    1
  3871   375   377    1
  3872  1528  1527    1
  3873  1528  1533    1
  3874   520   502    2
  3875   376   381    1
  3876   493   494   ar
  3877   493   499   ar
  3878  1435  1414    2
  3879   583   584    2
  3880  1662  1661    1
  3881  1541  1540    2
  3882   488   487    1
  3883   502   521    1
  3884   502   486    1
  3885  1661  1659    1
  3886  1368  1349    2
  3887  1335  1349    1
  3888   411   392    2
  3889   387   386    1
  3890  1352  1354    1
  3891  1352  1350    1
  3892  1354  1355    1
  3893   494   497   ar
  3894  1527  1529    1
  3895  1351  1349    1
  3896  1351  1350    1
  3897  1398  1414    1
  3898  1539  1540   ar
  3899  1539  1538   ar
  3900  1676  1677   ar
  3901   386   385   ar
  3902   487   489    1
  3903   487   485    1
  3904  1414  1434    1
  3905  1375  1392    1
  3906  1544  1533    1
  3907  1544  1538   ar
  3908   429   428    2
  3909  1650  1649    2
  3910  1540  1534   ar
  3911   377   378    1
  3912   377   379    1
  3913  1349  1367    1
  3914  1651  1649   ar
  3915  1651  1652   ar
  3916   382   381    1
  3917   382   383   ar
  3918  1392  1413    2
  3919  1392  1412    1
  3920   486   485    1
  3921  1533  1531    1
  3922   499   489    1
  3923   499   498   ar
  3924   469   468    1
  3925  1370  1371    1
  3926   378   392    1
  3927  1371  1369    1
  3928  1567  1547    2
  3929   392   410    1
  3930   392   394    1
  3931  1538  1537   ar
  3932  1653  1652    1
  3933   381   379    1
  3934   489   484    1
  3935   467   468   ar
  3936   467   473   ar
  3937   485   483    1
  3938  1649  1648   ar
  3939   497   498   ar
  3940  1632  1631    2
  3941  1355  1369    1
  3942   474   473    2
  3943  1529  1531    1
  3944  1529  1530    1
  3945  1568  1547    1
  3946  1659  1660    1
  3947   385   383   ar
  3948  1652  1654   ar
  3949   407   406    1
  3950   428   422   ar
  3951   428   427   ar
  3952  1625  1631   ar
  3953  1625  1626   ar
  3954   468   470   ar
  3955  1391  1369    2
  3956  1534  1535   ar
  3957   379   380    1
  3958   383   384    2
  3959  1547  1530    1
  3960  1547  1549    1
  3961   473   472   ar
  3962   422   423   ar
  3963  1369  1390    1
  3964  1609  1608    2
  3965  1627  1626    1
  3966  1531  1532    1
  3967   408   406   ar
  3968   408   409   ar
  3969  1631  1630   ar
  3970  1660  1658    1
  3971  1537  1535   ar
  3972  1586  1585    2
  3973  1646  1645    1
  3974   484   483    1
  3975   394   393    1
  3976   406   405   ar
  3977  1626  1628   ar
  3978  1535  1536    1
  3979   483   481    1
  3980  1648  1647    1
  3981  1648  1655   ar
  3982  1645  1647    1
  3983  1645  1643    1
  3984   427   430   ar
  3985   427   426   ar
  3986   430   431   ar
  3987   470   471   ar
  3988  1654  1655   ar
  3989   409   402   ar
  3990  1647  1642    1
  3991   472   471   ar
  3992   472   475   ar
  3993  1608  1602   ar
  3994  1608  1607   ar
  3995   423   424    1
  3996   423   425   ar
  3997  1549  1548    1
  3998  1587  1584   ar
  3999  1587  1588   ar
  4000  1602  1603   ar
  4001  1630  1629   ar
  4002  1630  1633   ar
  4003   471   477   ar
  4004  1585  1584   ar
  4005  1585  1579   ar
  4006  1548  1550    1
  4007   393   395    1
  4008  1591  1569    2
  4009  1658  1680    2
  4010  1658  1644    1
  4011  1658  1679    1
  4012   482   481    1
  4013   482   480    1
  4014   405   403   ar
  4015  1628  1629   ar
  4016   426   425   ar
  4017   426   432   ar
  4018  1643  1644    1
  4019  1643  1641    1
  4020   475   476   ar
  4021  1584  1583   ar
  4022   431   432   ar
  4023  1629  1635   ar
  4024  1633  1634   ar
  4025  1588  1589   ar
  4026  1607  1610   ar
  4027  1607  1606   ar
  4028   451   450    1
  4029   402   403   ar
  4030   402   401    1
  4031   434   412    2
  4032  1610  1611   ar
  4033  1590  1569    1
  4034  1642  1641    1
  4035   501   480    2
  4036   396   395    1
  4037   396   401    1
  4038  1579  1580   ar
  4039  1603  1604    1
  4040  1603  1605   ar
  4041   403   404    2
  4042   477   476   ar
  4043   477   466    1
  4044  1569  1571    1
  4045  1569  1553    1
  4046   432   421    1
  4047   395   397    1
  4048   480   500    1
  4049   480   463    1
  4050  1641  1639    1
  4051  1550  1551    1
  4052  1550  1552    1
  4053   464   465    1
  4054   464   466    1
  4055   464   462    1
  4056   401   399    1
  4057  1564  1565   ar
  4058  1564  1561   ar
  4059   397   399    1
  4060   397   398    1
  4061  1583  1589   ar
  4062  1583  1582   ar
  4063  1565  1566   ar
  4064  1634  1635   ar
  4065   450   445   ar
  4066   450   449   ar
  4067  1606  1605   ar
  4068  1606  1612   ar
  4069  1635  1624    1
  4070  1570  1571    1
  4071  1570  1572    1
  4072  1589  1578    1
  4073   466   461    1
  4074  1551  1556    1
  4075  1552  1553    1
  4076  1552  1554    1
  4077  1611  1612   ar
  4078   412   414    1
  4079   412   398    1
  4080   412   433    1
  4081   462   463    1
  4082   462   460    1
  4083  1580  1582   ar
  4084  1580  1581    1
  4085  1614  1592    2
  4086   445   446   ar
  4087   452   449   ar
  4088   452   453   ar
  4089   399   400    1
  4090   414   413    1
  4091   456   435    2
  4092   421   419    1
  4093   421   416    1
  4094  1640  1639    1
  4095  1640  1638    1
  4096  1563  1562    1
  4097   449   448   ar
  4098  1561  1562   ar
  4099  1561  1560   ar
  4100  1566  1556    1
  4101  1566  1560   ar
  4102  1612  1601    1
  4103   419   417    1
  4104   419   420    1
  4105  1573  1572    1
  4106  1573  1578    1
  4107  1556  1554    1
  4108  1624  1622    1
  4109  1624  1619    1
  4110  1572  1574    1
  4111  1622  1620    1
  4112  1622  1623    1
  4113  1578  1576    1
  4114  1574  1576    1
  4115  1574  1575    1
  4116  1562  1557   ar
  4117   417   415    1
  4118   417   418    1
  4119   461   460    1
  4120   416   415    1
  4121  1554  1555    1
  4122  1560  1559   ar
  4123  1657  1638    2
  4124  1637  1615    2
  4125   453   454   ar
  4126   460   458    1
  4127   446   447   ar
  4128  1620  1621    1
  4129  1620  1618    1
  4130  1592  1594    1
  4131  1592  1575    1
  4132  1592  1613    1
  4133  1638  1621    1
  4134  1638  1656    1
  4135   413   415    1
  4136  1576  1577    1
  4137   448   447   ar
  4138   448   454   ar
  4139  1594  1593    1
  4140   459   458    1
  4141   459   457    1
  4142   435   418    1
  4143   435   437    1
  4144   435   455    1
  4145   479   457    2
  4146  1619  1618    1
  4147  1601  1599    1
  4148  1601  1596    1
  4149  1617  1615    1
  4150  1617  1616    1
  4151  1557  1558   ar
  4152   454   444    1
  4153  1559  1558   ar
  4154   437   436    1
  4155  1599  1597    1
  4156  1599  1600    1
  4157  1597  1595    1
  4158  1597  1598    1
  4159  1615  1598    1
  4160  1615  1636    1
  4161  1618  1616    1
  4162  1596  1595    1
  4163   457   478    1
  4164   457   441    1
  4165  1593  1595    1
  4166   440   442    1
  4167   440   441    1
  4168   440   438    1
  4169   444   442    1
  4170   444   439    1
  4171   442   443    1
  4172   436   438    1
  4173   439   438    1
