ligand
 OpenBabel11021811513D
libRbt.so/2013.1/901 2013/11/27
 42 48  0  0  0  0  0  0  0  0999 V2000
    3.7918  -34.4006  -13.3771 P   0  0  2  0  0  0  0  0  0  0  0  0
    7.5685  -35.4610  -16.5593 P   0  0  1  0  0  0  0  0  0  0  0  0
    3.2743  -35.4953  -12.4733 O   0  5  0  0  0  0  0  0  0  0  0  0
    7.0776  -34.1412  -17.1048 O   0  5  0  0  0  0  0  0  0  0  0  0
    2.9829  -33.1408  -13.5731 O   0  0  0  0  0  0  0  0  0  0  0  0
    8.8837  -36.0306  -17.0338 O   0  0  0  0  0  0  0  0  0  0  0  0
    3.2799  -36.1049  -15.3239 C   0  0  0  0  0  0  0  0  0  0  0  0
    8.4340  -34.3811  -14.3148 C   0  0  0  0  0  0  0  0  0  0  0  0
    4.0874  -35.0403  -14.8243 O   0  0  0  0  0  0  0  0  0  0  0  0
    7.6140  -35.3571  -14.9532 O   0  0  0  0  0  0  0  0  0  0  0  0
    4.1180  -36.9928  -16.2360 C   0  0  1  0  0  0  0  0  0  0  0  0
    7.6129  -33.6230  -13.2793 C   0  0  1  0  0  0  0  0  0  0  0  0
    3.2623  -37.7093  -17.1304 O   0  0  0  0  0  0  0  0  0  0  0  0
    8.2089  -32.3475  -13.0307 O   0  0  0  0  0  0  0  0  0  0  0  0
    5.0811  -36.1687  -17.0737 C   0  0  1  0  0  0  0  0  0  0  0  0
    6.1928  -33.3850  -13.7675 C   0  0  1  0  0  0  0  0  0  0  0  0
    6.4230  -36.5655  -16.8079 O   0  0  0  0  0  0  0  0  0  0  0  0
    5.2614  -33.9827  -12.8707 O   0  0  0  0  0  0  0  0  0  0  0  0
    4.7344  -36.4467  -18.5246 C   0  0  0  0  0  0  0  0  0  0  0  0
    5.9951  -31.8817  -13.7969 C   0  0  0  0  0  0  0  0  0  0  0  0
    3.5721  -37.4282  -18.4979 C   0  0  2  0  0  0  0  0  0  0  0  0
    7.3083  -31.2761  -13.3223 C   0  0  2  0  0  0  0  0  0  0  0  0
    0.2380  -33.3735  -18.6450 N   0  0  0  0  0  0  0  0  0  0  0  0
    1.2845  -33.6073  -17.8318 C   0  0  0  0  0  0  0  0  0  0  0  0
    2.0610  -34.7038  -17.9091 N   0  0  0  0  0  0  0  0  0  0  0  0
    1.8235  -35.6596  -18.8391 C   0  0  0  0  0  0  0  0  0  0  0  0
    0.6961  -35.4763  -19.7665 C   0  0  0  0  0  0  0  0  0  0  0  0
   -0.1133  -34.2435  -19.6184 C   0  0  0  0  0  0  0  0  0  0  0  0
   -1.1685  -33.9965  -20.4314 N   0  0  0  0  0  0  0  0  0  0  0  0
    0.6839  -36.5536  -20.5737 N   0  0  0  0  0  0  0  0  0  0  0  0
    1.7120  -37.3566  -20.1974 C   0  0  0  0  0  0  0  0  0  0  0  0
    2.3915  -36.8237  -19.1637 N   0  0  0  0  0  0  0  0  0  0  0  0
    9.9306  -26.8717  -14.4615 N   0  0  0  0  0  0  0  0  0  0  0  0
    9.5550  -27.3745  -13.2709 C   0  0  0  0  0  0  0  0  0  0  0  0
    8.8790  -28.5285  -13.1265 N   0  0  0  0  0  0  0  0  0  0  0  0
    8.5300  -29.2684  -14.2066 C   0  0  0  0  0  0  0  0  0  0  0  0
    8.9054  -28.7849  -15.5442 C   0  0  0  0  0  0  0  0  0  0  0  0
    9.6492  -27.5053  -15.6204 C   0  0  0  0  0  0  0  0  0  0  0  0
   10.0337  -26.9890  -16.8136 N   0  0  0  0  0  0  0  0  0  0  0  0
    8.4452  -29.6942  -16.4241 N   0  0  0  0  0  0  0  0  0  0  0  0
    7.8292  -30.6732  -15.7127 C   0  0  0  0  0  0  0  0  0  0  0  0
    7.8795  -30.4196  -14.3920 N   0  0  0  0  0  0  0  0  0  0  0  0
  1  3  1  1  0  0  0
  1  5  2  0  0  0  0
  1  9  1  0  0  0  0
  1 18  1  0  0  0  0
  2  4  1  6  0  0  0
  2  6  2  0  0  0  0
  2 10  1  0  0  0  0
  2 17  1  0  0  0  0
  7  9  1  0  0  0  0
  8 10  1  0  0  0  0
 11  7  1  1  0  0  0
 11 13  1  0  0  0  0
 11 15  1  0  0  0  0
 12  8  1  6  0  0  0
 12 14  1  0  0  0  0
 12 16  1  0  0  0  0
 13 21  1  0  0  0  0
 14 22  1  0  0  0  0
 15 17  1  6  0  0  0
 15 19  1  0  0  0  0
 16 18  1  1  0  0  0
 16 20  1  0  0  0  0
 19 21  1  0  0  0  0
 20 22  1  0  0  0  0
 21 32  1  1  0  0  0
 22 42  1  6  0  0  0
 23 24  2  0  0  0  0
 23 28  1  0  0  0  0
 24 25  1  0  0  0  0
 25 26  2  0  0  0  0
 26 27  1  0  0  0  0
 26 32  1  0  0  0  0
 27 28  2  0  0  0  0
 27 30  1  0  0  0  0
 28 29  1  0  0  0  0
 30 31  2  0  0  0  0
 31 32  1  0  0  0  0
 33 34  2  0  0  0  0
 33 38  1  0  0  0  0
 34 35  1  0  0  0  0
 35 36  2  0  0  0  0
 36 37  1  0  0  0  0
 36 42  1  0  0  0  0
 37 38  2  0  0  0  0
 37 40  1  0  0  0  0
 38 39  1  0  0  0  0
 40 41  2  0  0  0  0
 41 42  1  0  0  0  0
M  CHG  2   3  -1   4  -1
M  END
>  <CHROM.1>
62.73860681,-98.57610403,5.37298171,-33.62347777,-15.98246540,-2.65653066
-0.70599801,-0.32819669

>  <Name>
ligand

>  <RI>
0

>  <Rbt.Current_Directory>
/home/itssahil/PROJECTS/Mol_Feturizer/New_Systems/rnas/4QLN

>  <Rbt.Executable>
rbdock ($Id: //depot/dev/client3/rdock/2013.1/src/exe/rbdock.cxx#4 $)

>  <Rbt.Library>
libRbt.so (2013.1, Build901 2013/11/27)

>  <Rbt.Parameter_File>
/export/apps/rDock/src/rDock_2013.1_src/data/scripts/dock_solv.prm

>  <Rbt.Receptor>
prm/pocket_docking_2.prm

>  <SCORE>
-35.7609

>  <SCORE.INTER>
-36.1181

>  <SCORE.INTER.CONST>
1

>  <SCORE.INTER.POLAR>
0

>  <SCORE.INTER.ROT>
2

>  <SCORE.INTER.SOLV>
33.1604

>  <SCORE.INTER.VDW>
-40.0655

>  <SCORE.INTER.norm>
-0.859956

>  <SCORE.INTRA>
0.357198

>  <SCORE.INTRA.DIHEDRAL>
-0.000490936

>  <SCORE.INTRA.DIHEDRAL.0>
2.39985

>  <SCORE.INTRA.POLAR>
0

>  <SCORE.INTRA.POLAR.0>
0

>  <SCORE.INTRA.REPUL>
0

>  <SCORE.INTRA.REPUL.0>
0

>  <SCORE.INTRA.SOLV>
-0.00931648

>  <SCORE.INTRA.SOLV.lig_0>
-110.958

>  <SCORE.INTRA.VDW>
0.362101

>  <SCORE.INTRA.VDW.0>
-2.34644

>  <SCORE.INTRA.norm>
0.00850471

>  <SCORE.RESTR>
0

>  <SCORE.RESTR.CAVITY>
0

>  <SCORE.RESTR.norm>
0

>  <SCORE.SYSTEM>
0

>  <SCORE.SYSTEM.CONST>
0

>  <SCORE.SYSTEM.DIHEDRAL>
0

>  <SCORE.SYSTEM.SOLV>
0

>  <SCORE.SYSTEM.norm>
0

>  <SCORE.heavy>
42

>  <SCORE.norm>
-0.851451

>  <RMSD>
0.807

$$$$
ligand
 OpenBabel11021811513D
libRbt.so/2013.1/901 2013/11/27
 42 48  0  0  0  0  0  0  0  0999 V2000
    3.8041  -34.4045  -13.3844 P   0  0  2  0  0  0  0  0  0  0  0  0
    7.5603  -35.4344  -16.6008 P   0  0  1  0  0  0  0  0  0  0  0  0
    3.2945  -35.5069  -12.4856 O   0  5  0  0  0  0  0  0  0  0  0  0
    7.0636  -34.1113  -17.1327 O   0  5  0  0  0  0  0  0  0  0  0  0
    2.9919  -33.1445  -13.5652 O   0  0  0  0  0  0  0  0  0  0  0  0
    8.8731  -35.9983  -17.0888 O   0  0  0  0  0  0  0  0  0  0  0  0
    3.2813  -36.0946  -15.3408 C   0  0  0  0  0  0  0  0  0  0  0  0
    8.4396  -34.3704  -14.3540 C   0  0  0  0  0  0  0  0  0  0  0  0
    4.0906  -35.0326  -14.8385 O   0  0  0  0  0  0  0  0  0  0  0  0
    7.6167  -35.3428  -14.9943 O   0  0  0  0  0  0  0  0  0  0  0  0
    4.1145  -36.9742  -16.2654 C   0  0  1  0  0  0  0  0  0  0  0  0
    7.6246  -33.6217  -13.3071 C   0  0  1  0  0  0  0  0  0  0  0  0
    3.2537  -37.6851  -17.1593 O   0  0  0  0  0  0  0  0  0  0  0  0
    8.2203  -32.3472  -13.0528 O   0  0  0  0  0  0  0  0  0  0  0  0
    5.0704  -36.1421  -17.1034 C   0  0  1  0  0  0  0  0  0  0  0  0
    6.2008  -33.3821  -13.7836 C   0  0  1  0  0  0  0  0  0  0  0  0
    6.4147  -36.5388  -16.8499 O   0  0  0  0  0  0  0  0  0  0  0  0
    5.2766  -33.9882  -12.8850 O   0  0  0  0  0  0  0  0  0  0  0  0
    4.7141  -36.4095  -18.5539 C   0  0  0  0  0  0  0  0  0  0  0  0
    6.0005  -31.8790  -13.8001 C   0  0  0  0  0  0  0  0  0  0  0  0
    3.5535  -37.3930  -18.5268 C   0  0  2  0  0  0  0  0  0  0  0  0
    7.3161  -31.2749  -13.3299 C   0  0  2  0  0  0  0  0  0  0  0  0
    0.2073  -33.3466  -18.6143 N   0  0  0  0  0  0  0  0  0  0  0  0
    1.2591  -33.5855  -17.8094 C   0  0  0  0  0  0  0  0  0  0  0  0
    2.0382  -34.6789  -17.9022 N   0  0  0  0  0  0  0  0  0  0  0  0
    1.7981  -35.6261  -18.8402 C   0  0  0  0  0  0  0  0  0  0  0  0
    0.6648  -35.4368  -19.7593 C   0  0  0  0  0  0  0  0  0  0  0  0
   -0.1471  -34.2078  -19.5942 C   0  0  0  0  0  0  0  0  0  0  0  0
   -1.2077  -33.9557  -20.3987 N   0  0  0  0  0  0  0  0  0  0  0  0
    0.6510  -36.5061  -20.5771 N   0  0  0  0  0  0  0  0  0  0  0  0
    1.6834  -37.3098  -20.2148 C   0  0  0  0  0  0  0  0  0  0  0  0
    2.3674  -36.7853  -19.1797 N   0  0  0  0  0  0  0  0  0  0  0  0
    9.9281  -26.8604  -14.4530 N   0  0  0  0  0  0  0  0  0  0  0  0
    9.5621  -27.3732  -13.2637 C   0  0  0  0  0  0  0  0  0  0  0  0
    8.8876  -28.5286  -13.1236 N   0  0  0  0  0  0  0  0  0  0  0  0
    8.5302  -29.2596  -14.2071 C   0  0  0  0  0  0  0  0  0  0  0  0
    8.8948  -28.7647  -15.5436 C   0  0  0  0  0  0  0  0  0  0  0  0
    9.6377  -27.4844  -15.6149 C   0  0  0  0  0  0  0  0  0  0  0  0
   10.0125  -26.9579  -16.8067 N   0  0  0  0  0  0  0  0  0  0  0  0
    8.4279  -29.6668  -16.4274 N   0  0  0  0  0  0  0  0  0  0  0  0
    7.8179  -30.6519  -15.7192 C   0  0  0  0  0  0  0  0  0  0  0  0
    7.8786  -30.4094  -14.3969 N   0  0  0  0  0  0  0  0  0  0  0  0
  1  3  1  1  0  0  0
  1  5  2  0  0  0  0
  1  9  1  0  0  0  0
  1 18  1  0  0  0  0
  2  4  1  6  0  0  0
  2  6  2  0  0  0  0
  2 10  1  0  0  0  0
  2 17  1  0  0  0  0
  7  9  1  0  0  0  0
  8 10  1  0  0  0  0
 11  7  1  1  0  0  0
 11 13  1  0  0  0  0
 11 15  1  0  0  0  0
 12  8  1  6  0  0  0
 12 14  1  0  0  0  0
 12 16  1  0  0  0  0
 13 21  1  0  0  0  0
 14 22  1  0  0  0  0
 15 17  1  6  0  0  0
 15 19  1  0  0  0  0
 16 18  1  1  0  0  0
 16 20  1  0  0  0  0
 19 21  1  0  0  0  0
 20 22  1  0  0  0  0
 21 32  1  1  0  0  0
 22 42  1  6  0  0  0
 23 24  2  0  0  0  0
 23 28  1  0  0  0  0
 24 25  1  0  0  0  0
 25 26  2  0  0  0  0
 26 27  1  0  0  0  0
 26 32  1  0  0  0  0
 27 28  2  0  0  0  0
 27 30  1  0  0  0  0
 28 29  1  0  0  0  0
 30 31  2  0  0  0  0
 31 32  1  0  0  0  0
 33 34  2  0  0  0  0
 33 38  1  0  0  0  0
 34 35  1  0  0  0  0
 35 36  2  0  0  0  0
 36 37  1  0  0  0  0
 36 42  1  0  0  0  0
 37 38  2  0  0  0  0
 37 40  1  0  0  0  0
 38 39  1  0  0  0  0
 40 41  2  0  0  0  0
 41 42  1  0  0  0  0
M  CHG  2   3  -1   4  -1
M  END
>  <CHROM.1>
62.57516710,-98.47580504,5.36594246,-33.60543243,-15.99417946,-2.65168099
-0.69946940,-0.31714891

>  <Name>
ligand

>  <RI>
0

>  <Rbt.Current_Directory>
/home/itssahil/PROJECTS/Mol_Feturizer/New_Systems/rnas/4QLN

>  <Rbt.Executable>
rbdock ($Id: //depot/dev/client3/rdock/2013.1/src/exe/rbdock.cxx#4 $)

>  <Rbt.Library>
libRbt.so (2013.1, Build901 2013/11/27)

>  <Rbt.Parameter_File>
/export/apps/rDock/src/rDock_2013.1_src/data/scripts/dock_solv.prm

>  <Rbt.Receptor>
prm/pocket_docking_2.prm

>  <SCORE>
-35.8019

>  <SCORE.INTER>
-36.159

>  <SCORE.INTER.CONST>
1

>  <SCORE.INTER.POLAR>
0

>  <SCORE.INTER.ROT>
2

>  <SCORE.INTER.SOLV>
33.1955

>  <SCORE.INTER.VDW>
-40.1045

>  <SCORE.INTER.norm>
-0.860928

>  <SCORE.INTRA>
0.3571

>  <SCORE.INTRA.DIHEDRAL>
-0.000494862

>  <SCORE.INTRA.DIHEDRAL.0>
2.39985

>  <SCORE.INTRA.POLAR>
0

>  <SCORE.INTRA.POLAR.0>
0

>  <SCORE.INTRA.REPUL>
0

>  <SCORE.INTRA.REPUL.0>
0

>  <SCORE.INTRA.SOLV>
-0.00923731

>  <SCORE.INTRA.SOLV.lig_0>
-110.958

>  <SCORE.INTRA.VDW>
0.361966

>  <SCORE.INTRA.VDW.0>
-2.34644

>  <SCORE.INTRA.norm>
0.00850238

>  <SCORE.RESTR>
0

>  <SCORE.RESTR.CAVITY>
0

>  <SCORE.RESTR.norm>
0

>  <SCORE.SYSTEM>
0

>  <SCORE.SYSTEM.CONST>
0

>  <SCORE.SYSTEM.DIHEDRAL>
0

>  <SCORE.SYSTEM.SOLV>
0

>  <SCORE.SYSTEM.norm>
0

>  <SCORE.heavy>
42

>  <SCORE.norm>
-0.852426

>  <RMSD>
0.820

$$$$
ligand
 OpenBabel11021811513D
libRbt.so/2013.1/901 2013/11/27
 42 48  0  0  0  0  0  0  0  0999 V2000
    3.8675  -34.3869  -13.4117 P   0  0  2  0  0  0  0  0  0  0  0  0
    7.5986  -35.4079  -16.6599 P   0  0  1  0  0  0  0  0  0  0  0  0
    3.3715  -35.4892  -12.5052 O   0  5  0  0  0  0  0  0  0  0  0  0
    7.0907  -34.0885  -17.1908 O   0  5  0  0  0  0  0  0  0  0  0  0
    3.0477  -33.1313  -13.5884 O   0  0  0  0  0  0  0  0  0  0  0  0
    8.9095  -35.9668  -17.1585 O   0  0  0  0  0  0  0  0  0  0  0  0
    3.3347  -36.0849  -15.3585 C   0  0  0  0  0  0  0  0  0  0  0  0
    8.4937  -34.3335  -14.4243 C   0  0  0  0  0  0  0  0  0  0  0  0
    4.1435  -35.0176  -14.8667 O   0  0  0  0  0  0  0  0  0  0  0  0
    7.6695  -35.3116  -15.0542 O   0  0  0  0  0  0  0  0  0  0  0  0
    4.1635  -36.9630  -16.2885 C   0  0  1  0  0  0  0  0  0  0  0  0
    7.6848  -33.5857  -13.3719 C   0  0  1  0  0  0  0  0  0  0  0  0
    3.2978  -37.6805  -17.1724 O   0  0  0  0  0  0  0  0  0  0  0  0
    8.2768  -32.3077  -13.1266 O   0  0  0  0  0  0  0  0  0  0  0  0
    5.1076  -36.1287  -17.1375 C   0  0  1  0  0  0  0  0  0  0  0  0
    6.2555  -33.3543  -13.8359 C   0  0  1  0  0  0  0  0  0  0  0  0
    6.4561  -36.5184  -16.8954 O   0  0  0  0  0  0  0  0  0  0  0  0
    5.3425  -33.9623  -12.9271 O   0  0  0  0  0  0  0  0  0  0  0  0
    4.7392  -36.4018  -18.5840 C   0  0  0  0  0  0  0  0  0  0  0  0
    6.0479  -31.8522  -13.8546 C   0  0  0  0  0  0  0  0  0  0  0  0
    3.5836  -37.3907  -18.5435 C   0  0  2  0  0  0  0  0  0  0  0  0
    7.3649  -31.2406  -13.3983 C   0  0  2  0  0  0  0  0  0  0  0  0
    0.2219  -33.3569  -18.6158 N   0  0  0  0  0  0  0  0  0  0  0  0
    1.2828  -33.5881  -17.8207 C   0  0  0  0  0  0  0  0  0  0  0  0
    2.0649  -34.6791  -17.9162 N   0  0  0  0  0  0  0  0  0  0  0  0
    1.8186  -35.6317  -18.8472 C   0  0  0  0  0  0  0  0  0  0  0  0
    0.6752  -35.4509  -19.7554 C   0  0  0  0  0  0  0  0  0  0  0  0
   -0.1394  -34.2240  -19.5878 C   0  0  0  0  0  0  0  0  0  0  0  0
   -1.2092  -33.9797  -20.3825 N   0  0  0  0  0  0  0  0  0  0  0  0
    0.6569  -36.5241  -20.5679 N   0  0  0  0  0  0  0  0  0  0  0  0
    1.6960  -37.3224  -20.2124 C   0  0  0  0  0  0  0  0  0  0  0  0
    2.3887  -36.7905  -19.1869 N   0  0  0  0  0  0  0  0  0  0  0  0
    9.9326  -26.8096  -14.5581 N   0  0  0  0  0  0  0  0  0  0  0  0
    9.5785  -27.3199  -13.3641 C   0  0  0  0  0  0  0  0  0  0  0  0
    8.9145  -28.4802  -13.2145 N   0  0  0  0  0  0  0  0  0  0  0  0
    8.5565  -29.2192  -14.2923 C   0  0  0  0  0  0  0  0  0  0  0  0
    8.9085  -28.7276  -15.6333 C   0  0  0  0  0  0  0  0  0  0  0  0
    9.6401  -27.4414  -15.7153 C   0  0  0  0  0  0  0  0  0  0  0  0
   10.0030  -26.9173  -16.9119 N   0  0  0  0  0  0  0  0  0  0  0  0
    8.4436  -29.6376  -16.5100 N   0  0  0  0  0  0  0  0  0  0  0  0
    7.8463  -30.6245  -15.7935 C   0  0  0  0  0  0  0  0  0  0  0  0
    7.9133  -30.3753  -14.4728 N   0  0  0  0  0  0  0  0  0  0  0  0
  1  3  1  1  0  0  0
  1  5  2  0  0  0  0
  1  9  1  0  0  0  0
  1 18  1  0  0  0  0
  2  4  1  6  0  0  0
  2  6  2  0  0  0  0
  2 10  1  0  0  0  0
  2 17  1  0  0  0  0
  7  9  1  0  0  0  0
  8 10  1  0  0  0  0
 11  7  1  1  0  0  0
 11 13  1  0  0  0  0
 11 15  1  0  0  0  0
 12  8  1  6  0  0  0
 12 14  1  0  0  0  0
 12 16  1  0  0  0  0
 13 21  1  0  0  0  0
 14 22  1  0  0  0  0
 15 17  1  6  0  0  0
 15 19  1  0  0  0  0
 16 18  1  1  0  0  0
 16 20  1  0  0  0  0
 19 21  1  0  0  0  0
 20 22  1  0  0  0  0
 21 32  1  1  0  0  0
 22 42  1  6  0  0  0
 23 24  2  0  0  0  0
 23 28  1  0  0  0  0
 24 25  1  0  0  0  0
 25 26  2  0  0  0  0
 26 27  1  0  0  0  0
 26 32  1  0  0  0  0
 27 28  2  0  0  0  0
 27 30  1  0  0  0  0
 28 29  1  0  0  0  0
 30 31  2  0  0  0  0
 31 32  1  0  0  0  0
 33 34  2  0  0  0  0
 33 38  1  0  0  0  0
 34 35  1  0  0  0  0
 35 36  2  0  0  0  0
 36 37  1  0  0  0  0
 36 42  1  0  0  0  0
 37 38  2  0  0  0  0
 37 40  1  0  0  0  0
 38 39  1  0  0  0  0
 40 41  2  0  0  0  0
 41 42  1  0  0  0  0
M  CHG  2   3  -1   4  -1
M  END
>  <CHROM.1>
62.72305998,-98.76297838,5.40061842,-33.58673667,-16.03843616,-2.64097080
-0.69235002,-0.31266898

>  <Name>
ligand

>  <RI>
0

>  <Rbt.Current_Directory>
/home/itssahil/PROJECTS/Mol_Feturizer/New_Systems/rnas/4QLN

>  <Rbt.Executable>
rbdock ($Id: //depot/dev/client3/rdock/2013.1/src/exe/rbdock.cxx#4 $)

>  <Rbt.Library>
libRbt.so (2013.1, Build901 2013/11/27)

>  <Rbt.Parameter_File>
/export/apps/rDock/src/rDock_2013.1_src/data/scripts/dock_solv.prm

>  <Rbt.Receptor>
prm/pocket_docking_4.prm

>  <SCORE>
-35.8001

>  <SCORE.INTER>
-36.1527

>  <SCORE.INTER.CONST>
1

>  <SCORE.INTER.POLAR>
0

>  <SCORE.INTER.ROT>
2

>  <SCORE.INTER.SOLV>
33.4554

>  <SCORE.INTER.VDW>
-40.1869

>  <SCORE.INTER.norm>
-0.860779

>  <SCORE.INTRA>
0.352615

>  <SCORE.INTRA.DIHEDRAL>
-0.000487914

>  <SCORE.INTRA.DIHEDRAL.0>
2.39985

>  <SCORE.INTRA.POLAR>
0

>  <SCORE.INTRA.POLAR.0>
0

>  <SCORE.INTRA.REPUL>
0

>  <SCORE.INTRA.REPUL.0>
0

>  <SCORE.INTRA.SOLV>
-0.00916709

>  <SCORE.INTRA.SOLV.lig_0>
-110.958

>  <SCORE.INTRA.VDW>
0.357443

>  <SCORE.INTRA.VDW.0>
-2.34644

>  <SCORE.INTRA.norm>
0.0083956

>  <SCORE.RESTR>
0

>  <SCORE.RESTR.CAVITY>
0

>  <SCORE.RESTR.norm>
0

>  <SCORE.SYSTEM>
0

>  <SCORE.SYSTEM.CONST>
0

>  <SCORE.SYSTEM.DIHEDRAL>
0

>  <SCORE.SYSTEM.SOLV>
0

>  <SCORE.SYSTEM.norm>
0

>  <SCORE.heavy>
42

>  <SCORE.norm>
-0.852383

>  <RMSD>
0.820

$$$$
ligand
 OpenBabel11021811513D
libRbt.so/2013.1/901 2013/11/27
 42 48  0  0  0  0  0  0  0  0999 V2000
    3.7635  -34.3951  -13.3861 P   0  0  2  0  0  0  0  0  0  0  0  0
    7.5384  -35.4954  -16.5569 P   0  0  1  0  0  0  0  0  0  0  0  0
    3.2390  -35.4814  -12.4763 O   0  5  0  0  0  0  0  0  0  0  0  0
    7.0553  -34.1764  -17.1112 O   0  5  0  0  0  0  0  0  0  0  0  0
    2.9616  -33.1322  -13.5910 O   0  0  0  0  0  0  0  0  0  0  0  0
    8.8512  -36.0750  -17.0262 O   0  0  0  0  0  0  0  0  0  0  0  0
    3.2449  -36.1087  -15.3230 C   0  0  0  0  0  0  0  0  0  0  0  0
    8.4069  -34.4063  -14.3180 C   0  0  0  0  0  0  0  0  0  0  0  0
    4.0574  -35.0453  -14.8290 O   0  0  0  0  0  0  0  0  0  0  0  0
    7.5825  -35.3818  -14.9514 O   0  0  0  0  0  0  0  0  0  0  0  0
    4.0794  -37.0067  -16.2285 C   0  0  1  0  0  0  0  0  0  0  0  0
    7.5886  -33.6374  -13.2883 C   0  0  1  0  0  0  0  0  0  0  0  0
    3.2210  -37.7241  -17.1195 O   0  0  0  0  0  0  0  0  0  0  0  0
    8.1911  -32.3636  -13.0468 O   0  0  0  0  0  0  0  0  0  0  0  0
    5.0479  -36.1929  -17.0701 C   0  0  1  0  0  0  0  0  0  0  0  0
    6.1705  -33.3948  -13.7798 C   0  0  1  0  0  0  0  0  0  0  0  0
    6.3873  -36.5953  -16.8001 O   0  0  0  0  0  0  0  0  0  0  0  0
    5.2348  -33.9820  -12.8804 O   0  0  0  0  0  0  0  0  0  0  0  0
    4.7015  -36.4781  -18.5197 C   0  0  0  0  0  0  0  0  0  0  0  0
    5.9808  -31.8908  -13.8187 C   0  0  0  0  0  0  0  0  0  0  0  0
    3.5339  -37.4531  -18.4884 C   0  0  2  0  0  0  0  0  0  0  0  0
    7.2967  -31.2892  -13.3462 C   0  0  2  0  0  0  0  0  0  0  0  0
    0.1599  -33.4304  -18.6005 N   0  0  0  0  0  0  0  0  0  0  0  0
    1.1962  -33.6710  -17.7763 C   0  0  0  0  0  0  0  0  0  0  0  0
    1.9853  -34.7576  -17.8650 N   0  0  0  0  0  0  0  0  0  0  0  0
    1.7723  -35.6955  -18.8188 C   0  0  0  0  0  0  0  0  0  0  0  0
    0.6574  -35.5037  -19.7595 C   0  0  0  0  0  0  0  0  0  0  0  0
   -0.1671  -34.2827  -19.5976 C   0  0  0  0  0  0  0  0  0  0  0  0
   -1.2123  -34.0289  -20.4216 N   0  0  0  0  0  0  0  0  0  0  0  0
    0.6690  -36.5634  -20.5898 N   0  0  0  0  0  0  0  0  0  0  0  0
    1.6995  -37.3638  -20.2148 C   0  0  0  0  0  0  0  0  0  0  0  0
    2.3574  -36.8465  -19.1594 N   0  0  0  0  0  0  0  0  0  0  0  0
    9.9030  -26.8825  -14.5127 N   0  0  0  0  0  0  0  0  0  0  0  0
    9.5180  -27.3729  -13.3199 C   0  0  0  0  0  0  0  0  0  0  0  0
    8.8478  -28.5293  -13.1682 N   0  0  0  0  0  0  0  0  0  0  0  0
    8.5150  -29.2849  -14.2426 C   0  0  0  0  0  0  0  0  0  0  0  0
    8.9015  -28.8156  -15.5822 C   0  0  0  0  0  0  0  0  0  0  0  0
    9.6380  -27.5323  -15.6665 C   0  0  0  0  0  0  0  0  0  0  0  0
   10.0318  -27.0284  -16.8619 N   0  0  0  0  0  0  0  0  0  0  0  0
    8.4564  -29.7388  -16.4554 N   0  0  0  0  0  0  0  0  0  0  0  0
    7.8391  -30.7127  -15.7383 C   0  0  0  0  0  0  0  0  0  0  0  0
    7.8738  -30.4424  -14.4204 N   0  0  0  0  0  0  0  0  0  0  0  0
  1  3  1  1  0  0  0
  1  5  2  0  0  0  0
  1  9  1  0  0  0  0
  1 18  1  0  0  0  0
  2  4  1  6  0  0  0
  2  6  2  0  0  0  0
  2 10  1  0  0  0  0
  2 17  1  0  0  0  0
  7  9  1  0  0  0  0
  8 10  1  0  0  0  0
 11  7  1  1  0  0  0
 11 13  1  0  0  0  0
 11 15  1  0  0  0  0
 12  8  1  6  0  0  0
 12 14  1  0  0  0  0
 12 16  1  0  0  0  0
 13 21  1  0  0  0  0
 14 22  1  0  0  0  0
 15 17  1  6  0  0  0
 15 19  1  0  0  0  0
 16 18  1  1  0  0  0
 16 20  1  0  0  0  0
 19 21  1  0  0  0  0
 20 22  1  0  0  0  0
 21 32  1  1  0  0  0
 22 42  1  6  0  0  0
 23 24  2  0  0  0  0
 23 28  1  0  0  0  0
 24 25  1  0  0  0  0
 25 26  2  0  0  0  0
 26 27  1  0  0  0  0
 26 32  1  0  0  0  0
 27 28  2  0  0  0  0
 27 30  1  0  0  0  0
 28 29  1  0  0  0  0
 30 31  2  0  0  0  0
 31 32  1  0  0  0  0
 33 34  2  0  0  0  0
 33 38  1  0  0  0  0
 34 35  1  0  0  0  0
 35 36  2  0  0  0  0
 36 37  1  0  0  0  0
 36 42  1  0  0  0  0
 37 38  2  0  0  0  0
 37 40  1  0  0  0  0
 38 39  1  0  0  0  0
 40 41  2  0  0  0  0
 41 42  1  0  0  0  0
M  CHG  2   3  -1   4  -1
M  END
>  <CHROM.1>
60.73943403,-99.50766416,5.34361795,-33.64469689,-15.98923909,-2.65099958
-0.69776163,-0.32225595

>  <Name>
ligand

>  <RI>
0

>  <Rbt.Current_Directory>
/home/itssahil/PROJECTS/Mol_Feturizer/New_Systems/rnas/4QLN

>  <Rbt.Executable>
rbdock ($Id: //depot/dev/client3/rdock/2013.1/src/exe/rbdock.cxx#4 $)

>  <Rbt.Library>
libRbt.so (2013.1, Build901 2013/11/27)

>  <Rbt.Parameter_File>
/export/apps/rDock/src/rDock_2013.1_src/data/scripts/dock_solv.prm

>  <Rbt.Receptor>
prm/pocket_docking_6.prm

>  <SCORE>
-35.7547

>  <SCORE.INTER>
-36.065

>  <SCORE.INTER.CONST>
1

>  <SCORE.INTER.POLAR>
0

>  <SCORE.INTER.ROT>
2

>  <SCORE.INTER.SOLV>
33.2133

>  <SCORE.INTER.VDW>
-40.0478

>  <SCORE.INTER.norm>
-0.85869

>  <SCORE.INTRA>
0.31026

>  <SCORE.INTRA.DIHEDRAL>
-0.000501442

>  <SCORE.INTRA.DIHEDRAL.0>
2.39985

>  <SCORE.INTRA.POLAR>
0

>  <SCORE.INTRA.POLAR.0>
0

>  <SCORE.INTRA.REPUL>
0

>  <SCORE.INTRA.REPUL.0>
0

>  <SCORE.INTRA.SOLV>
-0.00680816

>  <SCORE.INTRA.SOLV.lig_0>
-110.958

>  <SCORE.INTRA.VDW>
0.313915

>  <SCORE.INTRA.VDW.0>
-2.34644

>  <SCORE.INTRA.norm>
0.00738715

>  <SCORE.RESTR>
0

>  <SCORE.RESTR.CAVITY>
0

>  <SCORE.RESTR.norm>
0

>  <SCORE.SYSTEM>
0

>  <SCORE.SYSTEM.CONST>
0

>  <SCORE.SYSTEM.DIHEDRAL>
0

>  <SCORE.SYSTEM.SOLV>
0

>  <SCORE.SYSTEM.norm>
0

>  <SCORE.heavy>
42

>  <SCORE.norm>
-0.851303

>  <RMSD>
0.824

$$$$
ligand
 OpenBabel11021811513D
libRbt.so/2013.1/901 2013/11/27
 42 48  0  0  0  0  0  0  0  0999 V2000
    3.8626  -34.3635  -13.4195 P   0  0  2  0  0  0  0  0  0  0  0  0
    7.5988  -35.4043  -16.6554 P   0  0  1  0  0  0  0  0  0  0  0  0
    3.3650  -35.4603  -12.5071 O   0  5  0  0  0  0  0  0  0  0  0  0
    7.0919  -34.0881  -17.1950 O   0  5  0  0  0  0  0  0  0  0  0  0
    3.0431  -33.1089  -13.6050 O   0  0  0  0  0  0  0  0  0  0  0  0
    8.9105  -35.9663  -17.1485 O   0  0  0  0  0  0  0  0  0  0  0  0
    3.3328  -36.0731  -15.3569 C   0  0  0  0  0  0  0  0  0  0  0  0
    8.4903  -34.3166  -14.4249 C   0  0  0  0  0  0  0  0  0  0  0  0
    4.1409  -35.0030  -14.8702 O   0  0  0  0  0  0  0  0  0  0  0  0
    7.6671  -35.2983  -15.0502 O   0  0  0  0  0  0  0  0  0  0  0  0
    4.1629  -36.9569  -16.2802 C   0  0  1  0  0  0  0  0  0  0  0  0
    7.6798  -33.5624  -13.3783 C   0  0  1  0  0  0  0  0  0  0  0  0
    3.2987  -37.6796  -17.1612 O   0  0  0  0  0  0  0  0  0  0  0  0
    8.2715  -32.2830  -13.1398 O   0  0  0  0  0  0  0  0  0  0  0  0
    5.1085  -36.1278  -17.1327 C   0  0  1  0  0  0  0  0  0  0  0  0
    6.2513  -33.3336  -13.8460 C   0  0  1  0  0  0  0  0  0  0  0  0
    6.4566  -36.5161  -16.8861 O   0  0  0  0  0  0  0  0  0  0  0  0
    5.3368  -33.9361  -12.9350 O   0  0  0  0  0  0  0  0  0  0  0  0
    4.7424  -36.4096  -18.5781 C   0  0  0  0  0  0  0  0  0  0  0  0
    6.0439  -31.8317  -13.8740 C   0  0  0  0  0  0  0  0  0  0  0  0
    3.5867  -37.3981  -18.5335 C   0  0  2  0  0  0  0  0  0  0  0  0
    7.3602  -31.2174  -13.4193 C   0  0  2  0  0  0  0  0  0  0  0  0
    0.2217  -33.3675  -18.6313 N   0  0  0  0  0  0  0  0  0  0  0  0
    1.2808  -33.5944  -17.8326 C   0  0  0  0  0  0  0  0  0  0  0  0
    2.0641  -34.6852  -17.9215 N   0  0  0  0  0  0  0  0  0  0  0  0
    1.8209  -35.6420  -18.8491 C   0  0  0  0  0  0  0  0  0  0  0  0
    0.6797  -35.4660  -19.7609 C   0  0  0  0  0  0  0  0  0  0  0  0
   -0.1365  -34.2392  -19.6006 C   0  0  0  0  0  0  0  0  0  0  0  0
   -1.2045  -33.9991  -20.3990 N   0  0  0  0  0  0  0  0  0  0  0  0
    0.6643  -36.5427  -20.5689 N   0  0  0  0  0  0  0  0  0  0  0  0
    1.7031  -37.3385  -20.2074 C   0  0  0  0  0  0  0  0  0  0  0  0
    2.3928  -36.8017  -19.1825 N   0  0  0  0  0  0  0  0  0  0  0  0
    9.9518  -26.8060  -14.6004 N   0  0  0  0  0  0  0  0  0  0  0  0
    9.5985  -27.3107  -13.4038 C   0  0  0  0  0  0  0  0  0  0  0  0
    8.9278  -28.4664  -13.2486 N   0  0  0  0  0  0  0  0  0  0  0  0
    8.5615  -29.2062  -14.3231 C   0  0  0  0  0  0  0  0  0  0  0  0
    8.9120  -28.7205  -15.6667 C   0  0  0  0  0  0  0  0  0  0  0  0
    9.6515  -27.4392  -15.7547 C   0  0  0  0  0  0  0  0  0  0  0  0
   10.0136  -26.9209  -16.9540 N   0  0  0  0  0  0  0  0  0  0  0  0
    8.4385  -29.6301  -16.5392 N   0  0  0  0  0  0  0  0  0  0  0  0
    7.8374  -30.6111  -15.8179 C   0  0  0  0  0  0  0  0  0  0  0  0
    7.9105  -30.3586  -14.4981 N   0  0  0  0  0  0  0  0  0  0  0  0
  1  3  1  1  0  0  0
  1  5  2  0  0  0  0
  1  9  1  0  0  0  0
  1 18  1  0  0  0  0
  2  4  1  6  0  0  0
  2  6  2  0  0  0  0
  2 10  1  0  0  0  0
  2 17  1  0  0  0  0
  7  9  1  0  0  0  0
  8 10  1  0  0  0  0
 11  7  1  1  0  0  0
 11 13  1  0  0  0  0
 11 15  1  0  0  0  0
 12  8  1  6  0  0  0
 12 14  1  0  0  0  0
 12 16  1  0  0  0  0
 13 21  1  0  0  0  0
 14 22  1  0  0  0  0
 15 17  1  6  0  0  0
 15 19  1  0  0  0  0
 16 18  1  1  0  0  0
 16 20  1  0  0  0  0
 19 21  1  0  0  0  0
 20 22  1  0  0  0  0
 21 32  1  1  0  0  0
 22 42  1  6  0  0  0
 23 24  2  0  0  0  0
 23 28  1  0  0  0  0
 24 25  1  0  0  0  0
 25 26  2  0  0  0  0
 26 27  1  0  0  0  0
 26 32  1  0  0  0  0
 27 28  2  0  0  0  0
 27 30  1  0  0  0  0
 28 29  1  0  0  0  0
 30 31  2  0  0  0  0
 31 32  1  0  0  0  0
 33 34  2  0  0  0  0
 33 38  1  0  0  0  0
 34 35  1  0  0  0  0
 35 36  2  0  0  0  0
 36 37  1  0  0  0  0
 36 42  1  0  0  0  0
 37 38  2  0  0  0  0
 37 40  1  0  0  0  0
 38 39  1  0  0  0  0
 40 41  2  0  0  0  0
 41 42  1  0  0  0  0
M  CHG  2   3  -1   4  -1
M  END
>  <CHROM.1>
62.59837219,-98.27256818,5.40145542,-33.58053010,-16.04800885,-2.64403700
-0.69394487,-0.32163030

>  <Name>
ligand

>  <RI>
0

>  <Rbt.Current_Directory>
/home/itssahil/PROJECTS/Mol_Feturizer/New_Systems/rnas/4QLN

>  <Rbt.Executable>
rbdock ($Id: //depot/dev/client3/rdock/2013.1/src/exe/rbdock.cxx#4 $)

>  <Rbt.Library>
libRbt.so (2013.1, Build901 2013/11/27)

>  <Rbt.Parameter_File>
/export/apps/rDock/src/rDock_2013.1_src/data/scripts/dock_solv.prm

>  <Rbt.Receptor>
prm/pocket_docking_4.prm

>  <SCORE>
-35.834

>  <SCORE.INTER>
-36.1962

>  <SCORE.INTER.CONST>
1

>  <SCORE.INTER.POLAR>
0

>  <SCORE.INTER.ROT>
2

>  <SCORE.INTER.SOLV>
33.6056

>  <SCORE.INTER.VDW>
-40.266

>  <SCORE.INTER.norm>
-0.861815

>  <SCORE.INTRA>
0.362186

>  <SCORE.INTRA.DIHEDRAL>
-0.000497951

>  <SCORE.INTRA.DIHEDRAL.0>
2.39985

>  <SCORE.INTRA.POLAR>
0

>  <SCORE.INTRA.POLAR.0>
0

>  <SCORE.INTRA.REPUL>
0

>  <SCORE.INTRA.REPUL.0>
0

>  <SCORE.INTRA.SOLV>
-0.00941206

>  <SCORE.INTRA.SOLV.lig_0>
-110.958

>  <SCORE.INTRA.VDW>
0.367141

>  <SCORE.INTRA.VDW.0>
-2.34644

>  <SCORE.INTRA.norm>
0.00862347

>  <SCORE.RESTR>
0

>  <SCORE.RESTR.CAVITY>
0

>  <SCORE.RESTR.norm>
0

>  <SCORE.SYSTEM>
0

>  <SCORE.SYSTEM.CONST>
0

>  <SCORE.SYSTEM.DIHEDRAL>
0

>  <SCORE.SYSTEM.SOLV>
0

>  <SCORE.SYSTEM.norm>
0

>  <SCORE.heavy>
42

>  <SCORE.norm>
-0.853191

>  <RMSD>
0.828

$$$$
ligand
 OpenBabel11021811513D
libRbt.so/2013.1/901 2013/11/27
 42 48  0  0  0  0  0  0  0  0999 V2000
    3.8602  -34.3532  -13.4220 P   0  0  2  0  0  0  0  0  0  0  0  0
    7.5962  -35.4016  -16.6557 P   0  0  1  0  0  0  0  0  0  0  0  0
    3.3582  -35.4496  -12.5116 O   0  5  0  0  0  0  0  0  0  0  0  0
    7.0941  -34.0831  -17.1941 O   0  5  0  0  0  0  0  0  0  0  0  0
    3.0449  -33.0957  -13.6066 O   0  0  0  0  0  0  0  0  0  0  0  0
    8.9066  -35.9672  -17.1482 O   0  0  0  0  0  0  0  0  0  0  0  0
    3.3268  -36.0585  -15.3622 C   0  0  0  0  0  0  0  0  0  0  0  0
    8.4890  -34.3196  -14.4228 C   0  0  0  0  0  0  0  0  0  0  0  0
    4.1378  -34.9916  -14.8733 O   0  0  0  0  0  0  0  0  0  0  0  0
    7.6633  -35.2979  -15.0503 O   0  0  0  0  0  0  0  0  0  0  0  0
    4.1551  -36.9437  -16.2858 C   0  0  1  0  0  0  0  0  0  0  0  0
    7.6799  -33.5643  -13.3760 C   0  0  1  0  0  0  0  0  0  0  0  0
    3.2894  -37.6625  -17.1686 O   0  0  0  0  0  0  0  0  0  0  0  0
    8.2755  -32.2871  -13.1353 O   0  0  0  0  0  0  0  0  0  0  0  0
    5.1042  -36.1165  -17.1364 C   0  0  1  0  0  0  0  0  0  0  0  0
    6.2526  -33.3303  -13.8448 C   0  0  1  0  0  0  0  0  0  0  0  0
    6.4507  -36.5094  -16.8889 O   0  0  0  0  0  0  0  0  0  0  0  0
    5.3353  -33.9310  -12.9355 O   0  0  0  0  0  0  0  0  0  0  0  0
    4.7386  -36.3952  -18.5824 C   0  0  0  0  0  0  0  0  0  0  0  0
    6.0500  -31.8277  -13.8711 C   0  0  0  0  0  0  0  0  0  0  0  0
    3.5796  -37.3801  -18.5403 C   0  0  2  0  0  0  0  0  0  0  0  0
    7.3678  -31.2182  -13.4142 C   0  0  2  0  0  0  0  0  0  0  0  0
    0.2259  -33.3401  -18.6343 N   0  0  0  0  0  0  0  0  0  0  0  0
    1.2833  -33.5716  -17.8346 C   0  0  0  0  0  0  0  0  0  0  0  0
    2.0637  -34.6643  -17.9247 N   0  0  0  0  0  0  0  0  0  0  0  0
    1.8192  -35.6185  -18.8546 C   0  0  0  0  0  0  0  0  0  0  0  0
    0.6796  -35.4375  -19.7676 C   0  0  0  0  0  0  0  0  0  0  0  0
   -0.1333  -34.2087  -19.6058 C   0  0  0  0  0  0  0  0  0  0  0  0
   -1.1996  -33.9640  -20.4052 N   0  0  0  0  0  0  0  0  0  0  0  0
    0.6624  -36.5124  -20.5779 N   0  0  0  0  0  0  0  0  0  0  0  0
    1.6986  -37.3118  -20.2166 C   0  0  0  0  0  0  0  0  0  0  0  0
    2.3883  -36.7790  -19.1896 N   0  0  0  0  0  0  0  0  0  0  0  0
    9.9608  -26.8056  -14.5878 N   0  0  0  0  0  0  0  0  0  0  0  0
    9.6029  -27.3097  -13.3923 C   0  0  0  0  0  0  0  0  0  0  0  0
    8.9324  -28.4658  -13.2390 N   0  0  0  0  0  0  0  0  0  0  0  0
    8.5712  -29.2066  -14.3145 C   0  0  0  0  0  0  0  0  0  0  0  0
    8.9269  -28.7217  -15.6570 C   0  0  0  0  0  0  0  0  0  0  0  0
    9.6657  -27.4399  -15.7429 C   0  0  0  0  0  0  0  0  0  0  0  0
   10.0324  -26.9221  -16.9411 N   0  0  0  0  0  0  0  0  0  0  0  0
    8.4577  -29.6323  -16.5308 N   0  0  0  0  0  0  0  0  0  0  0  0
    7.8545  -30.6133  -15.8113 C   0  0  0  0  0  0  0  0  0  0  0  0
    7.9218  -30.3598  -14.4914 N   0  0  0  0  0  0  0  0  0  0  0  0
  1  3  1  1  0  0  0
  1  5  2  0  0  0  0
  1  9  1  0  0  0  0
  1 18  1  0  0  0  0
  2  4  1  6  0  0  0
  2  6  2  0  0  0  0
  2 10  1  0  0  0  0
  2 17  1  0  0  0  0
  7  9  1  0  0  0  0
  8 10  1  0  0  0  0
 11  7  1  1  0  0  0
 11 13  1  0  0  0  0
 11 15  1  0  0  0  0
 12  8  1  6  0  0  0
 12 14  1  0  0  0  0
 12 16  1  0  0  0  0
 13 21  1  0  0  0  0
 14 22  1  0  0  0  0
 15 17  1  6  0  0  0
 15 19  1  0  0  0  0
 16 18  1  1  0  0  0
 16 20  1  0  0  0  0
 19 21  1  0  0  0  0
 20 22  1  0  0  0  0
 21 32  1  1  0  0  0
 22 42  1  6  0  0  0
 23 24  2  0  0  0  0
 23 28  1  0  0  0  0
 24 25  1  0  0  0  0
 25 26  2  0  0  0  0
 26 27  1  0  0  0  0
 26 32  1  0  0  0  0
 27 28  2  0  0  0  0
 27 30  1  0  0  0  0
 28 29  1  0  0  0  0
 30 31  2  0  0  0  0
 31 32  1  0  0  0  0
 33 34  2  0  0  0  0
 33 38  1  0  0  0  0
 34 35  1  0  0  0  0
 35 36  2  0  0  0  0
 36 37  1  0  0  0  0
 36 42  1  0  0  0  0
 37 38  2  0  0  0  0
 37 40  1  0  0  0  0
 38 39  1  0  0  0  0
 40 41  2  0  0  0  0
 41 42  1  0  0  0  0
M  CHG  2   3  -1   4  -1
M  END
>  <CHROM.1>
62.54278449,-98.58660021,5.40283515,-33.57108517,-16.04792260,-2.64639110
-0.69334858,-0.32077969

>  <Name>
ligand

>  <RI>
0

>  <Rbt.Current_Directory>
/home/itssahil/PROJECTS/Mol_Feturizer/New_Systems/rnas/4QLN

>  <Rbt.Executable>
rbdock ($Id: //depot/dev/client3/rdock/2013.1/src/exe/rbdock.cxx#4 $)

>  <Rbt.Library>
libRbt.so (2013.1, Build901 2013/11/27)

>  <Rbt.Parameter_File>
/export/apps/rDock/src/rDock_2013.1_src/data/scripts/dock_solv.prm

>  <Rbt.Receptor>
prm/pocket_docking_2.prm

>  <SCORE>
-35.8404

>  <SCORE.INTER>
-36.1944

>  <SCORE.INTER.CONST>
1

>  <SCORE.INTER.POLAR>
0

>  <SCORE.INTER.ROT>
2

>  <SCORE.INTER.SOLV>
33.6657

>  <SCORE.INTER.VDW>
-40.2849

>  <SCORE.INTER.norm>
-0.861772

>  <SCORE.INTRA>
0.354043

>  <SCORE.INTRA.DIHEDRAL>
-0.000493413

>  <SCORE.INTRA.DIHEDRAL.0>
2.39985

>  <SCORE.INTRA.POLAR>
0

>  <SCORE.INTRA.POLAR.0>
0

>  <SCORE.INTRA.REPUL>
0

>  <SCORE.INTRA.REPUL.0>
0

>  <SCORE.INTRA.SOLV>
-0.00912541

>  <SCORE.INTRA.SOLV.lig_0>
-110.958

>  <SCORE.INTRA.VDW>
0.358852

>  <SCORE.INTRA.VDW.0>
-2.34644

>  <SCORE.INTRA.norm>
0.0084296

>  <SCORE.RESTR>
0

>  <SCORE.RESTR.CAVITY>
0

>  <SCORE.RESTR.norm>
0

>  <SCORE.SYSTEM>
0

>  <SCORE.SYSTEM.CONST>
0

>  <SCORE.SYSTEM.DIHEDRAL>
0

>  <SCORE.SYSTEM.SOLV>
0

>  <SCORE.SYSTEM.norm>
0

>  <SCORE.heavy>
42

>  <SCORE.norm>
-0.853343

>  <RMSD>
0.830

$$$$
ligand
 OpenBabel11021811513D
libRbt.so/2013.1/901 2013/11/27
 42 48  0  0  0  0  0  0  0  0999 V2000
    3.8500  -34.3781  -13.4319 P   0  0  2  0  0  0  0  0  0  0  0  0
    7.5965  -35.4061  -16.6600 P   0  0  1  0  0  0  0  0  0  0  0  0
    3.3445  -35.4805  -12.5307 O   0  5  0  0  0  0  0  0  0  0  0  0
    7.0968  -34.0837  -17.1911 O   0  5  0  0  0  0  0  0  0  0  0  0
    3.0359  -33.1190  -13.6107 O   0  0  0  0  0  0  0  0  0  0  0  0
    8.9083  -35.9689  -17.1520 O   0  0  0  0  0  0  0  0  0  0  0  0
    3.3225  -36.0699  -15.3855 C   0  0  0  0  0  0  0  0  0  0  0  0
    8.4823  -34.3399  -14.4168 C   0  0  0  0  0  0  0  0  0  0  0  0
    4.1323  -35.0067  -14.8866 O   0  0  0  0  0  0  0  0  0  0  0  0
    7.6582  -35.3135  -15.0537 O   0  0  0  0  0  0  0  0  0  0  0  0
    4.1535  -36.9491  -16.3124 C   0  0  1  0  0  0  0  0  0  0  0  0
    7.6699  -33.5913  -13.3676 C   0  0  1  0  0  0  0  0  0  0  0  0
    3.2905  -37.6614  -17.2030 O   0  0  0  0  0  0  0  0  0  0  0  0
    8.2652  -32.3161  -13.1161 O   0  0  0  0  0  0  0  0  0  0  0  0
    5.1058  -36.1165  -17.1540 C   0  0  1  0  0  0  0  0  0  0  0  0
    6.2443  -33.3535  -13.8396 C   0  0  1  0  0  0  0  0  0  0  0  0
    6.4513  -36.5118  -16.9047 O   0  0  0  0  0  0  0  0  0  0  0  0
    5.3237  -33.9600  -12.9375 O   0  0  0  0  0  0  0  0  0  0  0  0
    4.7450  -36.3852  -18.6032 C   0  0  0  0  0  0  0  0  0  0  0  0
    6.0425  -31.8506  -13.8563 C   0  0  0  0  0  0  0  0  0  0  0  0
    3.5855  -37.3698  -18.5717 C   0  0  2  0  0  0  0  0  0  0  0  0
    7.3590  -31.2449  -13.3908 C   0  0  2  0  0  0  0  0  0  0  0  0
    0.2157  -33.3424  -18.6300 N   0  0  0  0  0  0  0  0  0  0  0  0
    1.2680  -33.5818  -17.8258 C   0  0  0  0  0  0  0  0  0  0  0  0
    2.0536  -34.6699  -17.9266 N   0  0  0  0  0  0  0  0  0  0  0  0
    1.8201  -35.6107  -18.8727 C   0  0  0  0  0  0  0  0  0  0  0  0
    0.6868  -35.4205  -19.7916 C   0  0  0  0  0  0  0  0  0  0  0  0
   -0.1325  -34.1976  -19.6174 C   0  0  0  0  0  0  0  0  0  0  0  0
   -1.1936  -33.9451  -20.4210 N   0  0  0  0  0  0  0  0  0  0  0  0
    0.6802  -36.4830  -20.6182 N   0  0  0  0  0  0  0  0  0  0  0  0
    1.7169  -37.2836  -20.2612 C   0  0  0  0  0  0  0  0  0  0  0  0
    2.3966  -36.7637  -19.2210 N   0  0  0  0  0  0  0  0  0  0  0  0
    9.9086  -26.7978  -14.5286 N   0  0  0  0  0  0  0  0  0  0  0  0
    9.5401  -27.3063  -13.3382 C   0  0  0  0  0  0  0  0  0  0  0  0
    8.8832  -28.4714  -13.1941 N   0  0  0  0  0  0  0  0  0  0  0  0
    8.5480  -29.2175  -14.2744 C   0  0  0  0  0  0  0  0  0  0  0  0
    8.9168  -28.7282  -15.6118 C   0  0  0  0  0  0  0  0  0  0  0  0
    9.6392  -27.4364  -15.6876 C   0  0  0  0  0  0  0  0  0  0  0  0
   10.0164  -26.9141  -16.8805 N   0  0  0  0  0  0  0  0  0  0  0  0
    8.4729  -29.6454  -16.4919 N   0  0  0  0  0  0  0  0  0  0  0  0
    7.8726  -30.6343  -15.7808 C   0  0  0  0  0  0  0  0  0  0  0  0
    7.9171  -30.3794  -14.4602 N   0  0  0  0  0  0  0  0  0  0  0  0
  1  3  1  1  0  0  0
  1  5  2  0  0  0  0
  1  9  1  0  0  0  0
  1 18  1  0  0  0  0
  2  4  1  6  0  0  0
  2  6  2  0  0  0  0
  2 10  1  0  0  0  0
  2 17  1  0  0  0  0
  7  9  1  0  0  0  0
  8 10  1  0  0  0  0
 11  7  1  1  0  0  0
 11 13  1  0  0  0  0
 11 15  1  0  0  0  0
 12  8  1  6  0  0  0
 12 14  1  0  0  0  0
 12 16  1  0  0  0  0
 13 21  1  0  0  0  0
 14 22  1  0  0  0  0
 15 17  1  6  0  0  0
 15 19  1  0  0  0  0
 16 18  1  1  0  0  0
 16 20  1  0  0  0  0
 19 21  1  0  0  0  0
 20 22  1  0  0  0  0
 21 32  1  1  0  0  0
 22 42  1  6  0  0  0
 23 24  2  0  0  0  0
 23 28  1  0  0  0  0
 24 25  1  0  0  0  0
 25 26  2  0  0  0  0
 26 27  1  0  0  0  0
 26 32  1  0  0  0  0
 27 28  2  0  0  0  0
 27 30  1  0  0  0  0
 28 29  1  0  0  0  0
 30 31  2  0  0  0  0
 31 32  1  0  0  0  0
 33 34  2  0  0  0  0
 33 38  1  0  0  0  0
 34 35  1  0  0  0  0
 35 36  2  0  0  0  0
 36 37  1  0  0  0  0
 36 42  1  0  0  0  0
 37 38  2  0  0  0  0
 37 40  1  0  0  0  0
 38 39  1  0  0  0  0
 40 41  2  0  0  0  0
 41 42  1  0  0  0  0
M  CHG  2   3  -1   4  -1
M  END
>  <CHROM.1>
61.94388843,-99.70312224,5.39636529,-33.57771297,-16.04583723,-2.63986964
-0.69318830,-0.30487959

>  <Name>
ligand

>  <RI>
0

>  <Rbt.Current_Directory>
/home/itssahil/PROJECTS/Mol_Feturizer/New_Systems/rnas/4QLN

>  <Rbt.Executable>
rbdock ($Id: //depot/dev/client3/rdock/2013.1/src/exe/rbdock.cxx#4 $)

>  <Rbt.Library>
libRbt.so (2013.1, Build901 2013/11/27)

>  <Rbt.Parameter_File>
/export/apps/rDock/src/rDock_2013.1_src/data/scripts/dock_solv.prm

>  <Rbt.Receptor>
prm/pocket_docking_2.prm

>  <SCORE>
-35.8135

>  <SCORE.INTER>
-36.1334

>  <SCORE.INTER.CONST>
1

>  <SCORE.INTER.POLAR>
0

>  <SCORE.INTER.ROT>
2

>  <SCORE.INTER.SOLV>
33.5076

>  <SCORE.INTER.VDW>
-40.1914

>  <SCORE.INTER.norm>
-0.860318

>  <SCORE.INTRA>
0.31988

>  <SCORE.INTRA.DIHEDRAL>
-0.00048127

>  <SCORE.INTRA.DIHEDRAL.0>
2.39985

>  <SCORE.INTRA.POLAR>
0

>  <SCORE.INTRA.POLAR.0>
0

>  <SCORE.INTRA.REPUL>
0

>  <SCORE.INTRA.REPUL.0>
0

>  <SCORE.INTRA.SOLV>
-0.00781537

>  <SCORE.INTRA.SOLV.lig_0>
-110.958

>  <SCORE.INTRA.VDW>
0.324028

>  <SCORE.INTRA.VDW.0>
-2.34644

>  <SCORE.INTRA.norm>
0.00761619

>  <SCORE.RESTR>
0

>  <SCORE.RESTR.CAVITY>
0

>  <SCORE.RESTR.norm>
0

>  <SCORE.SYSTEM>
0

>  <SCORE.SYSTEM.CONST>
0

>  <SCORE.SYSTEM.DIHEDRAL>
0

>  <SCORE.SYSTEM.SOLV>
0

>  <SCORE.SYSTEM.norm>
0

>  <SCORE.heavy>
42

>  <SCORE.norm>
-0.852702

>  <RMSD>
0.830

$$$$
ligand
 OpenBabel11021811513D
libRbt.so/2013.1/901 2013/11/27
 42 48  0  0  0  0  0  0  0  0999 V2000
    3.8514  -34.3949  -13.4338 P   0  0  2  0  0  0  0  0  0  0  0  0
    7.5942  -35.4142  -16.6690 P   0  0  1  0  0  0  0  0  0  0  0  0
    3.3489  -35.4989  -12.5329 O   0  5  0  0  0  0  0  0  0  0  0  0
    7.0917  -34.0921  -17.1979 O   0  5  0  0  0  0  0  0  0  0  0  0
    3.0352  -33.1368  -13.6101 O   0  0  0  0  0  0  0  0  0  0  0  0
    8.9060  -35.9747  -17.1636 O   0  0  0  0  0  0  0  0  0  0  0  0
    3.3232  -36.0855  -15.3883 C   0  0  0  0  0  0  0  0  0  0  0  0
    8.4820  -34.3490  -14.4261 C   0  0  0  0  0  0  0  0  0  0  0  0
    4.1323  -35.0217  -14.8896 O   0  0  0  0  0  0  0  0  0  0  0  0
    7.6583  -35.3231  -15.0627 O   0  0  0  0  0  0  0  0  0  0  0  0
    4.1539  -36.9626  -16.3173 C   0  0  1  0  0  0  0  0  0  0  0  0
    7.6702  -33.6026  -13.3749 C   0  0  1  0  0  0  0  0  0  0  0  0
    3.2906  -37.6753  -17.2073 O   0  0  0  0  0  0  0  0  0  0  0  0
    8.2641  -32.3267  -13.1230 O   0  0  0  0  0  0  0  0  0  0  0  0
    5.1037  -36.1278  -17.1597 C   0  0  1  0  0  0  0  0  0  0  0  0
    6.2435  -33.3664  -13.8444 C   0  0  1  0  0  0  0  0  0  0  0  0
    6.4502  -36.5214  -16.9129 O   0  0  0  0  0  0  0  0  0  0  0  0
    5.3252  -33.9751  -12.9414 O   0  0  0  0  0  0  0  0  0  0  0  0
    4.7410  -36.3956  -18.6085 C   0  0  0  0  0  0  0  0  0  0  0  0
    6.0395  -31.8638  -13.8592 C   0  0  0  0  0  0  0  0  0  0  0  0
    3.5830  -37.3819  -18.5761 C   0  0  2  0  0  0  0  0  0  0  0  0
    7.3558  -31.2566  -13.3953 C   0  0  2  0  0  0  0  0  0  0  0  0
    0.1788  -33.3832  -18.5950 N   0  0  0  0  0  0  0  0  0  0  0  0
    1.2291  -33.6249  -17.7889 C   0  0  0  0  0  0  0  0  0  0  0  0
    2.0245  -34.7046  -17.9009 N   0  0  0  0  0  0  0  0  0  0  0  0
    1.8040  -35.6340  -18.8614 C   0  0  0  0  0  0  0  0  0  0  0  0
    0.6737  -35.4405  -19.7833 C   0  0  0  0  0  0  0  0  0  0  0  0
   -0.1570  -34.2273  -19.5961 C   0  0  0  0  0  0  0  0  0  0  0  0
   -1.2162  -33.9725  -20.4016 N   0  0  0  0  0  0  0  0  0  0  0  0
    0.6805  -36.4912  -20.6248 N   0  0  0  0  0  0  0  0  0  0  0  0
    1.7222  -37.2879  -20.2738 C   0  0  0  0  0  0  0  0  0  0  0  0
    2.3922  -36.7770  -19.2229 N   0  0  0  0  0  0  0  0  0  0  0  0
    9.9405  -26.8289  -14.5300 N   0  0  0  0  0  0  0  0  0  0  0  0
    9.5802  -27.3423  -13.3392 C   0  0  0  0  0  0  0  0  0  0  0  0
    8.9124  -28.5013  -13.1960 N   0  0  0  0  0  0  0  0  0  0  0  0
    8.5566  -29.2356  -14.2778 C   0  0  0  0  0  0  0  0  0  0  0  0
    8.9152  -28.7404  -15.6157 C   0  0  0  0  0  0  0  0  0  0  0  0
    9.6508  -27.4560  -15.6904 C   0  0  0  0  0  0  0  0  0  0  0  0
   10.0198  -26.9289  -16.8838 N   0  0  0  0  0  0  0  0  0  0  0  0
    8.4513  -29.6462  -16.4973 N   0  0  0  0  0  0  0  0  0  0  0  0
    7.8484  -30.6338  -15.7865 C   0  0  0  0  0  0  0  0  0  0  0  0
    7.9109  -30.3892  -14.4647 N   0  0  0  0  0  0  0  0  0  0  0  0
  1  3  1  1  0  0  0
  1  5  2  0  0  0  0
  1  9  1  0  0  0  0
  1 18  1  0  0  0  0
  2  4  1  6  0  0  0
  2  6  2  0  0  0  0
  2 10  1  0  0  0  0
  2 17  1  0  0  0  0
  7  9  1  0  0  0  0
  8 10  1  0  0  0  0
 11  7  1  1  0  0  0
 11 13  1  0  0  0  0
 11 15  1  0  0  0  0
 12  8  1  6  0  0  0
 12 14  1  0  0  0  0
 12 16  1  0  0  0  0
 13 21  1  0  0  0  0
 14 22  1  0  0  0  0
 15 17  1  6  0  0  0
 15 19  1  0  0  0  0
 16 18  1  1  0  0  0
 16 20  1  0  0  0  0
 19 21  1  0  0  0  0
 20 22  1  0  0  0  0
 21 32  1  1  0  0  0
 22 42  1  6  0  0  0
 23 24  2  0  0  0  0
 23 28  1  0  0  0  0
 24 25  1  0  0  0  0
 25 26  2  0  0  0  0
 26 27  1  0  0  0  0
 26 32  1  0  0  0  0
 27 28  2  0  0  0  0
 27 30  1  0  0  0  0
 28 29  1  0  0  0  0
 30 31  2  0  0  0  0
 31 32  1  0  0  0  0
 33 34  2  0  0  0  0
 33 38  1  0  0  0  0
 34 35  1  0  0  0  0
 35 36  2  0  0  0  0
 36 37  1  0  0  0  0
 36 42  1  0  0  0  0
 37 38  2  0  0  0  0
 37 40  1  0  0  0  0
 38 39  1  0  0  0  0
 40 41  2  0  0  0  0
 41 42  1  0  0  0  0
M  CHG  2   3  -1   4  -1
M  END
>  <CHROM.1>
61.00529720,-98.72378319,5.39359563,-33.59362330,-16.04676144,-2.63959787
-0.68994805,-0.30363929

>  <Name>
ligand

>  <RI>
0

>  <Rbt.Current_Directory>
/home/itssahil/PROJECTS/Mol_Feturizer/New_Systems/rnas/4QLN

>  <Rbt.Executable>
rbdock ($Id: //depot/dev/client3/rdock/2013.1/src/exe/rbdock.cxx#4 $)

>  <Rbt.Library>
libRbt.so (2013.1, Build901 2013/11/27)

>  <Rbt.Parameter_File>
/export/apps/rDock/src/rDock_2013.1_src/data/scripts/dock_solv.prm

>  <Rbt.Receptor>
prm/pocket_docking_2.prm

>  <SCORE>
-35.8404

>  <SCORE.INTER>
-36.1716

>  <SCORE.INTER.CONST>
1

>  <SCORE.INTER.POLAR>
0

>  <SCORE.INTER.ROT>
2

>  <SCORE.INTER.SOLV>
33.5075

>  <SCORE.INTER.VDW>
-40.2169

>  <SCORE.INTER.norm>
-0.861229

>  <SCORE.INTRA>
0.331217

>  <SCORE.INTRA.DIHEDRAL>
-0.000512009

>  <SCORE.INTRA.DIHEDRAL.0>
2.39985

>  <SCORE.INTRA.POLAR>
0

>  <SCORE.INTRA.POLAR.0>
0

>  <SCORE.INTRA.REPUL>
0

>  <SCORE.INTRA.REPUL.0>
0

>  <SCORE.INTRA.SOLV>
-0.00758563

>  <SCORE.INTRA.SOLV.lig_0>
-110.958

>  <SCORE.INTRA.VDW>
0.335266

>  <SCORE.INTRA.VDW.0>
-2.34644

>  <SCORE.INTRA.norm>
0.00788613

>  <SCORE.RESTR>
0

>  <SCORE.RESTR.CAVITY>
0

>  <SCORE.RESTR.norm>
0

>  <SCORE.SYSTEM>
0

>  <SCORE.SYSTEM.CONST>
0

>  <SCORE.SYSTEM.DIHEDRAL>
0

>  <SCORE.SYSTEM.SOLV>
0

>  <SCORE.SYSTEM.norm>
0

>  <SCORE.heavy>
42

>  <SCORE.norm>
-0.853343

>  <RMSD>
0.830

$$$$
ligand
 OpenBabel11021811513D
libRbt.so/2013.1/901 2013/11/27
 42 48  0  0  0  0  0  0  0  0999 V2000
    3.8884  -34.3797  -13.4406 P   0  0  2  0  0  0  0  0  0  0  0  0
    7.6106  -35.4065  -16.6972 P   0  0  1  0  0  0  0  0  0  0  0  0
    3.3927  -35.4813  -12.5330 O   0  5  0  0  0  0  0  0  0  0  0  0
    7.1036  -34.0864  -17.2269 O   0  5  0  0  0  0  0  0  0  0  0  0
    3.0701  -33.1228  -13.6154 O   0  0  0  0  0  0  0  0  0  0  0  0
    8.9195  -35.9675  -17.1987 O   0  0  0  0  0  0  0  0  0  0  0  0
    3.3486  -36.0768  -15.3862 C   0  0  0  0  0  0  0  0  0  0  0  0
    8.5123  -34.3336  -14.4636 C   0  0  0  0  0  0  0  0  0  0  0  0
    4.1601  -35.0109  -14.8962 O   0  0  0  0  0  0  0  0  0  0  0  0
    7.6852  -35.3103  -15.0917 O   0  0  0  0  0  0  0  0  0  0  0  0
    4.1739  -36.9562  -16.3180 C   0  0  1  0  0  0  0  0  0  0  0  0
    7.7070  -33.5845  -13.4093 C   0  0  1  0  0  0  0  0  0  0  0  0
    3.3051  -37.6724  -17.2000 O   0  0  0  0  0  0  0  0  0  0  0  0
    8.3015  -32.3075  -13.1654 O   0  0  0  0  0  0  0  0  0  0  0  0
    5.1174  -36.1234  -17.1692 C   0  0  1  0  0  0  0  0  0  0  0  0
    6.2771  -33.3508  -13.8701 C   0  0  1  0  0  0  0  0  0  0  0  0
    6.4658  -36.5152  -16.9301 O   0  0  0  0  0  0  0  0  0  0  0  0
    5.3652  -33.9574  -12.9593 O   0  0  0  0  0  0  0  0  0  0  0  0
    4.7453  -36.3960  -18.6148 C   0  0  0  0  0  0  0  0  0  0  0  0
    6.0718  -31.8484  -13.8883 C   0  0  0  0  0  0  0  0  0  0  0  0
    3.5883  -37.3830  -18.5717 C   0  0  2  0  0  0  0  0  0  0  0  0
    7.3907  -31.2389  -13.4350 C   0  0  2  0  0  0  0  0  0  0  0  0
    0.2400  -33.3380  -18.6444 N   0  0  0  0  0  0  0  0  0  0  0  0
    1.3033  -33.5702  -17.8528 C   0  0  0  0  0  0  0  0  0  0  0  0
    2.0813  -34.6642  -17.9477 N   0  0  0  0  0  0  0  0  0  0  0  0
    1.8280  -35.6191  -18.8744 C   0  0  0  0  0  0  0  0  0  0  0  0
    0.6817  -35.4375  -19.7787 C   0  0  0  0  0  0  0  0  0  0  0  0
   -0.1281  -34.2073  -19.6121 C   0  0  0  0  0  0  0  0  0  0  0  0
   -1.2002  -33.9620  -20.4034 N   0  0  0  0  0  0  0  0  0  0  0  0
    0.6565  -36.5134  -20.5875 N   0  0  0  0  0  0  0  0  0  0  0  0
    1.6943  -37.3139  -20.2334 C   0  0  0  0  0  0  0  0  0  0  0  0
    2.3928  -36.7809  -19.2125 N   0  0  0  0  0  0  0  0  0  0  0  0
    9.9504  -26.8049  -14.6013 N   0  0  0  0  0  0  0  0  0  0  0  0
    9.5966  -27.3138  -13.4066 C   0  0  0  0  0  0  0  0  0  0  0  0
    8.9348  -28.4752  -13.2552 N   0  0  0  0  0  0  0  0  0  0  0  0
    8.5789  -29.2168  -14.3319 C   0  0  0  0  0  0  0  0  0  0  0  0
    8.9307  -28.7268  -15.6737 C   0  0  0  0  0  0  0  0  0  0  0  0
    9.6599  -27.4394  -15.7575 C   0  0  0  0  0  0  0  0  0  0  0  0
   10.0224  -26.9168  -16.9548 N   0  0  0  0  0  0  0  0  0  0  0  0
    8.4681  -29.6394  -16.5490 N   0  0  0  0  0  0  0  0  0  0  0  0
    7.8724  -30.6261  -15.8311 C   0  0  0  0  0  0  0  0  0  0  0  0
    7.9381  -30.3744  -14.5107 N   0  0  0  0  0  0  0  0  0  0  0  0
  1  3  1  1  0  0  0
  1  5  2  0  0  0  0
  1  9  1  0  0  0  0
  1 18  1  0  0  0  0
  2  4  1  6  0  0  0
  2  6  2  0  0  0  0
  2 10  1  0  0  0  0
  2 17  1  0  0  0  0
  7  9  1  0  0  0  0
  8 10  1  0  0  0  0
 11  7  1  1  0  0  0
 11 13  1  0  0  0  0
 11 15  1  0  0  0  0
 12  8  1  6  0  0  0
 12 14  1  0  0  0  0
 12 16  1  0  0  0  0
 13 21  1  0  0  0  0
 14 22  1  0  0  0  0
 15 17  1  6  0  0  0
 15 19  1  0  0  0  0
 16 18  1  1  0  0  0
 16 20  1  0  0  0  0
 19 21  1  0  0  0  0
 20 22  1  0  0  0  0
 21 32  1  1  0  0  0
 22 42  1  6  0  0  0
 23 24  2  0  0  0  0
 23 28  1  0  0  0  0
 24 25  1  0  0  0  0
 25 26  2  0  0  0  0
 26 27  1  0  0  0  0
 26 32  1  0  0  0  0
 27 28  2  0  0  0  0
 27 30  1  0  0  0  0
 28 29  1  0  0  0  0
 30 31  2  0  0  0  0
 31 32  1  0  0  0  0
 33 34  2  0  0  0  0
 33 38  1  0  0  0  0
 34 35  1  0  0  0  0
 35 36  2  0  0  0  0
 36 37  1  0  0  0  0
 36 42  1  0  0  0  0
 37 38  2  0  0  0  0
 37 40  1  0  0  0  0
 38 39  1  0  0  0  0
 40 41  2  0  0  0  0
 41 42  1  0  0  0  0
M  CHG  2   3  -1   4  -1
M  END
>  <CHROM.1>
62.96538344,-99.04262790,5.41644253,-33.58087580,-16.07146052,-2.64132418
-0.69027420,-0.31285309

>  <Name>
ligand

>  <RI>
0

>  <Rbt.Current_Directory>
/home/itssahil/PROJECTS/Mol_Feturizer/New_Systems/rnas/4QLN

>  <Rbt.Executable>
rbdock ($Id: //depot/dev/client3/rdock/2013.1/src/exe/rbdock.cxx#4 $)

>  <Rbt.Library>
libRbt.so (2013.1, Build901 2013/11/27)

>  <Rbt.Parameter_File>
/export/apps/rDock/src/rDock_2013.1_src/data/scripts/dock_solv.prm

>  <Rbt.Receptor>
prm/pocket_docking_4.prm

>  <SCORE>
-35.8262

>  <SCORE.INTER>
-36.176

>  <SCORE.INTER.CONST>
1

>  <SCORE.INTER.POLAR>
0

>  <SCORE.INTER.ROT>
2

>  <SCORE.INTER.SOLV>
33.7384

>  <SCORE.INTER.VDW>
-40.2968

>  <SCORE.INTER.norm>
-0.861334

>  <SCORE.INTRA>
0.349845

>  <SCORE.INTRA.DIHEDRAL>
-0.000479673

>  <SCORE.INTRA.DIHEDRAL.0>
2.39985

>  <SCORE.INTRA.POLAR>
0

>  <SCORE.INTRA.POLAR.0>
0

>  <SCORE.INTRA.REPUL>
0

>  <SCORE.INTRA.REPUL.0>
0

>  <SCORE.INTRA.SOLV>
-0.0091992

>  <SCORE.INTRA.SOLV.lig_0>
-110.958

>  <SCORE.INTRA.VDW>
0.354684

>  <SCORE.INTRA.VDW.0>
-2.34644

>  <SCORE.INTRA.norm>
0.00832964

>  <SCORE.RESTR>
0

>  <SCORE.RESTR.CAVITY>
0

>  <SCORE.RESTR.norm>
0

>  <SCORE.SYSTEM>
0

>  <SCORE.SYSTEM.CONST>
0

>  <SCORE.SYSTEM.DIHEDRAL>
0

>  <SCORE.SYSTEM.SOLV>
0

>  <SCORE.SYSTEM.norm>
0

>  <SCORE.heavy>
42

>  <SCORE.norm>
-0.853004

>  <RMSD>
0.832

$$$$
ligand
 OpenBabel11021811513D
libRbt.so/2013.1/901 2013/11/27
 42 48  0  0  0  0  0  0  0  0999 V2000
    3.8469  -34.3932  -13.4339 P   0  0  2  0  0  0  0  0  0  0  0  0
    7.5914  -35.4143  -16.6666 P   0  0  1  0  0  0  0  0  0  0  0  0
    3.3440  -35.4967  -12.5327 O   0  5  0  0  0  0  0  0  0  0  0  0
    7.0891  -34.0924  -17.1965 O   0  5  0  0  0  0  0  0  0  0  0  0
    3.0309  -33.1352  -13.6112 O   0  0  0  0  0  0  0  0  0  0  0  0
    8.9034  -35.9750  -17.1603 O   0  0  0  0  0  0  0  0  0  0  0  0
    3.3197  -36.0848  -15.3877 C   0  0  0  0  0  0  0  0  0  0  0  0
    8.4781  -34.3478  -14.4239 C   0  0  0  0  0  0  0  0  0  0  0  0
    4.1286  -35.0208  -14.8892 O   0  0  0  0  0  0  0  0  0  0  0  0
    7.6547  -35.3223  -15.0604 O   0  0  0  0  0  0  0  0  0  0  0  0
    4.1509  -36.9624  -16.3159 C   0  0  1  0  0  0  0  0  0  0  0  0
    7.6658  -33.6009  -13.3734 C   0  0  1  0  0  0  0  0  0  0  0  0
    3.2880  -37.6756  -17.2059 O   0  0  0  0  0  0  0  0  0  0  0  0
    8.2595  -32.3250  -13.1220 O   0  0  0  0  0  0  0  0  0  0  0  0
    5.1011  -36.1281  -17.1582 C   0  0  1  0  0  0  0  0  0  0  0  0
    6.2393  -33.3650  -13.8437 C   0  0  1  0  0  0  0  0  0  0  0  0
    6.4475  -36.5215  -16.9106 O   0  0  0  0  0  0  0  0  0  0  0  0
    5.3206  -33.9732  -12.9410 O   0  0  0  0  0  0  0  0  0  0  0  0
    4.7391  -36.3966  -18.6071 C   0  0  0  0  0  0  0  0  0  0  0  0
    6.0353  -31.8624  -13.8595 C   0  0  0  0  0  0  0  0  0  0  0  0
    3.5811  -37.3829  -18.5748 C   0  0  2  0  0  0  0  0  0  0  0  0
    7.3514  -31.2550  -13.3952 C   0  0  2  0  0  0  0  0  0  0  0  0
    0.2102  -33.3565  -18.6326 N   0  0  0  0  0  0  0  0  0  0  0  0
    1.2643  -33.5942  -17.8304 C   0  0  0  0  0  0  0  0  0  0  0  0
    2.0500  -34.6822  -17.9310 N   0  0  0  0  0  0  0  0  0  0  0  0
    1.8146  -35.6248  -18.8749 C   0  0  0  0  0  0  0  0  0  0  0  0
    0.6792  -35.4364  -19.7916 C   0  0  0  0  0  0  0  0  0  0  0  0
   -0.1400  -34.2134  -19.6177 C   0  0  0  0  0  0  0  0  0  0  0  0
   -1.2030  -33.9626  -20.4194 N   0  0  0  0  0  0  0  0  0  0  0  0
    0.6711  -36.5004  -20.6163 N   0  0  0  0  0  0  0  0  0  0  0  0
    1.7088  -37.3001  -20.2602 C   0  0  0  0  0  0  0  0  0  0  0  0
    2.3906  -36.7783  -19.2225 N   0  0  0  0  0  0  0  0  0  0  0  0
    9.9134  -26.8148  -14.5323 N   0  0  0  0  0  0  0  0  0  0  0  0
    9.5496  -27.3259  -13.3416 C   0  0  0  0  0  0  0  0  0  0  0  0
    8.8886  -28.4886  -13.1978 N   0  0  0  0  0  0  0  0  0  0  0  0
    8.5440  -29.2295  -14.2786 C   0  0  0  0  0  0  0  0  0  0  0  0
    8.9072  -28.7372  -15.6165 C   0  0  0  0  0  0  0  0  0  0  0  0
    9.6347  -27.4483  -15.6919 C   0  0  0  0  0  0  0  0  0  0  0  0
   10.0073  -26.9235  -16.8852 N   0  0  0  0  0  0  0  0  0  0  0  0
    8.4544  -29.6495  -16.4971 N   0  0  0  0  0  0  0  0  0  0  0  0
    7.8539  -30.6383  -15.7860 C   0  0  0  0  0  0  0  0  0  0  0  0
    7.9071  -30.3882  -14.4648 N   0  0  0  0  0  0  0  0  0  0  0  0
  1  3  1  1  0  0  0
  1  5  2  0  0  0  0
  1  9  1  0  0  0  0
  1 18  1  0  0  0  0
  2  4  1  6  0  0  0
  2  6  2  0  0  0  0
  2 10  1  0  0  0  0
  2 17  1  0  0  0  0
  7  9  1  0  0  0  0
  8 10  1  0  0  0  0
 11  7  1  1  0  0  0
 11 13  1  0  0  0  0
 11 15  1  0  0  0  0
 12  8  1  6  0  0  0
 12 14  1  0  0  0  0
 12 16  1  0  0  0  0
 13 21  1  0  0  0  0
 14 22  1  0  0  0  0
 15 17  1  6  0  0  0
 15 19  1  0  0  0  0
 16 18  1  1  0  0  0
 16 20  1  0  0  0  0
 19 21  1  0  0  0  0
 20 22  1  0  0  0  0
 21 32  1  1  0  0  0
 22 42  1  6  0  0  0
 23 24  2  0  0  0  0
 23 28  1  0  0  0  0
 24 25  1  0  0  0  0
 25 26  2  0  0  0  0
 26 27  1  0  0  0  0
 26 32  1  0  0  0  0
 27 28  2  0  0  0  0
 27 30  1  0  0  0  0
 28 29  1  0  0  0  0
 30 31  2  0  0  0  0
 31 32  1  0  0  0  0
 33 34  2  0  0  0  0
 33 38  1  0  0  0  0
 34 35  1  0  0  0  0
 35 36  2  0  0  0  0
 36 37  1  0  0  0  0
 36 42  1  0  0  0  0
 37 38  2  0  0  0  0
 37 40  1  0  0  0  0
 38 39  1  0  0  0  0
 40 41  2  0  0  0  0
 41 42  1  0  0  0  0
M  CHG  2   3  -1   4  -1
M  END
>  <CHROM.1>
62.10201659,-99.24939920,5.39130913,-33.58997166,-16.04946002,-2.64075620
-0.69360792,-0.30670155

>  <Name>
ligand

>  <RI>
0

>  <Rbt.Current_Directory>
/home/itssahil/PROJECTS/Mol_Feturizer/New_Systems/rnas/4QLN

>  <Rbt.Executable>
rbdock ($Id: //depot/dev/client3/rdock/2013.1/src/exe/rbdock.cxx#4 $)

>  <Rbt.Library>
libRbt.so (2013.1, Build901 2013/11/27)

>  <Rbt.Parameter_File>
/export/apps/rDock/src/rDock_2013.1_src/data/scripts/dock_solv.prm

>  <Rbt.Receptor>
prm/pocket_docking_2.prm

>  <SCORE>
-35.873

>  <SCORE.INTER>
-36.2055

>  <SCORE.INTER.CONST>
1

>  <SCORE.INTER.POLAR>
0

>  <SCORE.INTER.ROT>
2

>  <SCORE.INTER.SOLV>
33.5071

>  <SCORE.INTER.VDW>
-40.2394

>  <SCORE.INTER.norm>
-0.862035

>  <SCORE.INTRA>
0.332452

>  <SCORE.INTRA.DIHEDRAL>
-0.000487636

>  <SCORE.INTRA.DIHEDRAL.0>
2.39985

>  <SCORE.INTRA.POLAR>
0

>  <SCORE.INTRA.POLAR.0>
0

>  <SCORE.INTRA.REPUL>
0

>  <SCORE.INTRA.REPUL.0>
0

>  <SCORE.INTRA.SOLV>
-0.00825185

>  <SCORE.INTRA.SOLV.lig_0>
-110.958

>  <SCORE.INTRA.VDW>
0.336821

>  <SCORE.INTRA.VDW.0>
-2.34644

>  <SCORE.INTRA.norm>
0.00791551

>  <SCORE.RESTR>
0

>  <SCORE.RESTR.CAVITY>
0

>  <SCORE.RESTR.norm>
0

>  <SCORE.SYSTEM>
0

>  <SCORE.SYSTEM.CONST>
0

>  <SCORE.SYSTEM.DIHEDRAL>
0

>  <SCORE.SYSTEM.SOLV>
0

>  <SCORE.SYSTEM.norm>
0

>  <SCORE.heavy>
42

>  <SCORE.norm>
-0.85412

>  <RMSD>
0.834

$$$$
ligand
 OpenBabel11021811513D
libRbt.so/2013.1/901 2013/11/27
 42 48  0  0  0  0  0  0  0  0999 V2000
    3.8561  -34.4062  -13.4250 P   0  0  2  0  0  0  0  0  0  0  0  0
    7.5912  -35.4073  -16.6747 P   0  0  1  0  0  0  0  0  0  0  0  0
    3.3616  -35.5130  -12.5231 O   0  5  0  0  0  0  0  0  0  0  0  0
    7.0812  -34.0868  -17.2007 O   0  5  0  0  0  0  0  0  0  0  0  0
    3.0340  -33.1514  -13.5972 O   0  0  0  0  0  0  0  0  0  0  0  0
    8.9035  -35.9618  -17.1746 O   0  0  0  0  0  0  0  0  0  0  0  0
    3.3278  -36.0974  -15.3788 C   0  0  0  0  0  0  0  0  0  0  0  0
    8.4828  -34.3401  -14.4342 C   0  0  0  0  0  0  0  0  0  0  0  0
    4.1342  -35.0306  -14.8823 O   0  0  0  0  0  0  0  0  0  0  0  0
    7.6609  -35.3171  -15.0686 O   0  0  0  0  0  0  0  0  0  0  0  0
    4.1588  -36.9703  -16.3116 C   0  0  1  0  0  0  0  0  0  0  0  0
    7.6718  -33.5979  -13.3794 C   0  0  1  0  0  0  0  0  0  0  0  0
    3.2951  -37.6859  -17.1990 O   0  0  0  0  0  0  0  0  0  0  0  0
    8.2612  -32.3198  -13.1287 O   0  0  0  0  0  0  0  0  0  0  0  0
    5.1019  -36.1309  -17.1568 C   0  0  1  0  0  0  0  0  0  0  0  0
    6.2424  -33.3674  -13.8435 C   0  0  1  0  0  0  0  0  0  0  0  0
    6.4510  -36.5190  -16.9153 O   0  0  0  0  0  0  0  0  0  0  0  0
    5.3299  -33.9806  -12.9377 O   0  0  0  0  0  0  0  0  0  0  0  0
    4.7350  -36.3990  -18.6045 C   0  0  0  0  0  0  0  0  0  0  0  0
    6.0320  -31.8656  -13.8564 C   0  0  0  0  0  0  0  0  0  0  0  0
    3.5812  -37.3902  -18.5687 C   0  0  2  0  0  0  0  0  0  0  0  0
    7.3475  -31.2533  -13.3968 C   0  0  2  0  0  0  0  0  0  0  0  0
    0.2343  -33.3443  -18.6520 N   0  0  0  0  0  0  0  0  0  0  0  0
    1.2980  -33.5743  -17.8603 C   0  0  0  0  0  0  0  0  0  0  0  0
    2.0756  -34.6689  -17.9522 N   0  0  0  0  0  0  0  0  0  0  0  0
    1.8214  -35.6266  -18.8759 C   0  0  0  0  0  0  0  0  0  0  0  0
    0.6746  -35.4475  -19.7800 C   0  0  0  0  0  0  0  0  0  0  0  0
   -0.1347  -34.2165  -19.6167 C   0  0  0  0  0  0  0  0  0  0  0  0
   -1.2073  -33.9733  -20.4081 N   0  0  0  0  0  0  0  0  0  0  0  0
    0.6485  -36.5259  -20.5853 N   0  0  0  0  0  0  0  0  0  0  0  0
    1.6862  -37.3257  -20.2294 C   0  0  0  0  0  0  0  0  0  0  0  0
    2.3856  -36.7897  -19.2106 N   0  0  0  0  0  0  0  0  0  0  0  0
    9.9180  -26.8188  -14.5369 N   0  0  0  0  0  0  0  0  0  0  0  0
    9.5654  -27.3353  -13.3451 C   0  0  0  0  0  0  0  0  0  0  0  0
    8.9004  -28.4957  -13.2006 N   0  0  0  0  0  0  0  0  0  0  0  0
    8.5397  -29.2284  -14.2818 C   0  0  0  0  0  0  0  0  0  0  0  0
    8.8899  -28.7298  -15.6208 C   0  0  0  0  0  0  0  0  0  0  0  0
    9.6228  -27.4440  -15.6970 C   0  0  0  0  0  0  0  0  0  0  0  0
    9.9842  -26.9138  -16.8913 N   0  0  0  0  0  0  0  0  0  0  0  0
    8.4225  -29.6346  -16.5016 N   0  0  0  0  0  0  0  0  0  0  0  0
    7.8254  -30.6246  -15.7895 C   0  0  0  0  0  0  0  0  0  0  0  0
    7.8950  -30.3827  -14.4675 N   0  0  0  0  0  0  0  0  0  0  0  0
  1  3  1  1  0  0  0
  1  5  2  0  0  0  0
  1  9  1  0  0  0  0
  1 18  1  0  0  0  0
  2  4  1  6  0  0  0
  2  6  2  0  0  0  0
  2 10  1  0  0  0  0
  2 17  1  0  0  0  0
  7  9  1  0  0  0  0
  8 10  1  0  0  0  0
 11  7  1  1  0  0  0
 11 13  1  0  0  0  0
 11 15  1  0  0  0  0
 12  8  1  6  0  0  0
 12 14  1  0  0  0  0
 12 16  1  0  0  0  0
 13 21  1  0  0  0  0
 14 22  1  0  0  0  0
 15 17  1  6  0  0  0
 15 19  1  0  0  0  0
 16 18  1  1  0  0  0
 16 20  1  0  0  0  0
 19 21  1  0  0  0  0
 20 22  1  0  0  0  0
 21 32  1  1  0  0  0
 22 42  1  6  0  0  0
 23 24  2  0  0  0  0
 23 28  1  0  0  0  0
 24 25  1  0  0  0  0
 25 26  2  0  0  0  0
 26 27  1  0  0  0  0
 26 32  1  0  0  0  0
 27 28  2  0  0  0  0
 27 30  1  0  0  0  0
 28 29  1  0  0  0  0
 30 31  2  0  0  0  0
 31 32  1  0  0  0  0
 33 34  2  0  0  0  0
 33 38  1  0  0  0  0
 34 35  1  0  0  0  0
 35 36  2  0  0  0  0
 36 37  1  0  0  0  0
 36 42  1  0  0  0  0
 37 38  2  0  0  0  0
 37 40  1  0  0  0  0
 38 39  1  0  0  0  0
 40 41  2  0  0  0  0
 41 42  1  0  0  0  0
M  CHG  2   3  -1   4  -1
M  END
>  <CHROM.1>
63.46878912,-98.52791328,5.39208194,-33.59172838,-16.04946353,-2.64295682
-0.69638837,-0.31290068

>  <Name>
ligand

>  <RI>
0

>  <Rbt.Current_Directory>
/home/itssahil/PROJECTS/Mol_Feturizer/New_Systems/rnas/4QLN

>  <Rbt.Executable>
rbdock ($Id: //depot/dev/client3/rdock/2013.1/src/exe/rbdock.cxx#4 $)

>  <Rbt.Library>
libRbt.so (2013.1, Build901 2013/11/27)

>  <Rbt.Parameter_File>
/export/apps/rDock/src/rDock_2013.1_src/data/scripts/dock_solv.prm

>  <Rbt.Receptor>
prm/pocket_docking_3.prm

>  <SCORE>
-35.9291

>  <SCORE.INTER>
-36.2991

>  <SCORE.INTER.CONST>
1

>  <SCORE.INTER.POLAR>
0

>  <SCORE.INTER.ROT>
2

>  <SCORE.INTER.SOLV>
33.4709

>  <SCORE.INTER.VDW>
-40.2897

>  <SCORE.INTER.norm>
-0.864263

>  <SCORE.INTRA>
0.369979

>  <SCORE.INTRA.DIHEDRAL>
-0.000481889

>  <SCORE.INTRA.DIHEDRAL.0>
2.39985

>  <SCORE.INTRA.POLAR>
0

>  <SCORE.INTRA.POLAR.0>
0

>  <SCORE.INTRA.REPUL>
0

>  <SCORE.INTRA.REPUL.0>
0

>  <SCORE.INTRA.SOLV>
-0.0100355

>  <SCORE.INTRA.SOLV.lig_0>
-110.958

>  <SCORE.INTRA.VDW>
0.375237

>  <SCORE.INTRA.VDW.0>
-2.34644

>  <SCORE.INTRA.norm>
0.00880902

>  <SCORE.RESTR>
0

>  <SCORE.RESTR.CAVITY>
0

>  <SCORE.RESTR.norm>
0

>  <SCORE.SYSTEM>
0

>  <SCORE.SYSTEM.CONST>
0

>  <SCORE.SYSTEM.DIHEDRAL>
0

>  <SCORE.SYSTEM.SOLV>
0

>  <SCORE.SYSTEM.norm>
0

>  <SCORE.heavy>
42

>  <SCORE.norm>
-0.855454

>  <RMSD>
0.834

$$$$
ligand
 OpenBabel11021811513D
libRbt.so/2013.1/901 2013/11/27
 42 48  0  0  0  0  0  0  0  0999 V2000
    3.7773  -34.4060  -13.3952 P   0  0  2  0  0  0  0  0  0  0  0  0
    7.5339  -35.4931  -16.5921 P   0  0  1  0  0  0  0  0  0  0  0  0
    3.2615  -35.4947  -12.4832 O   0  5  0  0  0  0  0  0  0  0  0  0
    7.0439  -34.1746  -17.1415 O   0  5  0  0  0  0  0  0  0  0  0  0
    2.9709  -33.1449  -13.5932 O   0  0  0  0  0  0  0  0  0  0  0  0
    8.8450  -36.0688  -17.0707 O   0  0  0  0  0  0  0  0  0  0  0  0
    3.2502  -36.1186  -15.3307 C   0  0  0  0  0  0  0  0  0  0  0  0
    8.4144  -34.4044  -14.3576 C   0  0  0  0  0  0  0  0  0  0  0  0
    4.0633  -35.0538  -14.8407 O   0  0  0  0  0  0  0  0  0  0  0  0
    7.5883  -35.3813  -14.9867 O   0  0  0  0  0  0  0  0  0  0  0  0
    4.0810  -37.0134  -16.2428 C   0  0  1  0  0  0  0  0  0  0  0  0
    7.6010  -33.6388  -13.3216 C   0  0  1  0  0  0  0  0  0  0  0  0
    3.2185  -37.7319  -17.1290 O   0  0  0  0  0  0  0  0  0  0  0  0
    8.2019  -32.3638  -13.0825 O   0  0  0  0  0  0  0  0  0  0  0  0
    5.0418  -36.1962  -17.0897 C   0  0  1  0  0  0  0  0  0  0  0  0
    6.1790  -33.3992  -13.8034 C   0  0  1  0  0  0  0  0  0  0  0  0
    6.3840  -36.5955  -16.8290 O   0  0  0  0  0  0  0  0  0  0  0  0
    5.2507  -33.9898  -12.8987 O   0  0  0  0  0  0  0  0  0  0  0  0
    4.6867  -36.4805  -18.5373 C   0  0  0  0  0  0  0  0  0  0  0  0
    5.9854  -31.8956  -13.8393 C   0  0  0  0  0  0  0  0  0  0  0  0
    3.5218  -37.4585  -18.4996 C   0  0  2  0  0  0  0  0  0  0  0  0
    7.3028  -31.2913  -13.3747 C   0  0  2  0  0  0  0  0  0  0  0  0
    0.1562  -33.4286  -18.6045 N   0  0  0  0  0  0  0  0  0  0  0  0
    1.2009  -33.6656  -17.7899 C   0  0  0  0  0  0  0  0  0  0  0  0
    1.9864  -34.7547  -17.8792 N   0  0  0  0  0  0  0  0  0  0  0  0
    1.7607  -35.6991  -18.8236 C   0  0  0  0  0  0  0  0  0  0  0  0
    0.6360  -35.5116  -19.7535 C   0  0  0  0  0  0  0  0  0  0  0  0
   -0.1838  -34.2874  -19.5916 C   0  0  0  0  0  0  0  0  0  0  0  0
   -1.2374  -34.0372  -20.4059 N   0  0  0  0  0  0  0  0  0  0  0  0
    0.6359  -36.5775  -20.5758 N   0  0  0  0  0  0  0  0  0  0  0  0
    1.6687  -37.3775  -20.2063 C   0  0  0  0  0  0  0  0  0  0  0  0
    2.3394  -36.8540  -19.1620 N   0  0  0  0  0  0  0  0  0  0  0  0
    9.9078  -26.8866  -14.5516 N   0  0  0  0  0  0  0  0  0  0  0  0
    9.5341  -27.3806  -13.3567 C   0  0  0  0  0  0  0  0  0  0  0  0
    8.8626  -28.5359  -13.2024 N   0  0  0  0  0  0  0  0  0  0  0  0
    8.5166  -29.2865  -14.2761 C   0  0  0  0  0  0  0  0  0  0  0  0
    8.8902  -28.8130  -15.6179 C   0  0  0  0  0  0  0  0  0  0  0  0
    9.6290  -27.5313  -15.7050 C   0  0  0  0  0  0  0  0  0  0  0  0
   10.0115  -27.0237  -16.9025 N   0  0  0  0  0  0  0  0  0  0  0  0
    8.4338  -29.7317  -16.4900 N   0  0  0  0  0  0  0  0  0  0  0  0
    7.8216  -30.7069  -15.7701 C   0  0  0  0  0  0  0  0  0  0  0  0
    7.8707  -30.4418  -14.4517 N   0  0  0  0  0  0  0  0  0  0  0  0
  1  3  1  1  0  0  0
  1  5  2  0  0  0  0
  1  9  1  0  0  0  0
  1 18  1  0  0  0  0
  2  4  1  6  0  0  0
  2  6  2  0  0  0  0
  2 10  1  0  0  0  0
  2 17  1  0  0  0  0
  7  9  1  0  0  0  0
  8 10  1  0  0  0  0
 11  7  1  1  0  0  0
 11 13  1  0  0  0  0
 11 15  1  0  0  0  0
 12  8  1  6  0  0  0
 12 14  1  0  0  0  0
 12 16  1  0  0  0  0
 13 21  1  0  0  0  0
 14 22  1  0  0  0  0
 15 17  1  6  0  0  0
 15 19  1  0  0  0  0
 16 18  1  1  0  0  0
 16 20  1  0  0  0  0
 19 21  1  0  0  0  0
 20 22  1  0  0  0  0
 21 32  1  1  0  0  0
 22 42  1  6  0  0  0
 23 24  2  0  0  0  0
 23 28  1  0  0  0  0
 24 25  1  0  0  0  0
 25 26  2  0  0  0  0
 26 27  1  0  0  0  0
 26 32  1  0  0  0  0
 27 28  2  0  0  0  0
 27 30  1  0  0  0  0
 28 29  1  0  0  0  0
 30 31  2  0  0  0  0
 31 32  1  0  0  0  0
 33 34  2  0  0  0  0
 33 38  1  0  0  0  0
 34 35  1  0  0  0  0
 35 36  2  0  0  0  0
 36 37  1  0  0  0  0
 36 42  1  0  0  0  0
 37 38  2  0  0  0  0
 37 40  1  0  0  0  0
 38 39  1  0  0  0  0
 40 41  2  0  0  0  0
 41 42  1  0  0  0  0
M  CHG  2   3  -1   4  -1
M  END
>  <CHROM.1>
61.36204938,-99.11444218,5.34132564,-33.64806105,-16.00924083,-2.64967170
-0.69484538,-0.32315293

>  <Name>
ligand

>  <RI>
0

>  <Rbt.Current_Directory>
/home/itssahil/PROJECTS/Mol_Feturizer/New_Systems/rnas/4QLN

>  <Rbt.Executable>
rbdock ($Id: //depot/dev/client3/rdock/2013.1/src/exe/rbdock.cxx#4 $)

>  <Rbt.Library>
libRbt.so (2013.1, Build901 2013/11/27)

>  <Rbt.Parameter_File>
/export/apps/rDock/src/rDock_2013.1_src/data/scripts/dock_solv.prm

>  <Rbt.Receptor>
prm/pocket_docking_5.prm

>  <SCORE>
-35.8541

>  <SCORE.INTER>
-36.1803

>  <SCORE.INTER.CONST>
1

>  <SCORE.INTER.POLAR>
0

>  <SCORE.INTER.ROT>
2

>  <SCORE.INTER.SOLV>
33.3088

>  <SCORE.INTER.VDW>
-40.1565

>  <SCORE.INTER.norm>
-0.861436

>  <SCORE.INTRA>
0.326198

>  <SCORE.INTRA.DIHEDRAL>
-0.000500193

>  <SCORE.INTRA.DIHEDRAL.0>
2.39985

>  <SCORE.INTRA.POLAR>
0

>  <SCORE.INTRA.POLAR.0>
0

>  <SCORE.INTRA.REPUL>
0

>  <SCORE.INTRA.REPUL.0>
0

>  <SCORE.INTRA.SOLV>
-0.00764849

>  <SCORE.INTRA.SOLV.lig_0>
-110.958

>  <SCORE.INTRA.VDW>
0.330272

>  <SCORE.INTRA.VDW.0>
-2.34644

>  <SCORE.INTRA.norm>
0.00776662

>  <SCORE.RESTR>
0

>  <SCORE.RESTR.CAVITY>
0

>  <SCORE.RESTR.norm>
0

>  <SCORE.SYSTEM>
0

>  <SCORE.SYSTEM.CONST>
0

>  <SCORE.SYSTEM.DIHEDRAL>
0

>  <SCORE.SYSTEM.SOLV>
0

>  <SCORE.SYSTEM.norm>
0

>  <SCORE.heavy>
42

>  <SCORE.norm>
-0.85367

>  <RMSD>
0.834

$$$$
ligand
 OpenBabel11021811513D
libRbt.so/2013.1/901 2013/11/27
 42 48  0  0  0  0  0  0  0  0999 V2000
    3.8503  -34.3971  -13.4346 P   0  0  2  0  0  0  0  0  0  0  0  0
    7.5936  -35.4122  -16.6706 P   0  0  1  0  0  0  0  0  0  0  0  0
    3.3486  -35.5019  -12.5342 O   0  5  0  0  0  0  0  0  0  0  0  0
    7.0900  -34.0901  -17.1988 O   0  5  0  0  0  0  0  0  0  0  0  0
    3.0332  -33.1395  -13.6102 O   0  0  0  0  0  0  0  0  0  0  0  0
    8.9057  -35.9715  -17.1656 O   0  0  0  0  0  0  0  0  0  0  0  0
    3.3231  -36.0871  -15.3899 C   0  0  0  0  0  0  0  0  0  0  0  0
    8.4808  -34.3475  -14.4273 C   0  0  0  0  0  0  0  0  0  0  0  0
    4.1315  -35.0230  -14.8907 O   0  0  0  0  0  0  0  0  0  0  0  0
    7.6577  -35.3219  -15.0643 O   0  0  0  0  0  0  0  0  0  0  0  0
    4.1544  -36.9632  -16.3194 C   0  0  1  0  0  0  0  0  0  0  0  0
    7.6686  -33.6022  -13.3756 C   0  0  1  0  0  0  0  0  0  0  0  0
    3.2914  -37.6760  -17.2097 O   0  0  0  0  0  0  0  0  0  0  0  0
    8.2615  -32.3261  -13.1231 O   0  0  0  0  0  0  0  0  0  0  0  0
    5.1035  -36.1273  -17.1614 C   0  0  1  0  0  0  0  0  0  0  0  0
    6.2417  -33.3668  -13.8448 C   0  0  1  0  0  0  0  0  0  0  0  0
    6.4503  -36.5200  -16.9150 O   0  0  0  0  0  0  0  0  0  0  0  0
    5.3238  -33.9766  -12.9421 O   0  0  0  0  0  0  0  0  0  0  0  0
    4.7408  -36.3946  -18.6104 C   0  0  0  0  0  0  0  0  0  0  0  0
    6.0366  -31.8643  -13.8589 C   0  0  0  0  0  0  0  0  0  0  0  0
    3.5835  -37.3817  -18.5784 C   0  0  2  0  0  0  0  0  0  0  0  0
    7.3525  -31.2565  -13.3947 C   0  0  2  0  0  0  0  0  0  0  0  0
    0.2214  -33.3480  -18.6427 N   0  0  0  0  0  0  0  0  0  0  0  0
    1.2777  -33.5846  -17.8430 C   0  0  0  0  0  0  0  0  0  0  0  0
    2.0606  -34.6748  -17.9414 N   0  0  0  0  0  0  0  0  0  0  0  0
    1.8200  -35.6210  -18.8804 C   0  0  0  0  0  0  0  0  0  0  0  0
    0.6820  -35.4340  -19.7941 C   0  0  0  0  0  0  0  0  0  0  0  0
   -0.1339  -34.2085  -19.6229 C   0  0  0  0  0  0  0  0  0  0  0  0
   -1.1990  -33.9588  -20.4222 N   0  0  0  0  0  0  0  0  0  0  0  0
    0.6687  -36.5016  -20.6142 N   0  0  0  0  0  0  0  0  0  0  0  0
    1.7058  -37.3021  -20.2580 C   0  0  0  0  0  0  0  0  0  0  0  0
    2.3923  -36.7772  -19.2248 N   0  0  0  0  0  0  0  0  0  0  0  0
    9.9444  -26.8323  -14.5268 N   0  0  0  0  0  0  0  0  0  0  0  0
    9.5859  -27.3473  -13.3361 C   0  0  0  0  0  0  0  0  0  0  0  0
    8.9159  -28.5051  -13.1937 N   0  0  0  0  0  0  0  0  0  0  0  0
    8.5557  -29.2363  -14.2760 C   0  0  0  0  0  0  0  0  0  0  0  0
    8.9121  -28.7392  -15.6139 C   0  0  0  0  0  0  0  0  0  0  0  0
    9.6504  -27.4563  -15.6878 C   0  0  0  0  0  0  0  0  0  0  0  0
   10.0177  -26.9276  -16.8810 N   0  0  0  0  0  0  0  0  0  0  0  0
    8.4439  -29.6421  -16.4962 N   0  0  0  0  0  0  0  0  0  0  0  0
    7.8406  -30.6298  -15.7859 C   0  0  0  0  0  0  0  0  0  0  0  0
    7.9069  -30.3881  -14.4637 N   0  0  0  0  0  0  0  0  0  0  0  0
  1  3  1  1  0  0  0
  1  5  2  0  0  0  0
  1  9  1  0  0  0  0
  1 18  1  0  0  0  0
  2  4  1  6  0  0  0
  2  6  2  0  0  0  0
  2 10  1  0  0  0  0
  2 17  1  0  0  0  0
  7  9  1  0  0  0  0
  8 10  1  0  0  0  0
 11  7  1  1  0  0  0
 11 13  1  0  0  0  0
 11 15  1  0  0  0  0
 12  8  1  6  0  0  0
 12 14  1  0  0  0  0
 12 16  1  0  0  0  0
 13 21  1  0  0  0  0
 14 22  1  0  0  0  0
 15 17  1  6  0  0  0
 15 19  1  0  0  0  0
 16 18  1  1  0  0  0
 16 20  1  0  0  0  0
 19 21  1  0  0  0  0
 20 22  1  0  0  0  0
 21 32  1  1  0  0  0
 22 42  1  6  0  0  0
 23 24  2  0  0  0  0
 23 28  1  0  0  0  0
 24 25  1  0  0  0  0
 25 26  2  0  0  0  0
 26 27  1  0  0  0  0
 26 32  1  0  0  0  0
 27 28  2  0  0  0  0
 27 30  1  0  0  0  0
 28 29  1  0  0  0  0
 30 31  2  0  0  0  0
 31 32  1  0  0  0  0
 33 34  2  0  0  0  0
 33 38  1  0  0  0  0
 34 35  1  0  0  0  0
 35 36  2  0  0  0  0
 36 37  1  0  0  0  0
 36 42  1  0  0  0  0
 37 38  2  0  0  0  0
 37 40  1  0  0  0  0
 38 39  1  0  0  0  0
 40 41  2  0  0  0  0
 41 42  1  0  0  0  0
M  CHG  2   3  -1   4  -1
M  END
>  <CHROM.1>
62.48895062,-98.48683064,5.39624674,-33.59087091,-16.05113825,-2.64535435
-0.69540626,-0.31188428

>  <Name>
ligand

>  <RI>
0

>  <Rbt.Current_Directory>
/home/itssahil/PROJECTS/Mol_Feturizer/New_Systems/rnas/4QLN

>  <Rbt.Executable>
rbdock ($Id: //depot/dev/client3/rdock/2013.1/src/exe/rbdock.cxx#4 $)

>  <Rbt.Library>
libRbt.so (2013.1, Build901 2013/11/27)

>  <Rbt.Parameter_File>
/export/apps/rDock/src/rDock_2013.1_src/data/scripts/dock_solv.prm

>  <Rbt.Receptor>
prm/pocket_docking_3.prm

>  <SCORE>
-35.9181

>  <SCORE.INTER>
-36.2737

>  <SCORE.INTER.CONST>
1

>  <SCORE.INTER.POLAR>
0

>  <SCORE.INTER.ROT>
2

>  <SCORE.INTER.SOLV>
33.5502

>  <SCORE.INTER.VDW>
-40.2992

>  <SCORE.INTER.norm>
-0.86366

>  <SCORE.INTRA>
0.355584

>  <SCORE.INTRA.DIHEDRAL>
-0.000495845

>  <SCORE.INTRA.DIHEDRAL.0>
2.39985

>  <SCORE.INTRA.POLAR>
0

>  <SCORE.INTRA.POLAR.0>
0

>  <SCORE.INTRA.REPUL>
0

>  <SCORE.INTRA.REPUL.0>
0

>  <SCORE.INTRA.SOLV>
-0.00914838

>  <SCORE.INTRA.SOLV.lig_0>
-110.958

>  <SCORE.INTRA.VDW>
0.360406

>  <SCORE.INTRA.VDW.0>
-2.34644

>  <SCORE.INTRA.norm>
0.00846628

>  <SCORE.RESTR>
0

>  <SCORE.RESTR.CAVITY>
0

>  <SCORE.RESTR.norm>
0

>  <SCORE.SYSTEM>
0

>  <SCORE.SYSTEM.CONST>
0

>  <SCORE.SYSTEM.DIHEDRAL>
0

>  <SCORE.SYSTEM.SOLV>
0

>  <SCORE.SYSTEM.norm>
0

>  <SCORE.heavy>
42

>  <SCORE.norm>
-0.855194

>  <RMSD>
0.835

$$$$
ligand
 OpenBabel11021811513D
libRbt.so/2013.1/901 2013/11/27
 42 48  0  0  0  0  0  0  0  0999 V2000
    3.7895  -34.3891  -13.4152 P   0  0  2  0  0  0  0  0  0  0  0  0
    7.5659  -35.4332  -16.6032 P   0  0  1  0  0  0  0  0  0  0  0  0
    3.2715  -35.4886  -12.5176 O   0  5  0  0  0  0  0  0  0  0  0  0
    7.0755  -34.1102  -17.1414 O   0  5  0  0  0  0  0  0  0  0  0  0
    2.9811  -33.1278  -13.6042 O   0  0  0  0  0  0  0  0  0  0  0  0
    8.8809  -36.0007  -17.0809 O   0  0  0  0  0  0  0  0  0  0  0  0
    3.2770  -36.0823  -15.3716 C   0  0  0  0  0  0  0  0  0  0  0  0
    8.4317  -34.3662  -14.3527 C   0  0  0  0  0  0  0  0  0  0  0  0
    4.0848  -35.0208  -14.8660 O   0  0  0  0  0  0  0  0  0  0  0  0
    7.6113  -35.3383  -14.9966 O   0  0  0  0  0  0  0  0  0  0  0  0
    4.1148  -36.9654  -16.2885 C   0  0  1  0  0  0  0  0  0  0  0  0
    7.6110  -33.6136  -13.3130 C   0  0  1  0  0  0  0  0  0  0  0  0
    3.2588  -37.6765  -17.1869 O   0  0  0  0  0  0  0  0  0  0  0  0
    8.2074  -32.3398  -13.0573 O   0  0  0  0  0  0  0  0  0  0  0  0
    5.0782  -36.1370  -17.1216 C   0  0  1  0  0  0  0  0  0  0  0  0
    6.1910  -33.3723  -13.7999 C   0  0  1  0  0  0  0  0  0  0  0  0
    6.4199  -36.5358  -16.8580 O   0  0  0  0  0  0  0  0  0  0  0  0
    5.2593  -33.9746  -12.9064 O   0  0  0  0  0  0  0  0  0  0  0  0
    4.7314  -36.4068  -18.5740 C   0  0  0  0  0  0  0  0  0  0  0  0
    5.9938  -31.8688  -13.8209 C   0  0  0  0  0  0  0  0  0  0  0  0
    3.5687  -37.3879  -18.5529 C   0  0  2  0  0  0  0  0  0  0  0  0
    7.3073  -31.2663  -13.3429 C   0  0  2  0  0  0  0  0  0  0  0  0
    0.2246  -33.3403  -18.6651 N   0  0  0  0  0  0  0  0  0  0  0  0
    1.2695  -33.5803  -17.8516 C   0  0  0  0  0  0  0  0  0  0  0  0
    2.0490  -34.6739  -17.9387 N   0  0  0  0  0  0  0  0  0  0  0  0
    1.8165  -35.6202  -18.8796 C   0  0  0  0  0  0  0  0  0  0  0  0
    0.6911  -35.4297  -19.8081 C   0  0  0  0  0  0  0  0  0  0  0  0
   -0.1218  -34.2006  -19.6488 C   0  0  0  0  0  0  0  0  0  0  0  0
   -1.1755  -33.9474  -20.4620 N   0  0  0  0  0  0  0  0  0  0  0  0
    0.6839  -36.4982  -20.6270 N   0  0  0  0  0  0  0  0  0  0  0  0
    1.7130  -37.3026  -20.2566 C   0  0  0  0  0  0  0  0  0  0  0  0
    2.3884  -36.7793  -19.2153 N   0  0  0  0  0  0  0  0  0  0  0  0
    9.9370  -26.8600  -14.4570 N   0  0  0  0  0  0  0  0  0  0  0  0
    9.5620  -27.3697  -13.2691 C   0  0  0  0  0  0  0  0  0  0  0  0
    8.8837  -28.5232  -13.1313 N   0  0  0  0  0  0  0  0  0  0  0  0
    8.5319  -29.2555  -14.2157 C   0  0  0  0  0  0  0  0  0  0  0  0
    8.9065  -28.7641  -15.5507 C   0  0  0  0  0  0  0  0  0  0  0  0
    9.6529  -27.4856  -15.6196 C   0  0  0  0  0  0  0  0  0  0  0  0
   10.0368  -26.9623  -16.8099 N   0  0  0  0  0  0  0  0  0  0  0  0
    8.4434  -29.6668  -16.4359 N   0  0  0  0  0  0  0  0  0  0  0  0
    7.8264  -30.6490  -15.7300 C   0  0  0  0  0  0  0  0  0  0  0  0
    7.8789  -30.4041  -14.4078 N   0  0  0  0  0  0  0  0  0  0  0  0
  1  3  1  1  0  0  0
  1  5  2  0  0  0  0
  1  9  1  0  0  0  0
  1 18  1  0  0  0  0
  2  4  1  6  0  0  0
  2  6  2  0  0  0  0
  2 10  1  0  0  0  0
  2 17  1  0  0  0  0
  7  9  1  0  0  0  0
  8 10  1  0  0  0  0
 11  7  1  1  0  0  0
 11 13  1  0  0  0  0
 11 15  1  0  0  0  0
 12  8  1  6  0  0  0
 12 14  1  0  0  0  0
 12 16  1  0  0  0  0
 13 21  1  0  0  0  0
 14 22  1  0  0  0  0
 15 17  1  6  0  0  0
 15 19  1  0  0  0  0
 16 18  1  1  0  0  0
 16 20  1  0  0  0  0
 19 21  1  0  0  0  0
 20 22  1  0  0  0  0
 21 32  1  1  0  0  0
 22 42  1  6  0  0  0
 23 24  2  0  0  0  0
 23 28  1  0  0  0  0
 24 25  1  0  0  0  0
 25 26  2  0  0  0  0
 26 27  1  0  0  0  0
 26 32  1  0  0  0  0
 27 28  2  0  0  0  0
 27 30  1  0  0  0  0
 28 29  1  0  0  0  0
 30 31  2  0  0  0  0
 31 32  1  0  0  0  0
 33 34  2  0  0  0  0
 33 38  1  0  0  0  0
 34 35  1  0  0  0  0
 35 36  2  0  0  0  0
 36 37  1  0  0  0  0
 36 42  1  0  0  0  0
 37 38  2  0  0  0  0
 37 40  1  0  0  0  0
 38 39  1  0  0  0  0
 40 41  2  0  0  0  0
 41 42  1  0  0  0  0
M  CHG  2   3  -1   4  -1
M  END
>  <CHROM.1>
62.35987706,-98.44750068,5.37057568,-33.59906517,-16.01512664,-2.65635819
-0.70473516,-0.32170212

>  <Name>
ligand

>  <RI>
0

>  <Rbt.Current_Directory>
/home/itssahil/PROJECTS/Mol_Feturizer/New_Systems/rnas/4QLN

>  <Rbt.Executable>
rbdock ($Id: //depot/dev/client3/rdock/2013.1/src/exe/rbdock.cxx#4 $)

>  <Rbt.Library>
libRbt.so (2013.1, Build901 2013/11/27)

>  <Rbt.Parameter_File>
/export/apps/rDock/src/rDock_2013.1_src/data/scripts/dock_solv.prm

>  <Rbt.Receptor>
prm/pocket_docking_2.prm

>  <SCORE>
-35.7918

>  <SCORE.INTER>
-36.1473

>  <SCORE.INTER.CONST>
1

>  <SCORE.INTER.POLAR>
0

>  <SCORE.INTER.ROT>
2

>  <SCORE.INTER.SOLV>
33.4135

>  <SCORE.INTER.VDW>
-40.1693

>  <SCORE.INTER.norm>
-0.860649

>  <SCORE.INTRA>
0.35465

>  <SCORE.INTRA.DIHEDRAL>
-0.000498265

>  <SCORE.INTRA.DIHEDRAL.0>
2.39985

>  <SCORE.INTRA.POLAR>
0

>  <SCORE.INTRA.POLAR.0>
0

>  <SCORE.INTRA.REPUL>
0

>  <SCORE.INTRA.REPUL.0>
0

>  <SCORE.INTRA.SOLV>
-0.0090567

>  <SCORE.INTRA.SOLV.lig_0>
-110.958

>  <SCORE.INTRA.VDW>
0.359427

>  <SCORE.INTRA.VDW.0>
-2.34644

>  <SCORE.INTRA.norm>
0.00844405

>  <SCORE.RESTR>
0.000759474

>  <SCORE.RESTR.CAVITY>
0.000759474

>  <SCORE.RESTR.norm>
1.80827e-05

>  <SCORE.SYSTEM>
0

>  <SCORE.SYSTEM.CONST>
0

>  <SCORE.SYSTEM.DIHEDRAL>
0

>  <SCORE.SYSTEM.SOLV>
0

>  <SCORE.SYSTEM.norm>
0

>  <SCORE.heavy>
42

>  <SCORE.norm>
-0.852187

>  <RMSD>
0.836

$$$$
ligand
 OpenBabel11021811513D
libRbt.so/2013.1/901 2013/11/27
 42 48  0  0  0  0  0  0  0  0999 V2000
    3.8480  -34.4053  -13.4262 P   0  0  2  0  0  0  0  0  0  0  0  0
    7.5834  -35.4144  -16.6731 P   0  0  1  0  0  0  0  0  0  0  0  0
    3.3508  -35.5110  -12.5244 O   0  5  0  0  0  0  0  0  0  0  0  0
    7.0763  -34.0932  -17.1998 O   0  5  0  0  0  0  0  0  0  0  0  0
    3.0284  -33.1491  -13.5994 O   0  0  0  0  0  0  0  0  0  0  0  0
    8.8950  -35.9716  -17.1719 O   0  0  0  0  0  0  0  0  0  0  0  0
    3.3178  -36.0962  -15.3799 C   0  0  0  0  0  0  0  0  0  0  0  0
    8.4755  -34.3482  -14.4324 C   0  0  0  0  0  0  0  0  0  0  0  0
    4.1259  -35.0307  -14.8831 O   0  0  0  0  0  0  0  0  0  0  0  0
    7.6522  -35.3240  -15.0670 O   0  0  0  0  0  0  0  0  0  0  0  0
    4.1478  -36.9709  -16.3119 C   0  0  1  0  0  0  0  0  0  0  0  0
    7.6652  -33.6043  -13.3783 C   0  0  1  0  0  0  0  0  0  0  0  0
    3.2834  -37.6851  -17.1997 O   0  0  0  0  0  0  0  0  0  0  0  0
    8.2568  -32.3272  -13.1276 O   0  0  0  0  0  0  0  0  0  0  0  0
    5.0931  -36.1335  -17.1567 C   0  0  1  0  0  0  0  0  0  0  0  0
    6.2365  -33.3712  -13.8434 C   0  0  1  0  0  0  0  0  0  0  0  0
    6.4413  -36.5240  -16.9142 O   0  0  0  0  0  0  0  0  0  0  0  0
    5.3223  -33.9824  -12.9380 O   0  0  0  0  0  0  0  0  0  0  0  0
    4.7266  -36.4014  -18.6046 C   0  0  0  0  0  0  0  0  0  0  0  0
    6.0290  -31.8690  -13.8569 C   0  0  0  0  0  0  0  0  0  0  0  0
    3.5710  -37.3904  -18.5692 C   0  0  2  0  0  0  0  0  0  0  0  0
    7.3453  -31.2591  -13.3965 C   0  0  2  0  0  0  0  0  0  0  0  0
    0.2127  -33.3535  -18.6350 N   0  0  0  0  0  0  0  0  0  0  0  0
    1.2730  -33.5873  -17.8399 C   0  0  0  0  0  0  0  0  0  0  0  0
    2.0543  -34.6788  -17.9372 N   0  0  0  0  0  0  0  0  0  0  0  0
    1.8077  -35.6293  -18.8703 C   0  0  0  0  0  0  0  0  0  0  0  0
    0.6649  -35.4456  -19.7788 C   0  0  0  0  0  0  0  0  0  0  0  0
   -0.1488  -34.2184  -19.6091 C   0  0  0  0  0  0  0  0  0  0  0  0
   -1.2179  -33.9715  -20.4039 N   0  0  0  0  0  0  0  0  0  0  0  0
    0.6461  -36.5171  -20.5935 N   0  0  0  0  0  0  0  0  0  0  0  0
    1.6843  -37.3170  -20.2391 C   0  0  0  0  0  0  0  0  0  0  0  0
    2.3769  -36.7878  -19.2121 N   0  0  0  0  0  0  0  0  0  0  0  0
    9.8882  -26.8091  -14.5383 N   0  0  0  0  0  0  0  0  0  0  0  0
    9.5291  -27.3219  -13.3469 C   0  0  0  0  0  0  0  0  0  0  0  0
    8.8727  -28.4871  -13.2019 N   0  0  0  0  0  0  0  0  0  0  0  0
    8.5283  -29.2289  -14.2822 C   0  0  0  0  0  0  0  0  0  0  0  0
    8.8865  -28.7349  -15.6207 C   0  0  0  0  0  0  0  0  0  0  0  0
    9.6090  -27.4432  -15.6975 C   0  0  0  0  0  0  0  0  0  0  0  0
    9.9768  -26.9167  -16.8914 N   0  0  0  0  0  0  0  0  0  0  0  0
    8.4350  -29.6486  -16.5006 N   0  0  0  0  0  0  0  0  0  0  0  0
    7.8398  -30.6397  -15.7883 C   0  0  0  0  0  0  0  0  0  0  0  0
    7.8952  -30.3898  -14.4671 N   0  0  0  0  0  0  0  0  0  0  0  0
  1  3  1  1  0  0  0
  1  5  2  0  0  0  0
  1  9  1  0  0  0  0
  1 18  1  0  0  0  0
  2  4  1  6  0  0  0
  2  6  2  0  0  0  0
  2 10  1  0  0  0  0
  2 17  1  0  0  0  0
  7  9  1  0  0  0  0
  8 10  1  0  0  0  0
 11  7  1  1  0  0  0
 11 13  1  0  0  0  0
 11 15  1  0  0  0  0
 12  8  1  6  0  0  0
 12 14  1  0  0  0  0
 12 16  1  0  0  0  0
 13 21  1  0  0  0  0
 14 22  1  0  0  0  0
 15 17  1  6  0  0  0
 15 19  1  0  0  0  0
 16 18  1  1  0  0  0
 16 20  1  0  0  0  0
 19 21  1  0  0  0  0
 20 22  1  0  0  0  0
 21 32  1  1  0  0  0
 22 42  1  6  0  0  0
 23 24  2  0  0  0  0
 23 28  1  0  0  0  0
 24 25  1  0  0  0  0
 25 26  2  0  0  0  0
 26 27  1  0  0  0  0
 26 32  1  0  0  0  0
 27 28  2  0  0  0  0
 27 30  1  0  0  0  0
 28 29  1  0  0  0  0
 30 31  2  0  0  0  0
 31 32  1  0  0  0  0
 33 34  2  0  0  0  0
 33 38  1  0  0  0  0
 34 35  1  0  0  0  0
 35 36  2  0  0  0  0
 36 37  1  0  0  0  0
 36 42  1  0  0  0  0
 37 38  2  0  0  0  0
 37 40  1  0  0  0  0
 38 39  1  0  0  0  0
 40 41  2  0  0  0  0
 41 42  1  0  0  0  0
M  CHG  2   3  -1   4  -1
M  END
>  <CHROM.1>
62.83615776,-99.35843445,5.38271697,-33.59412714,-16.04833653,-2.63857340
-0.69339266,-0.30619211

>  <Name>
ligand

>  <RI>
0

>  <Rbt.Current_Directory>
/home/itssahil/PROJECTS/Mol_Feturizer/New_Systems/rnas/4QLN

>  <Rbt.Executable>
rbdock ($Id: //depot/dev/client3/rdock/2013.1/src/exe/rbdock.cxx#4 $)

>  <Rbt.Library>
libRbt.so (2013.1, Build901 2013/11/27)

>  <Rbt.Parameter_File>
/export/apps/rDock/src/rDock_2013.1_src/data/scripts/dock_solv.prm

>  <Rbt.Receptor>
prm/pocket_docking_3.prm

>  <SCORE>
-35.8551

>  <SCORE.INTER>
-36.1956

>  <SCORE.INTER.CONST>
1

>  <SCORE.INTER.POLAR>
0

>  <SCORE.INTER.ROT>
2

>  <SCORE.INTER.SOLV>
33.4391

>  <SCORE.INTER.VDW>
-40.2101

>  <SCORE.INTER.norm>
-0.861801

>  <SCORE.INTRA>
0.340541

>  <SCORE.INTRA.DIHEDRAL>
-0.000475651

>  <SCORE.INTRA.DIHEDRAL.0>
2.39985

>  <SCORE.INTRA.POLAR>
0

>  <SCORE.INTRA.POLAR.0>
0

>  <SCORE.INTRA.REPUL>
0

>  <SCORE.INTRA.REPUL.0>
0

>  <SCORE.INTRA.SOLV>
-0.0088682

>  <SCORE.INTRA.SOLV.lig_0>
-110.958

>  <SCORE.INTRA.VDW>
0.345213

>  <SCORE.INTRA.VDW.0>
-2.34644

>  <SCORE.INTRA.norm>
0.00810812

>  <SCORE.RESTR>
0

>  <SCORE.RESTR.CAVITY>
0

>  <SCORE.RESTR.norm>
0

>  <SCORE.SYSTEM>
0

>  <SCORE.SYSTEM.CONST>
0

>  <SCORE.SYSTEM.DIHEDRAL>
0

>  <SCORE.SYSTEM.SOLV>
0

>  <SCORE.SYSTEM.norm>
0

>  <SCORE.heavy>
42

>  <SCORE.norm>
-0.853692

>  <RMSD>
0.836

$$$$
ligand
 OpenBabel11021811513D
libRbt.so/2013.1/901 2013/11/27
 42 48  0  0  0  0  0  0  0  0999 V2000
    3.8548  -34.4039  -13.4261 P   0  0  2  0  0  0  0  0  0  0  0  0
    7.5895  -35.4066  -16.6759 P   0  0  1  0  0  0  0  0  0  0  0  0
    3.3599  -35.5105  -12.5242 O   0  5  0  0  0  0  0  0  0  0  0  0
    7.0799  -34.0860  -17.2019 O   0  5  0  0  0  0  0  0  0  0  0  0
    3.0332  -33.1488  -13.5984 O   0  0  0  0  0  0  0  0  0  0  0  0
    8.9015  -35.9617  -17.1758 O   0  0  0  0  0  0  0  0  0  0  0  0
    3.3258  -36.0951  -15.3798 C   0  0  0  0  0  0  0  0  0  0  0  0
    8.4815  -34.3396  -14.4355 C   0  0  0  0  0  0  0  0  0  0  0  0
    4.1326  -35.0285  -14.8834 O   0  0  0  0  0  0  0  0  0  0  0  0
    7.6592  -35.3164  -15.0698 O   0  0  0  0  0  0  0  0  0  0  0  0
    4.1564  -36.9683  -16.3126 C   0  0  1  0  0  0  0  0  0  0  0  0
    7.6708  -33.5971  -13.3807 C   0  0  1  0  0  0  0  0  0  0  0  0
    3.2925  -37.6836  -17.1999 O   0  0  0  0  0  0  0  0  0  0  0  0
    8.2607  -32.3192  -13.1301 O   0  0  0  0  0  0  0  0  0  0  0  0
    5.0999  -36.1293  -17.1579 C   0  0  1  0  0  0  0  0  0  0  0  0
    6.2415  -33.3660  -13.8447 C   0  0  1  0  0  0  0  0  0  0  0  0
    6.4488  -36.5179  -16.9164 O   0  0  0  0  0  0  0  0  0  0  0  0
    5.3288  -33.9789  -12.9389 O   0  0  0  0  0  0  0  0  0  0  0  0
    4.7328  -36.3974  -18.6056 C   0  0  0  0  0  0  0  0  0  0  0  0
    6.0317  -31.8642  -13.8577 C   0  0  0  0  0  0  0  0  0  0  0  0
    3.5787  -37.3881  -18.5696 C   0  0  2  0  0  0  0  0  0  0  0  0
    7.3474  -31.2524  -13.3982 C   0  0  2  0  0  0  0  0  0  0  0  0
    0.2313  -33.3425  -18.6510 N   0  0  0  0  0  0  0  0  0  0  0  0
    1.2948  -33.5731  -17.8590 C   0  0  0  0  0  0  0  0  0  0  0  0
    2.0725  -34.6675  -17.9515 N   0  0  0  0  0  0  0  0  0  0  0  0
    1.8188  -35.6245  -18.8761 C   0  0  0  0  0  0  0  0  0  0  0  0
    0.6723  -35.4447  -19.7805 C   0  0  0  0  0  0  0  0  0  0  0  0
   -0.1372  -34.2139  -19.6165 C   0  0  0  0  0  0  0  0  0  0  0  0
   -1.2094  -33.9701  -20.4081 N   0  0  0  0  0  0  0  0  0  0  0  0
    0.6467  -36.5224  -20.5868 N   0  0  0  0  0  0  0  0  0  0  0  0
    1.6843  -37.3224  -20.2310 C   0  0  0  0  0  0  0  0  0  0  0  0
    2.3832  -36.7872  -19.2115 N   0  0  0  0  0  0  0  0  0  0  0  0
    9.9332  -26.8267  -14.5380 N   0  0  0  0  0  0  0  0  0  0  0  0
    9.5822  -27.3439  -13.3461 C   0  0  0  0  0  0  0  0  0  0  0  0
    8.9127  -28.5018  -13.2017 N   0  0  0  0  0  0  0  0  0  0  0  0
    8.5455  -29.2308  -14.2832 C   0  0  0  0  0  0  0  0  0  0  0  0
    8.8935  -28.7311  -15.6223 C   0  0  0  0  0  0  0  0  0  0  0  0
    9.6316  -27.4483  -15.6983 C   0  0  0  0  0  0  0  0  0  0  0  0
    9.9915  -26.9174  -16.8928 N   0  0  0  0  0  0  0  0  0  0  0  0
    8.4195  -29.6322  -16.5033 N   0  0  0  0  0  0  0  0  0  0  0  0
    7.8204  -30.6211  -15.7912 C   0  0  0  0  0  0  0  0  0  0  0  0
    7.8952  -30.3821  -14.4690 N   0  0  0  0  0  0  0  0  0  0  0  0
  1  3  1  1  0  0  0
  1  5  2  0  0  0  0
  1  9  1  0  0  0  0
  1 18  1  0  0  0  0
  2  4  1  6  0  0  0
  2  6  2  0  0  0  0
  2 10  1  0  0  0  0
  2 17  1  0  0  0  0
  7  9  1  0  0  0  0
  8 10  1  0  0  0  0
 11  7  1  1  0  0  0
 11 13  1  0  0  0  0
 11 15  1  0  0  0  0
 12  8  1  6  0  0  0
 12 14  1  0  0  0  0
 12 16  1  0  0  0  0
 13 21  1  0  0  0  0
 14 22  1  0  0  0  0
 15 17  1  6  0  0  0
 15 19  1  0  0  0  0
 16 18  1  1  0  0  0
 16 20  1  0  0  0  0
 19 21  1  0  0  0  0
 20 22  1  0  0  0  0
 21 32  1  1  0  0  0
 22 42  1  6  0  0  0
 23 24  2  0  0  0  0
 23 28  1  0  0  0  0
 24 25  1  0  0  0  0
 25 26  2  0  0  0  0
 26 27  1  0  0  0  0
 26 32  1  0  0  0  0
 27 28  2  0  0  0  0
 27 30  1  0  0  0  0
 28 29  1  0  0  0  0
 30 31  2  0  0  0  0
 31 32  1  0  0  0  0
 33 34  2  0  0  0  0
 33 38  1  0  0  0  0
 34 35  1  0  0  0  0
 35 36  2  0  0  0  0
 36 37  1  0  0  0  0
 36 42  1  0  0  0  0
 37 38  2  0  0  0  0
 37 40  1  0  0  0  0
 38 39  1  0  0  0  0
 40 41  2  0  0  0  0
 41 42  1  0  0  0  0
M  CHG  2   3  -1   4  -1
M  END
>  <CHROM.1>
63.40504413,-98.21871321,5.39199139,-33.59095712,-16.05046266,-2.64492803
-0.69633787,-0.31488406

>  <Name>
ligand

>  <RI>
0

>  <Rbt.Current_Directory>
/home/itssahil/PROJECTS/Mol_Feturizer/New_Systems/rnas/4QLN

>  <Rbt.Executable>
rbdock ($Id: //depot/dev/client3/rdock/2013.1/src/exe/rbdock.cxx#4 $)

>  <Rbt.Library>
libRbt.so (2013.1, Build901 2013/11/27)

>  <Rbt.Parameter_File>
/export/apps/rDock/src/rDock_2013.1_src/data/scripts/dock_solv.prm

>  <Rbt.Receptor>
prm/pocket_docking_4.prm

>  <SCORE>
-35.9309

>  <SCORE.INTER>
-36.307

>  <SCORE.INTER.CONST>
1

>  <SCORE.INTER.POLAR>
0

>  <SCORE.INTER.ROT>
2

>  <SCORE.INTER.SOLV>
33.5105

>  <SCORE.INTER.VDW>
-40.3082

>  <SCORE.INTER.norm>
-0.864452

>  <SCORE.INTRA>
0.376128

>  <SCORE.INTRA.DIHEDRAL>
-0.000487927

>  <SCORE.INTRA.DIHEDRAL.0>
2.39985

>  <SCORE.INTRA.POLAR>
0

>  <SCORE.INTRA.POLAR.0>
0

>  <SCORE.INTRA.REPUL>
0

>  <SCORE.INTRA.REPUL.0>
0

>  <SCORE.INTRA.SOLV>
-0.0102087

>  <SCORE.INTRA.SOLV.lig_0>
-110.958

>  <SCORE.INTRA.VDW>
0.381477

>  <SCORE.INTRA.VDW.0>
-2.34644

>  <SCORE.INTRA.norm>
0.00895544

>  <SCORE.RESTR>
0

>  <SCORE.RESTR.CAVITY>
0

>  <SCORE.RESTR.norm>
0

>  <SCORE.SYSTEM>
0

>  <SCORE.SYSTEM.CONST>
0

>  <SCORE.SYSTEM.DIHEDRAL>
0

>  <SCORE.SYSTEM.SOLV>
0

>  <SCORE.SYSTEM.norm>
0

>  <SCORE.heavy>
42

>  <SCORE.norm>
-0.855497

>  <RMSD>
0.836

$$$$
ligand
 OpenBabel11021811513D
libRbt.so/2013.1/901 2013/11/27
 42 48  0  0  0  0  0  0  0  0999 V2000
    3.7816  -34.4120  -13.3986 P   0  0  2  0  0  0  0  0  0  0  0  0
    7.5475  -35.4475  -16.6017 P   0  0  1  0  0  0  0  0  0  0  0  0
    3.2682  -35.5132  -12.5005 O   0  5  0  0  0  0  0  0  0  0  0  0
    7.0535  -34.1245  -17.1364 O   0  5  0  0  0  0  0  0  0  0  0  0
    2.9709  -33.1516  -13.5832 O   0  0  0  0  0  0  0  0  0  0  0  0
    8.8615  -36.0127  -17.0848 O   0  0  0  0  0  0  0  0  0  0  0  0
    3.2640  -36.1035  -15.3552 C   0  0  0  0  0  0  0  0  0  0  0  0
    8.4203  -34.3821  -14.3530 C   0  0  0  0  0  0  0  0  0  0  0  0
    4.0723  -35.0416  -14.8512 O   0  0  0  0  0  0  0  0  0  0  0  0
    7.5987  -35.3545  -14.9951 O   0  0  0  0  0  0  0  0  0  0  0  0
    4.0995  -36.9844  -16.2763 C   0  0  1  0  0  0  0  0  0  0  0  0
    7.6023  -33.6318  -13.3094 C   0  0  1  0  0  0  0  0  0  0  0  0
    3.2412  -37.6956  -17.1724 O   0  0  0  0  0  0  0  0  0  0  0  0
    8.1981  -32.3575  -13.0543 O   0  0  0  0  0  0  0  0  0  0  0  0
    5.0588  -36.1538  -17.1119 C   0  0  1  0  0  0  0  0  0  0  0  0
    6.1803  -33.3917  -13.7909 C   0  0  1  0  0  0  0  0  0  0  0  0
    6.4020  -36.5513  -16.8536 O   0  0  0  0  0  0  0  0  0  0  0  0
    5.2526  -33.9963  -12.8947 O   0  0  0  0  0  0  0  0  0  0  0  0
    4.7071  -36.4223  -18.5633 C   0  0  0  0  0  0  0  0  0  0  0  0
    5.9811  -31.8885  -13.8093 C   0  0  0  0  0  0  0  0  0  0  0  0
    3.5457  -37.4049  -18.5391 C   0  0  2  0  0  0  0  0  0  0  0  0
    7.2956  -31.2849  -13.3354 C   0  0  2  0  0  0  0  0  0  0  0  0
    0.2187  -33.3435  -18.6583 N   0  0  0  0  0  0  0  0  0  0  0  0
    1.2697  -33.5808  -17.8519 C   0  0  0  0  0  0  0  0  0  0  0  0
    2.0436  -34.6786  -17.9360 N   0  0  0  0  0  0  0  0  0  0  0  0
    1.7985  -35.6324  -18.8662 C   0  0  0  0  0  0  0  0  0  0  0  0
    0.6658  -35.4452  -19.7863 C   0  0  0  0  0  0  0  0  0  0  0  0
   -0.1403  -34.2110  -19.6310 C   0  0  0  0  0  0  0  0  0  0  0  0
   -1.2001  -33.9605  -20.4370 N   0  0  0  0  0  0  0  0  0  0  0  0
    0.6465  -36.5210  -20.5954 N   0  0  0  0  0  0  0  0  0  0  0  0
    1.6753  -37.3266  -20.2269 C   0  0  0  0  0  0  0  0  0  0  0  0
    2.3622  -36.7970  -19.1964 N   0  0  0  0  0  0  0  0  0  0  0  0
    9.9318  -26.8833  -14.4528 N   0  0  0  0  0  0  0  0  0  0  0  0
    9.5638  -27.3961  -13.2640 C   0  0  0  0  0  0  0  0  0  0  0  0
    8.8827  -28.5478  -13.1254 N   0  0  0  0  0  0  0  0  0  0  0  0
    8.5205  -29.2749  -14.2099 C   0  0  0  0  0  0  0  0  0  0  0  0
    8.8869  -28.7799  -15.5458 C   0  0  0  0  0  0  0  0  0  0  0  0
    9.6370  -27.5036  -15.6155 C   0  0  0  0  0  0  0  0  0  0  0  0
   10.0139  -26.9772  -16.8067 N   0  0  0  0  0  0  0  0  0  0  0  0
    8.4143  -29.6778  -16.4308 N   0  0  0  0  0  0  0  0  0  0  0  0
    7.7991  -30.6606  -15.7240 C   0  0  0  0  0  0  0  0  0  0  0  0
    7.8622  -30.4207  -14.4013 N   0  0  0  0  0  0  0  0  0  0  0  0
  1  3  1  1  0  0  0
  1  5  2  0  0  0  0
  1  9  1  0  0  0  0
  1 18  1  0  0  0  0
  2  4  1  6  0  0  0
  2  6  2  0  0  0  0
  2 10  1  0  0  0  0
  2 17  1  0  0  0  0
  7  9  1  0  0  0  0
  8 10  1  0  0  0  0
 11  7  1  1  0  0  0
 11 13  1  0  0  0  0
 11 15  1  0  0  0  0
 12  8  1  6  0  0  0
 12 14  1  0  0  0  0
 12 16  1  0  0  0  0
 13 21  1  0  0  0  0
 14 22  1  0  0  0  0
 15 17  1  6  0  0  0
 15 19  1  0  0  0  0
 16 18  1  1  0  0  0
 16 20  1  0  0  0  0
 19 21  1  0  0  0  0
 20 22  1  0  0  0  0
 21 32  1  1  0  0  0
 22 42  1  6  0  0  0
 23 24  2  0  0  0  0
 23 28  1  0  0  0  0
 24 25  1  0  0  0  0
 25 26  2  0  0  0  0
 26 27  1  0  0  0  0
 26 32  1  0  0  0  0
 27 28  2  0  0  0  0
 27 30  1  0  0  0  0
 28 29  1  0  0  0  0
 30 31  2  0  0  0  0
 31 32  1  0  0  0  0
 33 34  2  0  0  0  0
 33 38  1  0  0  0  0
 34 35  1  0  0  0  0
 35 36  2  0  0  0  0
 36 37  1  0  0  0  0
 36 42  1  0  0  0  0
 37 38  2  0  0  0  0
 37 40  1  0  0  0  0
 38 39  1  0  0  0  0
 40 41  2  0  0  0  0
 41 42  1  0  0  0  0
M  CHG  2   3  -1   4  -1
M  END
>  <CHROM.1>
63.09746294,-98.08031589,5.35525580,-33.61616556,-16.00524694,-2.65814456
-0.70452625,-0.32488494

>  <Name>
ligand

>  <RI>
0

>  <Rbt.Current_Directory>
/home/itssahil/PROJECTS/Mol_Feturizer/New_Systems/rnas/4QLN

>  <Rbt.Executable>
rbdock ($Id: //depot/dev/client3/rdock/2013.1/src/exe/rbdock.cxx#4 $)

>  <Rbt.Library>
libRbt.so (2013.1, Build901 2013/11/27)

>  <Rbt.Parameter_File>
/export/apps/rDock/src/rDock_2013.1_src/data/scripts/dock_solv.prm

>  <Rbt.Receptor>
prm/pocket_docking_7.prm

>  <SCORE>
-35.8558

>  <SCORE.INTER>
-36.2301

>  <SCORE.INTER.CONST>
1

>  <SCORE.INTER.POLAR>
0

>  <SCORE.INTER.ROT>
2

>  <SCORE.INTER.SOLV>
33.2925

>  <SCORE.INTER.VDW>
-40.1842

>  <SCORE.INTER.norm>
-0.862622

>  <SCORE.INTRA>
0.374347

>  <SCORE.INTRA.DIHEDRAL>
-0.000494339

>  <SCORE.INTRA.DIHEDRAL.0>
2.39985

>  <SCORE.INTRA.POLAR>
0

>  <SCORE.INTRA.POLAR.0>
0

>  <SCORE.INTRA.REPUL>
0

>  <SCORE.INTRA.REPUL.0>
0

>  <SCORE.INTRA.SOLV>
-0.0100282

>  <SCORE.INTRA.SOLV.lig_0>
-110.958

>  <SCORE.INTRA.VDW>
0.379609

>  <SCORE.INTRA.VDW.0>
-2.34644

>  <SCORE.INTRA.norm>
0.00891304

>  <SCORE.RESTR>
0

>  <SCORE.RESTR.CAVITY>
0

>  <SCORE.RESTR.norm>
0

>  <SCORE.SYSTEM>
0

>  <SCORE.SYSTEM.CONST>
0

>  <SCORE.SYSTEM.DIHEDRAL>
0

>  <SCORE.SYSTEM.SOLV>
0

>  <SCORE.SYSTEM.norm>
0

>  <SCORE.heavy>
42

>  <SCORE.norm>
-0.853709

>  <RMSD>
0.836

$$$$
ligand
 OpenBabel11021811513D
libRbt.so/2013.1/901 2013/11/27
 42 48  0  0  0  0  0  0  0  0999 V2000
    3.8231  -34.4026  -13.4249 P   0  0  2  0  0  0  0  0  0  0  0  0
    7.5712  -35.4500  -16.6450 P   0  0  1  0  0  0  0  0  0  0  0  0
    3.3145  -35.5006  -12.5201 O   0  5  0  0  0  0  0  0  0  0  0  0
    7.0745  -34.1288  -17.1816 O   0  5  0  0  0  0  0  0  0  0  0  0
    3.0115  -33.1427  -13.6095 O   0  0  0  0  0  0  0  0  0  0  0  0
    8.8824  -36.0172  -17.1333 O   0  0  0  0  0  0  0  0  0  0  0  0
    3.2945  -36.1009  -15.3726 C   0  0  0  0  0  0  0  0  0  0  0  0
    8.4565  -34.3769  -14.4049 C   0  0  0  0  0  0  0  0  0  0  0  0
    4.1058  -35.0374  -14.8769 O   0  0  0  0  0  0  0  0  0  0  0  0
    7.6313  -35.3513  -15.0390 O   0  0  0  0  0  0  0  0  0  0  0  0
    4.1249  -36.9852  -16.2952 C   0  0  1  0  0  0  0  0  0  0  0  0
    7.6444  -33.6227  -13.3595 C   0  0  1  0  0  0  0  0  0  0  0  0
    3.2615  -37.6994  -17.1840 O   0  0  0  0  0  0  0  0  0  0  0  0
    8.2418  -32.3477  -13.1122 O   0  0  0  0  0  0  0  0  0  0  0  0
    5.0797  -36.1577  -17.1389 C   0  0  1  0  0  0  0  0  0  0  0  0
    6.2197  -33.3841  -13.8339 C   0  0  1  0  0  0  0  0  0  0  0  0
    6.4242  -36.5545  -16.8867 O   0  0  0  0  0  0  0  0  0  0  0  0
    5.2970  -33.9854  -12.9306 O   0  0  0  0  0  0  0  0  0  0  0  0
    4.7199  -36.4313  -18.5875 C   0  0  0  0  0  0  0  0  0  0  0  0
    6.0207  -31.8809  -13.8566 C   0  0  0  0  0  0  0  0  0  0  0  0
    3.5586  -37.4136  -18.5535 C   0  0  2  0  0  0  0  0  0  0  0  0
    7.3379  -31.2759  -13.3920 C   0  0  2  0  0  0  0  0  0  0  0  0
    0.2279  -33.3549  -18.6648 N   0  0  0  0  0  0  0  0  0  0  0  0
    1.2829  -33.5899  -17.8629 C   0  0  0  0  0  0  0  0  0  0  0  0
    2.0572  -34.6873  -17.9486 N   0  0  0  0  0  0  0  0  0  0  0  0
    1.8085  -35.6430  -18.8758 C   0  0  0  0  0  0  0  0  0  0  0  0
    0.6713  -35.4584  -19.7909 C   0  0  0  0  0  0  0  0  0  0  0  0
   -0.1349  -34.2245  -19.6341 C   0  0  0  0  0  0  0  0  0  0  0  0
   -1.1986  -33.9763  -20.4357 N   0  0  0  0  0  0  0  0  0  0  0  0
    0.6491  -36.5358  -20.5978 N   0  0  0  0  0  0  0  0  0  0  0  0
    1.6802  -37.3399  -20.2326 C   0  0  0  0  0  0  0  0  0  0  0  0
    2.3715  -36.8078  -19.2064 N   0  0  0  0  0  0  0  0  0  0  0  0
    9.9208  -26.8512  -14.5424 N   0  0  0  0  0  0  0  0  0  0  0  0
    9.5531  -27.3562  -13.3502 C   0  0  0  0  0  0  0  0  0  0  0  0
    8.8869  -28.5155  -13.2029 N   0  0  0  0  0  0  0  0  0  0  0  0
    8.5404  -29.2590  -14.2815 C   0  0  0  0  0  0  0  0  0  0  0  0
    8.9076  -28.7733  -15.6206 C   0  0  0  0  0  0  0  0  0  0  0  0
    9.6408  -27.4879  -15.7000 C   0  0  0  0  0  0  0  0  0  0  0  0
   10.0173  -26.9692  -16.8947 N   0  0  0  0  0  0  0  0  0  0  0  0
    8.4520  -29.6869  -16.4985 N   0  0  0  0  0  0  0  0  0  0  0  0
    7.8463  -30.6704  -15.7844 C   0  0  0  0  0  0  0  0  0  0  0  0
    7.8987  -30.4155  -14.4641 N   0  0  0  0  0  0  0  0  0  0  0  0
  1  3  1  1  0  0  0
  1  5  2  0  0  0  0
  1  9  1  0  0  0  0
  1 18  1  0  0  0  0
  2  4  1  6  0  0  0
  2  6  2  0  0  0  0
  2 10  1  0  0  0  0
  2 17  1  0  0  0  0
  7  9  1  0  0  0  0
  8 10  1  0  0  0  0
 11  7  1  1  0  0  0
 11 13  1  0  0  0  0
 11 15  1  0  0  0  0
 12  8  1  6  0  0  0
 12 14  1  0  0  0  0
 12 16  1  0  0  0  0
 13 21  1  0  0  0  0
 14 22  1  0  0  0  0
 15 17  1  6  0  0  0
 15 19  1  0  0  0  0
 16 18  1  1  0  0  0
 16 20  1  0  0  0  0
 19 21  1  0  0  0  0
 20 22  1  0  0  0  0
 21 32  1  1  0  0  0
 22 42  1  6  0  0  0
 23 24  2  0  0  0  0
 23 28  1  0  0  0  0
 24 25  1  0  0  0  0
 25 26  2  0  0  0  0
 26 27  1  0  0  0  0
 26 32  1  0  0  0  0
 27 28  2  0  0  0  0
 27 30  1  0  0  0  0
 28 29  1  0  0  0  0
 30 31  2  0  0  0  0
 31 32  1  0  0  0  0
 33 34  2  0  0  0  0
 33 38  1  0  0  0  0
 34 35  1  0  0  0  0
 35 36  2  0  0  0  0
 36 37  1  0  0  0  0
 36 42  1  0  0  0  0
 37 38  2  0  0  0  0
 37 40  1  0  0  0  0
 38 39  1  0  0  0  0
 40 41  2  0  0  0  0
 41 42  1  0  0  0  0
M  CHG  2   3  -1   4  -1
M  END
>  <CHROM.1>
62.98138625,-99.16500935,5.37831507,-33.61421109,-16.04286989,-2.64944843
-0.69779438,-0.31948054

>  <Name>
ligand

>  <RI>
0

>  <Rbt.Current_Directory>
/home/itssahil/PROJECTS/Mol_Feturizer/New_Systems/rnas/4QLN

>  <Rbt.Executable>
rbdock ($Id: //depot/dev/client3/rdock/2013.1/src/exe/rbdock.cxx#4 $)

>  <Rbt.Library>
libRbt.so (2013.1, Build901 2013/11/27)

>  <Rbt.Parameter_File>
/export/apps/rDock/src/rDock_2013.1_src/data/scripts/dock_solv.prm

>  <Rbt.Receptor>
prm/pocket_docking_7.prm

>  <SCORE>
-35.8634

>  <SCORE.INTER>
-36.2106

>  <SCORE.INTER.CONST>
1

>  <SCORE.INTER.POLAR>
0

>  <SCORE.INTER.ROT>
2

>  <SCORE.INTER.SOLV>
33.5168

>  <SCORE.INTER.VDW>
-40.246

>  <SCORE.INTER.norm>
-0.862158

>  <SCORE.INTRA>
0.347262

>  <SCORE.INTRA.DIHEDRAL>
-0.000477241

>  <SCORE.INTRA.DIHEDRAL.0>
2.39985

>  <SCORE.INTRA.POLAR>
0

>  <SCORE.INTRA.POLAR.0>
0

>  <SCORE.INTRA.REPUL>
0

>  <SCORE.INTRA.REPUL.0>
0

>  <SCORE.INTRA.SOLV>
-0.00913154

>  <SCORE.INTRA.SOLV.lig_0>
-110.958

>  <SCORE.INTRA.VDW>
0.352066

>  <SCORE.INTRA.VDW.0>
-2.34644

>  <SCORE.INTRA.norm>
0.00826814

>  <SCORE.RESTR>
0

>  <SCORE.RESTR.CAVITY>
0

>  <SCORE.RESTR.norm>
0

>  <SCORE.SYSTEM>
0

>  <SCORE.SYSTEM.CONST>
0

>  <SCORE.SYSTEM.DIHEDRAL>
0

>  <SCORE.SYSTEM.SOLV>
0

>  <SCORE.SYSTEM.norm>
0

>  <SCORE.heavy>
42

>  <SCORE.norm>
-0.853889

>  <RMSD>
0.836

$$$$
ligand
 OpenBabel11021811513D
libRbt.so/2013.1/901 2013/11/27
 42 48  0  0  0  0  0  0  0  0999 V2000
    3.8453  -34.3960  -13.4327 P   0  0  2  0  0  0  0  0  0  0  0  0
    7.5854  -35.4124  -16.6719 P   0  0  1  0  0  0  0  0  0  0  0  0
    3.3417  -35.5016  -12.5343 O   0  5  0  0  0  0  0  0  0  0  0  0
    7.0845  -34.0882  -17.1973 O   0  5  0  0  0  0  0  0  0  0  0  0
    3.0308  -33.1363  -13.6054 O   0  0  0  0  0  0  0  0  0  0  0  0
    8.8961  -35.9735  -17.1685 O   0  0  0  0  0  0  0  0  0  0  0  0
    3.3139  -36.0809  -15.3911 C   0  0  0  0  0  0  0  0  0  0  0  0
    8.4755  -34.3541  -14.4268 C   0  0  0  0  0  0  0  0  0  0  0  0
    4.1247  -35.0195  -14.8901 O   0  0  0  0  0  0  0  0  0  0  0  0
    7.6503  -35.3255  -15.0655 O   0  0  0  0  0  0  0  0  0  0  0  0
    4.1430  -36.9568  -16.3228 C   0  0  1  0  0  0  0  0  0  0  0  0
    7.6653  -33.6092  -13.3733 C   0  0  1  0  0  0  0  0  0  0  0  0
    3.2783  -37.6661  -17.2142 O   0  0  0  0  0  0  0  0  0  0  0  0
    8.2610  -32.3349  -13.1185 O   0  0  0  0  0  0  0  0  0  0  0  0
    5.0936  -36.1213  -17.1634 C   0  0  1  0  0  0  0  0  0  0  0  0
    6.2387  -33.3699  -13.8416 C   0  0  1  0  0  0  0  0  0  0  0  0
    6.4397  -36.5173  -16.9182 O   0  0  0  0  0  0  0  0  0  0  0  0
    5.3199  -33.9796  -12.9398 O   0  0  0  0  0  0  0  0  0  0  0  0
    4.7299  -36.3848  -18.6128 C   0  0  0  0  0  0  0  0  0  0  0  0
    6.0368  -31.8669  -13.8526 C   0  0  0  0  0  0  0  0  0  0  0  0
    3.5705  -37.3696  -18.5824 C   0  0  2  0  0  0  0  0  0  0  0  0
    7.3542  -31.2628  -13.3876 C   0  0  2  0  0  0  0  0  0  0  0  0
    0.2162  -33.3293  -18.6366 N   0  0  0  0  0  0  0  0  0  0  0  0
    1.2721  -33.5698  -17.8376 C   0  0  0  0  0  0  0  0  0  0  0  0
    2.0529  -34.6613  -17.9387 N   0  0  0  0  0  0  0  0  0  0  0  0
    1.8103  -35.6048  -18.8799 C   0  0  0  0  0  0  0  0  0  0  0  0
    0.6725  -35.4135  -19.7930 C   0  0  0  0  0  0  0  0  0  0  0  0
   -0.1410  -34.1868  -19.6187 C   0  0  0  0  0  0  0  0  0  0  0  0
   -1.2057  -33.9332  -20.4173 N   0  0  0  0  0  0  0  0  0  0  0  0
    0.6571  -36.4791  -20.6155 N   0  0  0  0  0  0  0  0  0  0  0  0
    1.6927  -37.2824  -20.2615 C   0  0  0  0  0  0  0  0  0  0  0  0
    2.3803  -36.7613  -19.2271 N   0  0  0  0  0  0  0  0  0  0  0  0
    9.9062  -26.8143  -14.5146 N   0  0  0  0  0  0  0  0  0  0  0  0
    9.5408  -27.3274  -13.3252 C   0  0  0  0  0  0  0  0  0  0  0  0
    8.8828  -28.4922  -13.1840 N   0  0  0  0  0  0  0  0  0  0  0  0
    8.5431  -29.2332  -14.2664 C   0  0  0  0  0  0  0  0  0  0  0  0
    8.9084  -28.7387  -15.6028 C   0  0  0  0  0  0  0  0  0  0  0  0
    9.6323  -27.4476  -15.6754 C   0  0  0  0  0  0  0  0  0  0  0  0
   10.0065  -26.9208  -16.8673 N   0  0  0  0  0  0  0  0  0  0  0  0
    8.4605  -29.6516  -16.4854 N   0  0  0  0  0  0  0  0  0  0  0  0
    7.8611  -30.6427  -15.7766 C   0  0  0  0  0  0  0  0  0  0  0  0
    7.9101  -30.3935  -14.4551 N   0  0  0  0  0  0  0  0  0  0  0  0
  1  3  1  1  0  0  0
  1  5  2  0  0  0  0
  1  9  1  0  0  0  0
  1 18  1  0  0  0  0
  2  4  1  6  0  0  0
  2  6  2  0  0  0  0
  2 10  1  0  0  0  0
  2 17  1  0  0  0  0
  7  9  1  0  0  0  0
  8 10  1  0  0  0  0
 11  7  1  1  0  0  0
 11 13  1  0  0  0  0
 11 15  1  0  0  0  0
 12  8  1  6  0  0  0
 12 14  1  0  0  0  0
 12 16  1  0  0  0  0
 13 21  1  0  0  0  0
 14 22  1  0  0  0  0
 15 17  1  6  0  0  0
 15 19  1  0  0  0  0
 16 18  1  1  0  0  0
 16 20  1  0  0  0  0
 19 21  1  0  0  0  0
 20 22  1  0  0  0  0
 21 32  1  1  0  0  0
 22 42  1  6  0  0  0
 23 24  2  0  0  0  0
 23 28  1  0  0  0  0
 24 25  1  0  0  0  0
 25 26  2  0  0  0  0
 26 27  1  0  0  0  0
 26 32  1  0  0  0  0
 27 28  2  0  0  0  0
 27 30  1  0  0  0  0
 28 29  1  0  0  0  0
 30 31  2  0  0  0  0
 31 32  1  0  0  0  0
 33 34  2  0  0  0  0
 33 38  1  0  0  0  0
 34 35  1  0  0  0  0
 35 36  2  0  0  0  0
 36 37  1  0  0  0  0
 36 42  1  0  0  0  0
 37 38  2  0  0  0  0
 37 40  1  0  0  0  0
 38 39  1  0  0  0  0
 40 41  2  0  0  0  0
 41 42  1  0  0  0  0
M  CHG  2   3  -1   4  -1
M  END
>  <CHROM.1>
62.46428719,-99.59206148,5.38803506,-33.58549925,-16.04824161,-2.64153333
-0.69319641,-0.30430375

>  <Name>
ligand

>  <RI>
0

>  <Rbt.Current_Directory>
/home/itssahil/PROJECTS/Mol_Feturizer/New_Systems/rnas/4QLN

>  <Rbt.Executable>
rbdock ($Id: //depot/dev/client3/rdock/2013.1/src/exe/rbdock.cxx#4 $)

>  <Rbt.Library>
libRbt.so (2013.1, Build901 2013/11/27)

>  <Rbt.Parameter_File>
/export/apps/rDock/src/rDock_2013.1_src/data/scripts/dock_solv.prm

>  <Rbt.Receptor>
prm/pocket_docking_4.prm

>  <SCORE>
-35.8832

>  <SCORE.INTER>
-36.2128

>  <SCORE.INTER.CONST>
1

>  <SCORE.INTER.POLAR>
0

>  <SCORE.INTER.ROT>
2

>  <SCORE.INTER.SOLV>
33.4999

>  <SCORE.INTER.VDW>
-40.2418

>  <SCORE.INTER.norm>
-0.862209

>  <SCORE.INTRA>
0.329622

>  <SCORE.INTRA.DIHEDRAL>
-0.000476309

>  <SCORE.INTRA.DIHEDRAL.0>
2.39985

>  <SCORE.INTRA.POLAR>
0

>  <SCORE.INTRA.POLAR.0>
0

>  <SCORE.INTRA.REPUL>
0

>  <SCORE.INTRA.REPUL.0>
0

>  <SCORE.INTRA.SOLV>
-0.00837143

>  <SCORE.INTRA.SOLV.lig_0>
-110.958

>  <SCORE.INTRA.VDW>
0.334045

>  <SCORE.INTRA.VDW.0>
-2.34644

>  <SCORE.INTRA.norm>
0.00784813

>  <SCORE.RESTR>
0

>  <SCORE.RESTR.CAVITY>
0

>  <SCORE.RESTR.norm>
0

>  <SCORE.SYSTEM>
0

>  <SCORE.SYSTEM.CONST>
0

>  <SCORE.SYSTEM.DIHEDRAL>
0

>  <SCORE.SYSTEM.SOLV>
0

>  <SCORE.SYSTEM.norm>
0

>  <SCORE.heavy>
42

>  <SCORE.norm>
-0.854361

>  <RMSD>
0.837

$$$$
ligand
 OpenBabel11021811513D
libRbt.so/2013.1/901 2013/11/27
 42 48  0  0  0  0  0  0  0  0999 V2000
    3.7750  -34.3955  -13.3968 P   0  0  2  0  0  0  0  0  0  0  0  0
    7.5317  -35.4816  -16.5939 P   0  0  1  0  0  0  0  0  0  0  0  0
    3.2575  -35.4851  -12.4869 O   0  5  0  0  0  0  0  0  0  0  0  0
    7.0435  -34.1616  -17.1414 O   0  5  0  0  0  0  0  0  0  0  0  0
    2.9702  -33.1331  -13.5930 O   0  0  0  0  0  0  0  0  0  0  0  0
    8.8423  -36.0580  -17.0730 O   0  0  0  0  0  0  0  0  0  0  0  0
    3.2467  -36.1041  -15.3355 C   0  0  0  0  0  0  0  0  0  0  0  0
    8.4125  -34.3978  -14.3572 C   0  0  0  0  0  0  0  0  0  0  0  0
    4.0608  -35.0412  -14.8433 O   0  0  0  0  0  0  0  0  0  0  0  0
    7.5855  -35.3726  -14.9884 O   0  0  0  0  0  0  0  0  0  0  0  0
    4.0768  -36.9984  -16.2487 C   0  0  1  0  0  0  0  0  0  0  0  0
    7.5996  -33.6330  -13.3202 C   0  0  1  0  0  0  0  0  0  0  0  0
    3.2138  -37.7144  -17.1365 O   0  0  0  0  0  0  0  0  0  0  0  0
    8.2019  -32.3592  -13.0788 O   0  0  0  0  0  0  0  0  0  0  0  0
    5.0390  -36.1809  -17.0938 C   0  0  1  0  0  0  0  0  0  0  0  0
    6.1781  -33.3909  -13.8023 C   0  0  1  0  0  0  0  0  0  0  0  0
    6.3806  -36.5823  -16.8332 O   0  0  0  0  0  0  0  0  0  0  0  0
    5.2487  -33.9819  -12.8989 O   0  0  0  0  0  0  0  0  0  0  0  0
    4.6841  -36.4623  -18.5420 C   0  0  0  0  0  0  0  0  0  0  0  0
    5.9862  -31.8870  -13.8357 C   0  0  0  0  0  0  0  0  0  0  0  0
    3.5180  -37.4390  -18.5065 C   0  0  2  0  0  0  0  0  0  0  0  0
    7.3042  -31.2851  -13.3695 C   0  0  2  0  0  0  0  0  0  0  0  0
    0.1424  -33.4169  -18.5906 N   0  0  0  0  0  0  0  0  0  0  0  0
    1.1847  -33.6581  -17.7740 C   0  0  0  0  0  0  0  0  0  0  0  0
    1.9733  -34.7444  -17.8694 N   0  0  0  0  0  0  0  0  0  0  0  0
    1.7537  -35.6815  -18.8226 C   0  0  0  0  0  0  0  0  0  0  0  0
    0.6320  -35.4890  -19.7551 C   0  0  0  0  0  0  0  0  0  0  0  0
   -0.1915  -34.2682  -19.5862 C   0  0  0  0  0  0  0  0  0  0  0  0
   -1.2426  -34.0139  -20.4024 N   0  0  0  0  0  0  0  0  0  0  0  0
    0.6379  -36.5479  -20.5864 N   0  0  0  0  0  0  0  0  0  0  0  0
    1.6713  -37.3484  -20.2196 C   0  0  0  0  0  0  0  0  0  0  0  0
    2.3366  -36.8320  -19.1684 N   0  0  0  0  0  0  0  0  0  0  0  0
    9.9278  -26.8888  -14.5368 N   0  0  0  0  0  0  0  0  0  0  0  0
    9.5547  -27.3854  -13.3427 C   0  0  0  0  0  0  0  0  0  0  0  0
    8.8779  -28.5380  -13.1910 N   0  0  0  0  0  0  0  0  0  0  0  0
    8.5256  -29.2829  -14.2666 C   0  0  0  0  0  0  0  0  0  0  0  0
    8.8982  -28.8064  -15.6076 C   0  0  0  0  0  0  0  0  0  0  0  0
    9.6430  -27.5279  -15.6918 C   0  0  0  0  0  0  0  0  0  0  0  0
   10.0250  -27.0178  -16.8885 N   0  0  0  0  0  0  0  0  0  0  0  0
    8.4350  -29.7196  -16.4818 N   0  0  0  0  0  0  0  0  0  0  0  0
    7.8199  -30.6944  -15.7641 C   0  0  0  0  0  0  0  0  0  0  0  0
    7.8736  -30.4344  -14.4448 N   0  0  0  0  0  0  0  0  0  0  0  0
  1  3  1  1  0  0  0
  1  5  2  0  0  0  0
  1  9  1  0  0  0  0
  1 18  1  0  0  0  0
  2  4  1  6  0  0  0
  2  6  2  0  0  0  0
  2 10  1  0  0  0  0
  2 17  1  0  0  0  0
  7  9  1  0  0  0  0
  8 10  1  0  0  0  0
 11  7  1  1  0  0  0
 11 13  1  0  0  0  0
 11 15  1  0  0  0  0
 12  8  1  6  0  0  0
 12 14  1  0  0  0  0
 12 16  1  0  0  0  0
 13 21  1  0  0  0  0
 14 22  1  0  0  0  0
 15 17  1  6  0  0  0
 15 19  1  0  0  0  0
 16 18  1  1  0  0  0
 16 20  1  0  0  0  0
 19 21  1  0  0  0  0
 20 22  1  0  0  0  0
 21 32  1  1  0  0  0
 22 42  1  6  0  0  0
 23 24  2  0  0  0  0
 23 28  1  0  0  0  0
 24 25  1  0  0  0  0
 25 26  2  0  0  0  0
 26 27  1  0  0  0  0
 26 32  1  0  0  0  0
 27 28  2  0  0  0  0
 27 30  1  0  0  0  0
 28 29  1  0  0  0  0
 30 31  2  0  0  0  0
 31 32  1  0  0  0  0
 33 34  2  0  0  0  0
 33 38  1  0  0  0  0
 34 35  1  0  0  0  0
 35 36  2  0  0  0  0
 36 37  1  0  0  0  0
 36 42  1  0  0  0  0
 37 38  2  0  0  0  0
 37 40  1  0  0  0  0
 38 39  1  0  0  0  0
 40 41  2  0  0  0  0
 41 42  1  0  0  0  0
M  CHG  2   3  -1   4  -1
M  END
>  <CHROM.1>
60.87951041,-98.82120962,5.34087950,-33.63657009,-16.00753866,-2.65124719
-0.69355004,-0.32182790

>  <Name>
ligand

>  <RI>
0

>  <Rbt.Current_Directory>
/home/itssahil/PROJECTS/Mol_Feturizer/New_Systems/rnas/4QLN

>  <Rbt.Executable>
rbdock ($Id: //depot/dev/client3/rdock/2013.1/src/exe/rbdock.cxx#4 $)

>  <Rbt.Library>
libRbt.so (2013.1, Build901 2013/11/27)

>  <Rbt.Parameter_File>
/export/apps/rDock/src/rDock_2013.1_src/data/scripts/dock_solv.prm

>  <Rbt.Receptor>
prm/pocket_docking_8.prm

>  <SCORE>
-35.7776

>  <SCORE.INTER>
-36.1052

>  <SCORE.INTER.CONST>
1

>  <SCORE.INTER.POLAR>
0

>  <SCORE.INTER.ROT>
2

>  <SCORE.INTER.SOLV>
33.3421

>  <SCORE.INTER.VDW>
-40.1175

>  <SCORE.INTER.norm>
-0.859647

>  <SCORE.INTRA>
0.327601

>  <SCORE.INTRA.DIHEDRAL>
-0.000512026

>  <SCORE.INTRA.DIHEDRAL.0>
2.39985

>  <SCORE.INTRA.POLAR>
0

>  <SCORE.INTRA.POLAR.0>
0

>  <SCORE.INTRA.REPUL>
0

>  <SCORE.INTRA.REPUL.0>
0

>  <SCORE.INTRA.SOLV>
-0.00739852

>  <SCORE.INTRA.SOLV.lig_0>
-110.958

>  <SCORE.INTRA.VDW>
0.331556

>  <SCORE.INTRA.VDW.0>
-2.34644

>  <SCORE.INTRA.norm>
0.00780003

>  <SCORE.RESTR>
0

>  <SCORE.RESTR.CAVITY>
0

>  <SCORE.RESTR.norm>
0

>  <SCORE.SYSTEM>
0

>  <SCORE.SYSTEM.CONST>
0

>  <SCORE.SYSTEM.DIHEDRAL>
0

>  <SCORE.SYSTEM.SOLV>
0

>  <SCORE.SYSTEM.norm>
0

>  <SCORE.heavy>
42

>  <SCORE.norm>
-0.851847

>  <RMSD>
0.837

$$$$
ligand
 OpenBabel11021811513D
libRbt.so/2013.1/901 2013/11/27
 42 48  0  0  0  0  0  0  0  0999 V2000
    3.7338  -34.4096  -13.3754 P   0  0  2  0  0  0  0  0  0  0  0  0
    7.5165  -35.4919  -16.5431 P   0  0  1  0  0  0  0  0  0  0  0  0
    3.2104  -35.4997  -12.4695 O   0  5  0  0  0  0  0  0  0  0  0  0
    7.0310  -34.1725  -17.0945 O   0  5  0  0  0  0  0  0  0  0  0  0
    2.9291  -33.1481  -13.5781 O   0  0  0  0  0  0  0  0  0  0  0  0
    8.8314  -36.0670  -17.0119 O   0  0  0  0  0  0  0  0  0  0  0  0
    3.2225  -36.1190  -15.3180 C   0  0  0  0  0  0  0  0  0  0  0  0
    8.3787  -34.4070  -14.2997 C   0  0  0  0  0  0  0  0  0  0  0  0
    4.0316  -35.0551  -14.8196 O   0  0  0  0  0  0  0  0  0  0  0  0
    7.5576  -35.3827  -14.9372 O   0  0  0  0  0  0  0  0  0  0  0  0
    4.0606  -37.0125  -16.2246 C   0  0  1  0  0  0  0  0  0  0  0  0
    7.5569  -33.6430  -13.2692 C   0  0  1  0  0  0  0  0  0  0  0  0
    3.2054  -37.7295  -17.1190 O   0  0  0  0  0  0  0  0  0  0  0  0
    8.1559  -32.3684  -13.0232 O   0  0  0  0  0  0  0  0  0  0  0  0
    5.0285  -36.1940  -17.0623 C   0  0  1  0  0  0  0  0  0  0  0  0
    6.1389  -33.4024  -13.7623 C   0  0  1  0  0  0  0  0  0  0  0  0
    6.3684  -36.5939  -16.7913 O   0  0  0  0  0  0  0  0  0  0  0  0
    5.2032  -33.9944  -12.8662 O   0  0  0  0  0  0  0  0  0  0  0  0
    4.6851  -36.4760  -18.5132 C   0  0  0  0  0  0  0  0  0  0  0  0
    5.9456  -31.8987  -13.7974 C   0  0  0  0  0  0  0  0  0  0  0  0
    3.5199  -37.4539  -18.4866 C   0  0  2  0  0  0  0  0  0  0  0  0
    7.2593  -31.2953  -13.3211 C   0  0  2  0  0  0  0  0  0  0  0  0
    0.1835  -33.4013  -18.6417 N   0  0  0  0  0  0  0  0  0  0  0  0
    1.2251  -33.6369  -17.8227 C   0  0  0  0  0  0  0  0  0  0  0  0
    2.0030  -34.7325  -17.8986 N   0  0  0  0  0  0  0  0  0  0  0  0
    1.7721  -35.6856  -18.8331 C   0  0  0  0  0  0  0  0  0  0  0  0
    0.6503  -35.5002  -19.7670 C   0  0  0  0  0  0  0  0  0  0  0  0
   -0.1609  -34.2685  -19.6200 C   0  0  0  0  0  0  0  0  0  0  0  0
   -1.2113  -34.0197  -20.4388 N   0  0  0  0  0  0  0  0  0  0  0  0
    0.6441  -36.5750  -20.5776 N   0  0  0  0  0  0  0  0  0  0  0  0
    1.6704  -37.3783  -20.1975 C   0  0  0  0  0  0  0  0  0  0  0  0
    2.3430  -36.8483  -19.1578 N   0  0  0  0  0  0  0  0  0  0  0  0
    9.9557  -26.9368  -14.4636 N   0  0  0  0  0  0  0  0  0  0  0  0
    9.5827  -27.4389  -13.2718 C   0  0  0  0  0  0  0  0  0  0  0  0
    8.8856  -28.5802  -13.1267 N   0  0  0  0  0  0  0  0  0  0  0  0
    8.5110  -29.3070  -14.2071 C   0  0  0  0  0  0  0  0  0  0  0  0
    8.8819  -28.8233  -15.5460 C   0  0  0  0  0  0  0  0  0  0  0  0
    9.6499  -27.5582  -15.6229 C   0  0  0  0  0  0  0  0  0  0  0  0
   10.0320  -27.0428  -16.8172 N   0  0  0  0  0  0  0  0  0  0  0  0
    8.3948  -29.7185  -16.4259 N   0  0  0  0  0  0  0  0  0  0  0  0
    7.7671  -30.6892  -15.7134 C   0  0  0  0  0  0  0  0  0  0  0  0
    7.8361  -30.4441  -14.3920 N   0  0  0  0  0  0  0  0  0  0  0  0
  1  3  1  1  0  0  0
  1  5  2  0  0  0  0
  1  9  1  0  0  0  0
  1 18  1  0  0  0  0
  2  4  1  6  0  0  0
  2  6  2  0  0  0  0
  2 10  1  0  0  0  0
  2 17  1  0  0  0  0
  7  9  1  0  0  0  0
  8 10  1  0  0  0  0
 11  7  1  1  0  0  0
 11 13  1  0  0  0  0
 11 15  1  0  0  0  0
 12  8  1  6  0  0  0
 12 14  1  0  0  0  0
 12 16  1  0  0  0  0
 13 21  1  0  0  0  0
 14 22  1  0  0  0  0
 15 17  1  6  0  0  0
 15 19  1  0  0  0  0
 16 18  1  1  0  0  0
 16 20  1  0  0  0  0
 19 21  1  0  0  0  0
 20 22  1  0  0  0  0
 21 32  1  1  0  0  0
 22 42  1  6  0  0  0
 23 24  2  0  0  0  0
 23 28  1  0  0  0  0
 24 25  1  0  0  0  0
 25 26  2  0  0  0  0
 26 27  1  0  0  0  0
 26 32  1  0  0  0  0
 27 28  2  0  0  0  0
 27 30  1  0  0  0  0
 28 29  1  0  0  0  0
 30 31  2  0  0  0  0
 31 32  1  0  0  0  0
 33 34  2  0  0  0  0
 33 38  1  0  0  0  0
 34 35  1  0  0  0  0
 35 36  2  0  0  0  0
 36 37  1  0  0  0  0
 36 42  1  0  0  0  0
 37 38  2  0  0  0  0
 37 40  1  0  0  0  0
 38 39  1  0  0  0  0
 40 41  2  0  0  0  0
 41 42  1  0  0  0  0
M  CHG  2   3  -1   4  -1
M  END
>  <CHROM.1>
62.26569293,-97.25011203,5.32827274,-33.64975927,-15.97725630,-2.66734282
-0.70745194,-0.34084701

>  <Name>
ligand

>  <RI>
0

>  <Rbt.Current_Directory>
/home/itssahil/PROJECTS/Mol_Feturizer/New_Systems/rnas/4QLN

>  <Rbt.Executable>
rbdock ($Id: //depot/dev/client3/rdock/2013.1/src/exe/rbdock.cxx#4 $)

>  <Rbt.Library>
libRbt.so (2013.1, Build901 2013/11/27)

>  <Rbt.Parameter_File>
/export/apps/rDock/src/rDock_2013.1_src/data/scripts/dock_solv.prm

>  <Rbt.Receptor>
prm/pocket_docking_2.prm

>  <SCORE>
-35.8027

>  <SCORE.INTER>
-36.1841

>  <SCORE.INTER.CONST>
1

>  <SCORE.INTER.POLAR>
0

>  <SCORE.INTER.ROT>
2

>  <SCORE.INTER.SOLV>
33.2289

>  <SCORE.INTER.VDW>
-40.1324

>  <SCORE.INTER.norm>
-0.861526

>  <SCORE.INTRA>
0.381422

>  <SCORE.INTRA.DIHEDRAL>
-0.000518417

>  <SCORE.INTRA.DIHEDRAL.0>
2.39985

>  <SCORE.INTRA.POLAR>
0

>  <SCORE.INTRA.POLAR.0>
0

>  <SCORE.INTRA.REPUL>
0

>  <SCORE.INTRA.REPUL.0>
0

>  <SCORE.INTRA.SOLV>
-0.00993666

>  <SCORE.INTRA.SOLV.lig_0>
-110.958

>  <SCORE.INTRA.VDW>
0.38665

>  <SCORE.INTRA.VDW.0>
-2.34644

>  <SCORE.INTRA.norm>
0.00908149

>  <SCORE.RESTR>
0

>  <SCORE.RESTR.CAVITY>
0

>  <SCORE.RESTR.norm>
0

>  <SCORE.SYSTEM>
0

>  <SCORE.SYSTEM.CONST>
0

>  <SCORE.SYSTEM.DIHEDRAL>
0

>  <SCORE.SYSTEM.SOLV>
0

>  <SCORE.SYSTEM.norm>
0

>  <SCORE.heavy>
42

>  <SCORE.norm>
-0.852445

>  <RMSD>
0.838

$$$$
ligand
 OpenBabel11021811513D
libRbt.so/2013.1/901 2013/11/27
 42 48  0  0  0  0  0  0  0  0999 V2000
    3.7398  -34.4118  -13.3682 P   0  0  2  0  0  0  0  0  0  0  0  0
    7.5121  -35.4807  -16.5528 P   0  0  1  0  0  0  0  0  0  0  0  0
    3.2219  -35.5047  -12.4625 O   0  5  0  0  0  0  0  0  0  0  0  0
    7.0221  -34.1611  -17.0995 O   0  5  0  0  0  0  0  0  0  0  0  0
    2.9321  -33.1513  -13.5651 O   0  0  0  0  0  0  0  0  0  0  0  0
    8.8262  -36.0524  -17.0278 O   0  0  0  0  0  0  0  0  0  0  0  0
    3.2240  -36.1181  -15.3123 C   0  0  0  0  0  0  0  0  0  0  0  0
    8.3810  -34.3988  -14.3105 C   0  0  0  0  0  0  0  0  0  0  0  0
    4.0331  -35.0538  -14.8149 O   0  0  0  0  0  0  0  0  0  0  0  0
    7.5593  -35.3747  -14.9468 O   0  0  0  0  0  0  0  0  0  0  0  0
    4.0602  -37.0082  -16.2240 C   0  0  1  0  0  0  0  0  0  0  0  0
    7.5618  -33.6384  -13.2752 C   0  0  1  0  0  0  0  0  0  0  0  0
    3.2028  -37.7249  -17.1166 O   0  0  0  0  0  0  0  0  0  0  0  0
    8.1595  -32.3633  -13.0289 O   0  0  0  0  0  0  0  0  0  0  0  0
    5.0234  -36.1862  -17.0638 C   0  0  1  0  0  0  0  0  0  0  0  0
    6.1416  -33.3994  -13.7624 C   0  0  1  0  0  0  0  0  0  0  0  0
    6.3651  -36.5842  -16.7987 O   0  0  0  0  0  0  0  0  0  0  0  0
    5.2104  -33.9949  -12.8638 O   0  0  0  0  0  0  0  0  0  0  0  0
    4.6749  -36.4658  -18.5139 C   0  0  0  0  0  0  0  0  0  0  0  0
    5.9454  -31.8960  -13.7936 C   0  0  0  0  0  0  0  0  0  0  0  0
    3.5115  -37.4459  -18.4849 C   0  0  2  0  0  0  0  0  0  0  0  0
    7.2598  -31.2912  -13.3211 C   0  0  2  0  0  0  0  0  0  0  0  0
    0.1766  -33.3918  -18.6285 N   0  0  0  0  0  0  0  0  0  0  0  0
    1.2230  -33.6262  -17.8152 C   0  0  0  0  0  0  0  0  0  0  0  0
    1.9997  -34.7224  -17.8935 N   0  0  0  0  0  0  0  0  0  0  0  0
    1.7627  -35.6774  -18.8245 C   0  0  0  0  0  0  0  0  0  0  0  0
    0.6354  -35.4933  -19.7520 C   0  0  0  0  0  0  0  0  0  0  0  0
   -0.1742  -34.2608  -19.6028 C   0  0  0  0  0  0  0  0  0  0  0  0
   -1.2293  -34.0131  -20.4158 N   0  0  0  0  0  0  0  0  0  0  0  0
    0.6237  -36.5698  -20.5603 N   0  0  0  0  0  0  0  0  0  0  0  0
    1.6518  -37.3729  -20.1846 C   0  0  0  0  0  0  0  0  0  0  0  0
    2.3310  -36.8410  -19.1502 N   0  0  0  0  0  0  0  0  0  0  0  0
    9.9090  -26.9047  -14.4671 N   0  0  0  0  0  0  0  0  0  0  0  0
    9.5370  -27.4073  -13.2752 C   0  0  0  0  0  0  0  0  0  0  0  0
    8.8529  -28.5563  -13.1291 N   0  0  0  0  0  0  0  0  0  0  0  0
    8.4915  -29.2911  -14.2086 C   0  0  0  0  0  0  0  0  0  0  0  0
    8.8622  -28.8075  -15.5475 C   0  0  0  0  0  0  0  0  0  0  0  0
    9.6154  -27.5336  -15.6256 C   0  0  0  0  0  0  0  0  0  0  0  0
    9.9964  -27.0176  -16.8200 N   0  0  0  0  0  0  0  0  0  0  0  0
    8.3895  -29.7113  -16.4265 N   0  0  0  0  0  0  0  0  0  0  0  0
    7.7704  -30.6870  -15.7133 C   0  0  0  0  0  0  0  0  0  0  0  0
    7.8310  -30.4368  -14.3924 N   0  0  0  0  0  0  0  0  0  0  0  0
  1  3  1  1  0  0  0
  1  5  2  0  0  0  0
  1  9  1  0  0  0  0
  1 18  1  0  0  0  0
  2  4  1  6  0  0  0
  2  6  2  0  0  0  0
  2 10  1  0  0  0  0
  2 17  1  0  0  0  0
  7  9  1  0  0  0  0
  8 10  1  0  0  0  0
 11  7  1  1  0  0  0
 11 13  1  0  0  0  0
 11 15  1  0  0  0  0
 12  8  1  6  0  0  0
 12 14  1  0  0  0  0
 12 16  1  0  0  0  0
 13 21  1  0  0  0  0
 14 22  1  0  0  0  0
 15 17  1  6  0  0  0
 15 19  1  0  0  0  0
 16 18  1  1  0  0  0
 16 20  1  0  0  0  0
 19 21  1  0  0  0  0
 20 22  1  0  0  0  0
 21 32  1  1  0  0  0
 22 42  1  6  0  0  0
 23 24  2  0  0  0  0
 23 28  1  0  0  0  0
 24 25  1  0  0  0  0
 25 26  2  0  0  0  0
 26 27  1  0  0  0  0
 26 32  1  0  0  0  0
 27 28  2  0  0  0  0
 27 30  1  0  0  0  0
 28 29  1  0  0  0  0
 30 31  2  0  0  0  0
 31 32  1  0  0  0  0
 33 34  2  0  0  0  0
 33 38  1  0  0  0  0
 34 35  1  0  0  0  0
 35 36  2  0  0  0  0
 36 37  1  0  0  0  0
 36 42  1  0  0  0  0
 37 38  2  0  0  0  0
 37 40  1  0  0  0  0
 38 39  1  0  0  0  0
 40 41  2  0  0  0  0
 41 42  1  0  0  0  0
M  CHG  2   3  -1   4  -1
M  END
>  <CHROM.1>
62.56889969,-98.05042529,5.32068429,-33.64137417,-15.97560193,-2.65990048
-0.70463407,-0.33263143

>  <Name>
ligand

>  <RI>
0

>  <Rbt.Current_Directory>
/home/itssahil/PROJECTS/Mol_Feturizer/New_Systems/rnas/4QLN

>  <Rbt.Executable>
rbdock ($Id: //depot/dev/client3/rdock/2013.1/src/exe/rbdock.cxx#4 $)

>  <Rbt.Library>
libRbt.so (2013.1, Build901 2013/11/27)

>  <Rbt.Parameter_File>
/export/apps/rDock/src/rDock_2013.1_src/data/scripts/dock_solv.prm

>  <Rbt.Receptor>
prm/pocket_docking_2.prm

>  <SCORE>
-35.8372

>  <SCORE.INTER>
-36.2042

>  <SCORE.INTER.CONST>
1

>  <SCORE.INTER.POLAR>
0

>  <SCORE.INTER.ROT>
2

>  <SCORE.INTER.SOLV>
33.0986

>  <SCORE.INTER.VDW>
-40.1023

>  <SCORE.INTER.norm>
-0.862004

>  <SCORE.INTRA>
0.366949

>  <SCORE.INTRA.DIHEDRAL>
-0.000501983

>  <SCORE.INTRA.DIHEDRAL.0>
2.39985

>  <SCORE.INTRA.POLAR>
0

>  <SCORE.INTRA.POLAR.0>
0

>  <SCORE.INTRA.REPUL>
0

>  <SCORE.INTRA.REPUL.0>
0

>  <SCORE.INTRA.SOLV>
-0.00955672

>  <SCORE.INTRA.SOLV.lig_0>
-110.958

>  <SCORE.INTRA.VDW>
0.371978

>  <SCORE.INTRA.VDW.0>
-2.34644

>  <SCORE.INTRA.norm>
0.00873688

>  <SCORE.RESTR>
0

>  <SCORE.RESTR.CAVITY>
0

>  <SCORE.RESTR.norm>
0

>  <SCORE.SYSTEM>
0

>  <SCORE.SYSTEM.CONST>
0

>  <SCORE.SYSTEM.DIHEDRAL>
0

>  <SCORE.SYSTEM.SOLV>
0

>  <SCORE.SYSTEM.norm>
0

>  <SCORE.heavy>
42

>  <SCORE.norm>
-0.853267

>  <RMSD>
0.838

$$$$
ligand
 OpenBabel11021811513D
libRbt.so/2013.1/901 2013/11/27
 42 48  0  0  0  0  0  0  0  0999 V2000
    3.8461  -34.3968  -13.4315 P   0  0  2  0  0  0  0  0  0  0  0  0
    7.5849  -35.4092  -16.6735 P   0  0  1  0  0  0  0  0  0  0  0  0
    3.3448  -35.5028  -12.5323 O   0  5  0  0  0  0  0  0  0  0  0  0
    7.0817  -34.0860  -17.1989 O   0  5  0  0  0  0  0  0  0  0  0  0
    3.0297  -33.1384  -13.6040 O   0  0  0  0  0  0  0  0  0  0  0  0
    8.8961  -35.9686  -17.1709 O   0  0  0  0  0  0  0  0  0  0  0  0
    3.3155  -36.0833  -15.3889 C   0  0  0  0  0  0  0  0  0  0  0  0
    8.4755  -34.3487  -14.4295 C   0  0  0  0  0  0  0  0  0  0  0  0
    4.1252  -35.0205  -14.8889 O   0  0  0  0  0  0  0  0  0  0  0  0
    7.6510  -35.3215  -15.0671 O   0  0  0  0  0  0  0  0  0  0  0  0
    4.1451  -36.9584  -16.3208 C   0  0  1  0  0  0  0  0  0  0  0  0
    7.6650  -33.6046  -13.3756 C   0  0  1  0  0  0  0  0  0  0  0  0
    3.2806  -37.6692  -17.2112 O   0  0  0  0  0  0  0  0  0  0  0  0
    8.2592  -32.3293  -13.1218 O   0  0  0  0  0  0  0  0  0  0  0  0
    5.0938  -36.1218  -17.1626 C   0  0  1  0  0  0  0  0  0  0  0  0
    6.2378  -33.3675  -13.8428 C   0  0  1  0  0  0  0  0  0  0  0  0
    6.4406  -36.5158  -16.9184 O   0  0  0  0  0  0  0  0  0  0  0  0
    5.3206  -33.9781  -12.9400 O   0  0  0  0  0  0  0  0  0  0  0  0
    4.7292  -36.3865  -18.6115 C   0  0  0  0  0  0  0  0  0  0  0  0
    6.0337  -31.8648  -13.8542 C   0  0  0  0  0  0  0  0  0  0  0  0
    3.5713  -37.3729  -18.5798 C   0  0  2  0  0  0  0  0  0  0  0  0
    7.3506  -31.2586  -13.3906 C   0  0  2  0  0  0  0  0  0  0  0  0
    0.2196  -33.3305  -18.6419 N   0  0  0  0  0  0  0  0  0  0  0  0
    1.2776  -33.5683  -17.8449 C   0  0  0  0  0  0  0  0  0  0  0  0
    2.0574  -34.6607  -17.9435 N   0  0  0  0  0  0  0  0  0  0  0  0
    1.8115  -35.6081  -18.8800 C   0  0  0  0  0  0  0  0  0  0  0  0
    0.6712  -35.4200  -19.7906 C   0  0  0  0  0  0  0  0  0  0  0  0
   -0.1409  -34.1920  -19.6193 C   0  0  0  0  0  0  0  0  0  0  0  0
   -1.2078  -33.9410  -20.4159 N   0  0  0  0  0  0  0  0  0  0  0  0
    0.6527  -36.4891  -20.6085 N   0  0  0  0  0  0  0  0  0  0  0  0
    1.6887  -37.2916  -20.2539 C   0  0  0  0  0  0  0  0  0  0  0  0
    2.3797  -36.7666  -19.2238 N   0  0  0  0  0  0  0  0  0  0  0  0
    9.9317  -26.8273  -14.5192 N   0  0  0  0  0  0  0  0  0  0  0  0
    9.5726  -27.3431  -13.3290 C   0  0  0  0  0  0  0  0  0  0  0  0
    8.9056  -28.5027  -13.1875 N   0  0  0  0  0  0  0  0  0  0  0  0
    8.5494  -29.2353  -14.2703 C   0  0  0  0  0  0  0  0  0  0  0  0
    8.9067  -28.7374  -15.6076 C   0  0  0  0  0  0  0  0  0  0  0  0
    9.6414  -27.4524  -15.6805 C   0  0  0  0  0  0  0  0  0  0  0  0
   10.0092  -26.9229  -16.8732 N   0  0  0  0  0  0  0  0  0  0  0  0
    8.4427  -29.6418  -16.4905 N   0  0  0  0  0  0  0  0  0  0  0  0
    7.8409  -30.6311  -15.7811 C   0  0  0  0  0  0  0  0  0  0  0  0
    7.9043  -30.3890  -14.4588 N   0  0  0  0  0  0  0  0  0  0  0  0
  1  3  1  1  0  0  0
  1  5  2  0  0  0  0
  1  9  1  0  0  0  0
  1 18  1  0  0  0  0
  2  4  1  6  0  0  0
  2  6  2  0  0  0  0
  2 10  1  0  0  0  0
  2 17  1  0  0  0  0
  7  9  1  0  0  0  0
  8 10  1  0  0  0  0
 11  7  1  1  0  0  0
 11 13  1  0  0  0  0
 11 15  1  0  0  0  0
 12  8  1  6  0  0  0
 12 14  1  0  0  0  0
 12 16  1  0  0  0  0
 13 21  1  0  0  0  0
 14 22  1  0  0  0  0
 15 17  1  6  0  0  0
 15 19  1  0  0  0  0
 16 18  1  1  0  0  0
 16 20  1  0  0  0  0
 19 21  1  0  0  0  0
 20 22  1  0  0  0  0
 21 32  1  1  0  0  0
 22 42  1  6  0  0  0
 23 24  2  0  0  0  0
 23 28  1  0  0  0  0
 24 25  1  0  0  0  0
 25 26  2  0  0  0  0
 26 27  1  0  0  0  0
 26 32  1  0  0  0  0
 27 28  2  0  0  0  0
 27 30  1  0  0  0  0
 28 29  1  0  0  0  0
 30 31  2  0  0  0  0
 31 32  1  0  0  0  0
 33 34  2  0  0  0  0
 33 38  1  0  0  0  0
 34 35  1  0  0  0  0
 35 36  2  0  0  0  0
 36 37  1  0  0  0  0
 36 42  1  0  0  0  0
 37 38  2  0  0  0  0
 37 40  1  0  0  0  0
 38 39  1  0  0  0  0
 40 41  2  0  0  0  0
 41 42  1  0  0  0  0
M  CHG  2   3  -1   4  -1
M  END
>  <CHROM.1>
62.74385132,-98.77025968,5.38919765,-33.58629856,-16.04922832,-2.64506499
-0.69466061,-0.31005793

>  <Name>
ligand

>  <RI>
0

>  <Rbt.Current_Directory>
/home/itssahil/PROJECTS/Mol_Feturizer/New_Systems/rnas/4QLN

>  <Rbt.Executable>
rbdock ($Id: //depot/dev/client3/rdock/2013.1/src/exe/rbdock.cxx#4 $)

>  <Rbt.Library>
libRbt.so (2013.1, Build901 2013/11/27)

>  <Rbt.Parameter_File>
/export/apps/rDock/src/rDock_2013.1_src/data/scripts/dock_solv.prm

>  <Rbt.Receptor>
prm/pocket_docking_3.prm

>  <SCORE>
-35.9128

>  <SCORE.INTER>
-36.2656

>  <SCORE.INTER.CONST>
1

>  <SCORE.INTER.POLAR>
0

>  <SCORE.INTER.ROT>
2

>  <SCORE.INTER.SOLV>
33.537

>  <SCORE.INTER.VDW>
-40.2894

>  <SCORE.INTER.norm>
-0.863467

>  <SCORE.INTRA>
0.352759

>  <SCORE.INTRA.DIHEDRAL>
-0.000487505

>  <SCORE.INTRA.DIHEDRAL.0>
2.39985

>  <SCORE.INTRA.POLAR>
0

>  <SCORE.INTRA.POLAR.0>
0

>  <SCORE.INTRA.REPUL>
0

>  <SCORE.INTRA.REPUL.0>
0

>  <SCORE.INTRA.SOLV>
-0.00918139

>  <SCORE.INTRA.SOLV.lig_0>
-110.958

>  <SCORE.INTRA.VDW>
0.357594

>  <SCORE.INTRA.VDW.0>
-2.34644

>  <SCORE.INTRA.norm>
0.00839903

>  <SCORE.RESTR>
0

>  <SCORE.RESTR.CAVITY>
0

>  <SCORE.RESTR.norm>
0

>  <SCORE.SYSTEM>
0

>  <SCORE.SYSTEM.CONST>
0

>  <SCORE.SYSTEM.DIHEDRAL>
0

>  <SCORE.SYSTEM.SOLV>
0

>  <SCORE.SYSTEM.norm>
0

>  <SCORE.heavy>
42

>  <SCORE.norm>
-0.855068

>  <RMSD>
0.838

$$$$
ligand
 OpenBabel11021811513D
libRbt.so/2013.1/901 2013/11/27
 42 48  0  0  0  0  0  0  0  0999 V2000
    3.7441  -34.4173  -13.3787 P   0  0  2  0  0  0  0  0  0  0  0  0
    7.5224  -35.4790  -16.5586 P   0  0  1  0  0  0  0  0  0  0  0  0
    3.2254  -35.5120  -12.4755 O   0  5  0  0  0  0  0  0  0  0  0  0
    7.0326  -34.1588  -17.1041 O   0  5  0  0  0  0  0  0  0  0  0  0
    2.9360  -33.1570  -13.5750 O   0  0  0  0  0  0  0  0  0  0  0  0
    8.8377  -36.0493  -17.0323 O   0  0  0  0  0  0  0  0  0  0  0  0
    3.2326  -36.1209  -15.3263 C   0  0  0  0  0  0  0  0  0  0  0  0
    8.3870  -34.4002  -14.3131 C   0  0  0  0  0  0  0  0  0  0  0  0
    4.0403  -35.0569  -14.8258 O   0  0  0  0  0  0  0  0  0  0  0  0
    7.5669  -35.3756  -14.9524 O   0  0  0  0  0  0  0  0  0  0  0  0
    4.0709  -37.0090  -16.2380 C   0  0  1  0  0  0  0  0  0  0  0  0
    7.5656  -33.6419  -13.2780 C   0  0  1  0  0  0  0  0  0  0  0  0
    3.2154  -37.7248  -17.1331 O   0  0  0  0  0  0  0  0  0  0  0  0
    8.1621  -32.3668  -13.0287 O   0  0  0  0  0  0  0  0  0  0  0  0
    5.0350  -36.1852  -17.0748 C   0  0  1  0  0  0  0  0  0  0  0  0
    6.1460  -33.4030  -13.7672 C   0  0  1  0  0  0  0  0  0  0  0  0
    6.3765  -36.5829  -16.8082 O   0  0  0  0  0  0  0  0  0  0  0  0
    5.2136  -34.0004  -12.8711 O   0  0  0  0  0  0  0  0  0  0  0  0
    4.6891  -36.4627  -18.5260 C   0  0  0  0  0  0  0  0  0  0  0  0
    5.9491  -31.8996  -13.7964 C   0  0  0  0  0  0  0  0  0  0  0  0
    3.5263  -37.4435  -18.5004 C   0  0  2  0  0  0  0  0  0  0  0  0
    7.2623  -31.2948  -13.3207 C   0  0  2  0  0  0  0  0  0  0  0  0
    0.1939  -33.3874  -18.6482 N   0  0  0  0  0  0  0  0  0  0  0  0
    1.2397  -33.6221  -17.8342 C   0  0  0  0  0  0  0  0  0  0  0  0
    2.0158  -34.7188  -17.9115 N   0  0  0  0  0  0  0  0  0  0  0  0
    1.7787  -35.6741  -18.8421 C   0  0  0  0  0  0  0  0  0  0  0  0
    0.6521  -35.4899  -19.7704 C   0  0  0  0  0  0  0  0  0  0  0  0
   -0.1569  -34.2568  -19.6223 C   0  0  0  0  0  0  0  0  0  0  0  0
   -1.2114  -34.0089  -20.4361 N   0  0  0  0  0  0  0  0  0  0  0  0
    0.6402  -36.5668  -20.5781 N   0  0  0  0  0  0  0  0  0  0  0  0
    1.6676  -37.3703  -20.2014 C   0  0  0  0  0  0  0  0  0  0  0  0
    2.3465  -36.8383  -19.1668 N   0  0  0  0  0  0  0  0  0  0  0  0
    9.9220  -26.9115  -14.4546 N   0  0  0  0  0  0  0  0  0  0  0  0
    9.5497  -27.4170  -13.2641 C   0  0  0  0  0  0  0  0  0  0  0  0
    8.8628  -28.5647  -13.1211 N   0  0  0  0  0  0  0  0  0  0  0  0
    8.4984  -29.2950  -14.2027 C   0  0  0  0  0  0  0  0  0  0  0  0
    8.8692  -28.8080  -15.5404 C   0  0  0  0  0  0  0  0  0  0  0  0
    9.6257  -27.5358  -15.6149 C   0  0  0  0  0  0  0  0  0  0  0  0
   10.0070  -27.0169  -16.8080 N   0  0  0  0  0  0  0  0  0  0  0  0
    8.3934  -29.7076  -16.4219 N   0  0  0  0  0  0  0  0  0  0  0  0
    7.7724  -30.6841  -15.7114 C   0  0  0  0  0  0  0  0  0  0  0  0
    7.8347  -30.4383  -14.3898 N   0  0  0  0  0  0  0  0  0  0  0  0
  1  3  1  1  0  0  0
  1  5  2  0  0  0  0
  1  9  1  0  0  0  0
  1 18  1  0  0  0  0
  2  4  1  6  0  0  0
  2  6  2  0  0  0  0
  2 10  1  0  0  0  0
  2 17  1  0  0  0  0
  7  9  1  0  0  0  0
  8 10  1  0  0  0  0
 11  7  1  1  0  0  0
 11 13  1  0  0  0  0
 11 15  1  0  0  0  0
 12  8  1  6  0  0  0
 12 14  1  0  0  0  0
 12 16  1  0  0  0  0
 13 21  1  0  0  0  0
 14 22  1  0  0  0  0
 15 17  1  6  0  0  0
 15 19  1  0  0  0  0
 16 18  1  1  0  0  0
 16 20  1  0  0  0  0
 19 21  1  0  0  0  0
 20 22  1  0  0  0  0
 21 32  1  1  0  0  0
 22 42  1  6  0  0  0
 23 24  2  0  0  0  0
 23 28  1  0  0  0  0
 24 25  1  0  0  0  0
 25 26  2  0  0  0  0
 26 27  1  0  0  0  0
 26 32  1  0  0  0  0
 27 28  2  0  0  0  0
 27 30  1  0  0  0  0
 28 29  1  0  0  0  0
 30 31  2  0  0  0  0
 31 32  1  0  0  0  0
 33 34  2  0  0  0  0
 33 38  1  0  0  0  0
 34 35  1  0  0  0  0
 35 36  2  0  0  0  0
 36 37  1  0  0  0  0
 36 42  1  0  0  0  0
 37 38  2  0  0  0  0
 37 40  1  0  0  0  0
 38 39  1  0  0  0  0
 40 41  2  0  0  0  0
 41 42  1  0  0  0  0
M  CHG  2   3  -1   4  -1
M  END
>  <CHROM.1>
62.72097902,-97.79511132,5.33027846,-33.64213777,-15.98251956,-2.66194954
-0.70716928,-0.33355494

>  <Name>
ligand

>  <RI>
0

>  <Rbt.Current_Directory>
/home/itssahil/PROJECTS/Mol_Feturizer/New_Systems/rnas/4QLN

>  <Rbt.Executable>
rbdock ($Id: //depot/dev/client3/rdock/2013.1/src/exe/rbdock.cxx#4 $)

>  <Rbt.Library>
libRbt.so (2013.1, Build901 2013/11/27)

>  <Rbt.Parameter_File>
/export/apps/rDock/src/rDock_2013.1_src/data/scripts/dock_solv.prm

>  <Rbt.Receptor>
prm/pocket_docking_4.prm

>  <SCORE>
-35.8364

>  <SCORE.INTER>
-36.2116

>  <SCORE.INTER.CONST>
1

>  <SCORE.INTER.POLAR>
0

>  <SCORE.INTER.ROT>
2

>  <SCORE.INTER.SOLV>
33.1583

>  <SCORE.INTER.VDW>
-40.1272

>  <SCORE.INTER.norm>
-0.862181

>  <SCORE.INTRA>
0.375198

>  <SCORE.INTRA.DIHEDRAL>
-0.00050398

>  <SCORE.INTRA.DIHEDRAL.0>
2.39985

>  <SCORE.INTRA.POLAR>
0

>  <SCORE.INTRA.POLAR.0>
0

>  <SCORE.INTRA.REPUL>
0

>  <SCORE.INTRA.REPUL.0>
0

>  <SCORE.INTRA.SOLV>
-0.0099036

>  <SCORE.INTRA.SOLV.lig_0>
-110.958

>  <SCORE.INTRA.VDW>
0.380402

>  <SCORE.INTRA.VDW.0>
-2.34644

>  <SCORE.INTRA.norm>
0.00893329

>  <SCORE.RESTR>
0

>  <SCORE.RESTR.CAVITY>
0

>  <SCORE.RESTR.norm>
0

>  <SCORE.SYSTEM>
0

>  <SCORE.SYSTEM.CONST>
0

>  <SCORE.SYSTEM.DIHEDRAL>
0

>  <SCORE.SYSTEM.SOLV>
0

>  <SCORE.SYSTEM.norm>
0

>  <SCORE.heavy>
42

>  <SCORE.norm>
-0.853248

>  <RMSD>
0.838

$$$$
ligand
 OpenBabel11021811513D
libRbt.so/2013.1/901 2013/11/27
 42 48  0  0  0  0  0  0  0  0999 V2000
    3.7724  -34.4147  -13.3892 P   0  0  2  0  0  0  0  0  0  0  0  0
    7.5403  -35.4374  -16.5940 P   0  0  1  0  0  0  0  0  0  0  0  0
    3.2619  -35.5182  -12.4922 O   0  5  0  0  0  0  0  0  0  0  0  0
    7.0431  -34.1149  -17.1272 O   0  5  0  0  0  0  0  0  0  0  0  0
    2.9587  -33.1560  -13.5722 O   0  0  0  0  0  0  0  0  0  0  0  0
    8.8556  -35.9989  -17.0780 O   0  0  0  0  0  0  0  0  0  0  0  0
    3.2586  -36.1052  -15.3476 C   0  0  0  0  0  0  0  0  0  0  0  0
    8.4109  -34.3725  -14.3443 C   0  0  0  0  0  0  0  0  0  0  0  0
    4.0645  -35.0419  -14.8425 O   0  0  0  0  0  0  0  0  0  0  0  0
    7.5916  -35.3461  -14.9873 O   0  0  0  0  0  0  0  0  0  0  0  0
    4.0961  -36.9830  -16.2698 C   0  0  1  0  0  0  0  0  0  0  0  0
    7.5913  -33.6254  -13.2997 C   0  0  1  0  0  0  0  0  0  0  0  0
    3.2394  -37.6952  -17.1666 O   0  0  0  0  0  0  0  0  0  0  0  0
    8.1841  -32.3499  -13.0433 O   0  0  0  0  0  0  0  0  0  0  0  0
    5.0533  -36.1491  -17.1046 C   0  0  1  0  0  0  0  0  0  0  0  0
    6.1686  -33.3881  -13.7806 C   0  0  1  0  0  0  0  0  0  0  0  0
    6.3975  -36.5437  -16.8470 O   0  0  0  0  0  0  0  0  0  0  0  0
    5.2426  -33.9960  -12.8850 O   0  0  0  0  0  0  0  0  0  0  0  0
    4.7020  -36.4168  -18.5563 C   0  0  0  0  0  0  0  0  0  0  0  0
    5.9658  -31.8854  -13.7973 C   0  0  0  0  0  0  0  0  0  0  0  0
    3.5430  -37.4022  -18.5331 C   0  0  2  0  0  0  0  0  0  0  0  0
    7.2789  -31.2792  -13.3229 C   0  0  2  0  0  0  0  0  0  0  0  0
    0.2228  -33.3356  -18.6650 N   0  0  0  0  0  0  0  0  0  0  0  0
    1.2767  -33.5696  -17.8615 C   0  0  0  0  0  0  0  0  0  0  0  0
    2.0482  -34.6694  -17.9416 N   0  0  0  0  0  0  0  0  0  0  0  0
    1.7977  -35.6286  -18.8646 C   0  0  0  0  0  0  0  0  0  0  0  0
    0.6615  -35.4454  -19.7812 C   0  0  0  0  0  0  0  0  0  0  0  0
   -0.1417  -34.2087  -19.6306 C   0  0  0  0  0  0  0  0  0  0  0  0
   -1.2043  -33.9615  -20.4339 N   0  0  0  0  0  0  0  0  0  0  0  0
    0.6370  -36.5264  -20.5832 N   0  0  0  0  0  0  0  0  0  0  0  0
    1.6658  -37.3315  -20.2137 C   0  0  0  0  0  0  0  0  0  0  0  0
    2.3579  -36.7964  -19.1895 N   0  0  0  0  0  0  0  0  0  0  0  0
    9.8669  -26.8485  -14.4380 N   0  0  0  0  0  0  0  0  0  0  0  0
    9.4955  -27.3607  -13.2501 C   0  0  0  0  0  0  0  0  0  0  0  0
    8.8284  -28.5207  -13.1120 N   0  0  0  0  0  0  0  0  0  0  0  0
    8.4849  -29.2573  -14.1962 C   0  0  0  0  0  0  0  0  0  0  0  0
    8.8562  -28.7634  -15.5312 C   0  0  0  0  0  0  0  0  0  0  0  0
    9.5901  -27.4778  -15.6004 C   0  0  0  0  0  0  0  0  0  0  0  0
    9.9703  -26.9518  -16.7907 N   0  0  0  0  0  0  0  0  0  0  0  0
    8.4028  -29.6713  -16.4161 N   0  0  0  0  0  0  0  0  0  0  0  0
    7.7946  -30.6590  -15.7100 C   0  0  0  0  0  0  0  0  0  0  0  0
    7.8433  -30.4124  -14.3879 N   0  0  0  0  0  0  0  0  0  0  0  0
  1  3  1  1  0  0  0
  1  5  2  0  0  0  0
  1  9  1  0  0  0  0
  1 18  1  0  0  0  0
  2  4  1  6  0  0  0
  2  6  2  0  0  0  0
  2 10  1  0  0  0  0
  2 17  1  0  0  0  0
  7  9  1  0  0  0  0
  8 10  1  0  0  0  0
 11  7  1  1  0  0  0
 11 13  1  0  0  0  0
 11 15  1  0  0  0  0
 12  8  1  6  0  0  0
 12 14  1  0  0  0  0
 12 16  1  0  0  0  0
 13 21  1  0  0  0  0
 14 22  1  0  0  0  0
 15 17  1  6  0  0  0
 15 19  1  0  0  0  0
 16 18  1  1  0  0  0
 16 20  1  0  0  0  0
 19 21  1  0  0  0  0
 20 22  1  0  0  0  0
 21 32  1  1  0  0  0
 22 42  1  6  0  0  0
 23 24  2  0  0  0  0
 23 28  1  0  0  0  0
 24 25  1  0  0  0  0
 25 26  2  0  0  0  0
 26 27  1  0  0  0  0
 26 32  1  0  0  0  0
 27 28  2  0  0  0  0
 27 30  1  0  0  0  0
 28 29  1  0  0  0  0
 30 31  2  0  0  0  0
 31 32  1  0  0  0  0
 33 34  2  0  0  0  0
 33 38  1  0  0  0  0
 34 35  1  0  0  0  0
 35 36  2  0  0  0  0
 36 37  1  0  0  0  0
 36 42  1  0  0  0  0
 37 38  2  0  0  0  0
 37 40  1  0  0  0  0
 38 39  1  0  0  0  0
 40 41  2  0  0  0  0
 41 42  1  0  0  0  0
M  CHG  2   3  -1   4  -1
M  END
>  <CHROM.1>
63.64647167,-98.93025716,5.34206378,-33.60920630,-15.99681026,-2.65228995
-0.70617762,-0.31929453

>  <Name>
ligand

>  <RI>
0

>  <Rbt.Current_Directory>
/home/itssahil/PROJECTS/Mol_Feturizer/New_Systems/rnas/4QLN

>  <Rbt.Executable>
rbdock ($Id: //depot/dev/client3/rdock/2013.1/src/exe/rbdock.cxx#4 $)

>  <Rbt.Library>
libRbt.so (2013.1, Build901 2013/11/27)

>  <Rbt.Parameter_File>
/export/apps/rDock/src/rDock_2013.1_src/data/scripts/dock_solv.prm

>  <Rbt.Receptor>
prm/pocket_docking_4.prm

>  <SCORE>
-35.8015

>  <SCORE.INTER>
-36.1651

>  <SCORE.INTER.CONST>
1

>  <SCORE.INTER.POLAR>
0

>  <SCORE.INTER.ROT>
2

>  <SCORE.INTER.SOLV>
33.0912

>  <SCORE.INTER.VDW>
-40.0738

>  <SCORE.INTER.norm>
-0.861074

>  <SCORE.INTRA>
0.363652

>  <SCORE.INTRA.DIHEDRAL>
-0.000472492

>  <SCORE.INTRA.DIHEDRAL.0>
2.39985

>  <SCORE.INTRA.POLAR>
0

>  <SCORE.INTRA.POLAR.0>
0

>  <SCORE.INTRA.REPUL>
0

>  <SCORE.INTRA.REPUL.0>
0

>  <SCORE.INTRA.SOLV>
-0.00991405

>  <SCORE.INTRA.SOLV.lig_0>
-110.958

>  <SCORE.INTRA.VDW>
0.368845

>  <SCORE.INTRA.VDW.0>
-2.34644

>  <SCORE.INTRA.norm>
0.00865837

>  <SCORE.RESTR>
0

>  <SCORE.RESTR.CAVITY>
0

>  <SCORE.RESTR.norm>
0

>  <SCORE.SYSTEM>
0

>  <SCORE.SYSTEM.CONST>
0

>  <SCORE.SYSTEM.DIHEDRAL>
0

>  <SCORE.SYSTEM.SOLV>
0

>  <SCORE.SYSTEM.norm>
0

>  <SCORE.heavy>
42

>  <SCORE.norm>
-0.852416

>  <RMSD>
0.838

$$$$
ligand
 OpenBabel11021811513D
libRbt.so/2013.1/901 2013/11/27
 42 48  0  0  0  0  0  0  0  0999 V2000
    3.8180  -34.3951  -13.4167 P   0  0  2  0  0  0  0  0  0  0  0  0
    7.5770  -35.3873  -16.6415 P   0  0  1  0  0  0  0  0  0  0  0  0
    3.3148  -35.5052  -12.5237 O   0  5  0  0  0  0  0  0  0  0  0  0
    7.0731  -34.0638  -17.1656 O   0  5  0  0  0  0  0  0  0  0  0  0
    2.9992  -33.1383  -13.5897 O   0  0  0  0  0  0  0  0  0  0  0  0
    8.8924  -35.9416  -17.1336 O   0  0  0  0  0  0  0  0  0  0  0  0
    3.3025  -36.0768  -15.3821 C   0  0  0  0  0  0  0  0  0  0  0  0
    8.4526  -34.3315  -14.3894 C   0  0  0  0  0  0  0  0  0  0  0  0
    4.1066  -35.0135  -14.8745 O   0  0  0  0  0  0  0  0  0  0  0  0
    7.6342  -35.3045  -15.0345 O   0  0  0  0  0  0  0  0  0  0  0  0
    4.1395  -36.9468  -16.3123 C   0  0  1  0  0  0  0  0  0  0  0  0
    7.6345  -33.5929  -13.3377 C   0  0  1  0  0  0  0  0  0  0  0  0
    3.2818  -37.6571  -17.2097 O   0  0  0  0  0  0  0  0  0  0  0  0
    8.2238  -32.3168  -13.0766 O   0  0  0  0  0  0  0  0  0  0  0  0
    5.0905  -36.1050  -17.1463 C   0  0  1  0  0  0  0  0  0  0  0  0
    6.2091  -33.3581  -13.8118 C   0  0  1  0  0  0  0  0  0  0  0  0
    6.4370  -36.4962  -16.8961 O   0  0  0  0  0  0  0  0  0  0  0  0
    5.2887  -33.9740  -12.9159 O   0  0  0  0  0  0  0  0  0  0  0  0
    4.7345  -36.3661  -18.5981 C   0  0  0  0  0  0  0  0  0  0  0  0
    6.0010  -31.8560  -13.8196 C   0  0  0  0  0  0  0  0  0  0  0  0
    3.5790  -37.3557  -18.5757 C   0  0  2  0  0  0  0  0  0  0  0  0
    7.3138  -31.2477  -13.3470 C   0  0  2  0  0  0  0  0  0  0  0  0
    0.2079  -33.3295  -18.6337 N   0  0  0  0  0  0  0  0  0  0  0  0
    1.2610  -33.5679  -17.8304 C   0  0  0  0  0  0  0  0  0  0  0  0
    2.0469  -34.6558  -17.9311 N   0  0  0  0  0  0  0  0  0  0  0  0
    1.8128  -35.5975  -18.8763 C   0  0  0  0  0  0  0  0  0  0  0  0
    0.6785  -35.4083  -19.7941 C   0  0  0  0  0  0  0  0  0  0  0  0
   -0.1411  -34.1856  -19.6200 C   0  0  0  0  0  0  0  0  0  0  0  0
   -1.2031  -33.9341  -20.4228 N   0  0  0  0  0  0  0  0  0  0  0  0
    0.6714  -36.4715  -20.6199 N   0  0  0  0  0  0  0  0  0  0  0  0
    1.7087  -37.2715  -20.2633 C   0  0  0  0  0  0  0  0  0  0  0  0
    2.3893  -36.7506  -19.2242 N   0  0  0  0  0  0  0  0  0  0  0  0
    9.9374  -26.8338  -14.4452 N   0  0  0  0  0  0  0  0  0  0  0  0
    9.5796  -27.3579  -13.2583 C   0  0  0  0  0  0  0  0  0  0  0  0
    8.9006  -28.5114  -13.1248 N   0  0  0  0  0  0  0  0  0  0  0  0
    8.5299  -29.2287  -14.2129 C   0  0  0  0  0  0  0  0  0  0  0  0
    8.8850  -28.7210  -15.5472 C   0  0  0  0  0  0  0  0  0  0  0  0
    9.6335  -27.4436  -15.6112 C   0  0  0  0  0  0  0  0  0  0  0  0
   10.0002  -26.9059  -16.8005 N   0  0  0  0  0  0  0  0  0  0  0  0
    8.4057  -29.6111  -16.4365 N   0  0  0  0  0  0  0  0  0  0  0  0
    7.7972  -30.6009  -15.7338 C   0  0  0  0  0  0  0  0  0  0  0  0
    7.8709  -30.3732  -14.4095 N   0  0  0  0  0  0  0  0  0  0  0  0
  1  3  1  1  0  0  0
  1  5  2  0  0  0  0
  1  9  1  0  0  0  0
  1 18  1  0  0  0  0
  2  4  1  6  0  0  0
  2  6  2  0  0  0  0
  2 10  1  0  0  0  0
  2 17  1  0  0  0  0
  7  9  1  0  0  0  0
  8 10  1  0  0  0  0
 11  7  1  1  0  0  0
 11 13  1  0  0  0  0
 11 15  1  0  0  0  0
 12  8  1  6  0  0  0
 12 14  1  0  0  0  0
 12 16  1  0  0  0  0
 13 21  1  0  0  0  0
 14 22  1  0  0  0  0
 15 17  1  6  0  0  0
 15 19  1  0  0  0  0
 16 18  1  1  0  0  0
 16 20  1  0  0  0  0
 19 21  1  0  0  0  0
 20 22  1  0  0  0  0
 21 32  1  1  0  0  0
 22 42  1  6  0  0  0
 23 24  2  0  0  0  0
 23 28  1  0  0  0  0
 24 25  1  0  0  0  0
 25 26  2  0  0  0  0
 26 27  1  0  0  0  0
 26 32  1  0  0  0  0
 27 28  2  0  0  0  0
 27 30  1  0  0  0  0
 28 29  1  0  0  0  0
 30 31  2  0  0  0  0
 31 32  1  0  0  0  0
 33 34  2  0  0  0  0
 33 38  1  0  0  0  0
 34 35  1  0  0  0  0
 35 36  2  0  0  0  0
 36 37  1  0  0  0  0
 36 42  1  0  0  0  0
 37 38  2  0  0  0  0
 37 40  1  0  0  0  0
 38 39  1  0  0  0  0
 40 41  2  0  0  0  0
 41 42  1  0  0  0  0
M  CHG  2   3  -1   4  -1
M  END
>  <CHROM.1>
62.44607975,-97.66945693,5.37628462,-33.57513742,-16.02248870,-2.64906776
-0.70075227,-0.31166165

>  <Name>
ligand

>  <RI>
0

>  <Rbt.Current_Directory>
/home/itssahil/PROJECTS/Mol_Feturizer/New_Systems/rnas/4QLN

>  <Rbt.Executable>
rbdock ($Id: //depot/dev/client3/rdock/2013.1/src/exe/rbdock.cxx#4 $)

>  <Rbt.Library>
libRbt.so (2013.1, Build901 2013/11/27)

>  <Rbt.Parameter_File>
/export/apps/rDock/src/rDock_2013.1_src/data/scripts/dock_solv.prm

>  <Rbt.Receptor>
prm/pocket_docking_2.prm

>  <SCORE>
-35.8474

>  <SCORE.INTER>
-36.2216

>  <SCORE.INTER.CONST>
1

>  <SCORE.INTER.POLAR>
0

>  <SCORE.INTER.ROT>
2

>  <SCORE.INTER.SOLV>
33.3486

>  <SCORE.INTER.VDW>
-40.1972

>  <SCORE.INTER.norm>
-0.862418

>  <SCORE.INTRA>
0.374103

>  <SCORE.INTRA.DIHEDRAL>
-0.000509664

>  <SCORE.INTRA.DIHEDRAL.0>
2.39985

>  <SCORE.INTRA.POLAR>
0

>  <SCORE.INTRA.POLAR.0>
0

>  <SCORE.INTRA.REPUL>
0

>  <SCORE.INTRA.REPUL.0>
0

>  <SCORE.INTRA.SOLV>
-0.00974929

>  <SCORE.INTRA.SOLV.lig_0>
-110.958

>  <SCORE.INTRA.VDW>
0.379232

>  <SCORE.INTRA.VDW.0>
-2.34644

>  <SCORE.INTRA.norm>
0.0089072

>  <SCORE.RESTR>
0

>  <SCORE.RESTR.CAVITY>
0

>  <SCORE.RESTR.norm>
0

>  <SCORE.SYSTEM>
0

>  <SCORE.SYSTEM.CONST>
0

>  <SCORE.SYSTEM.DIHEDRAL>
0

>  <SCORE.SYSTEM.SOLV>
0

>  <SCORE.SYSTEM.norm>
0

>  <SCORE.heavy>
42

>  <SCORE.norm>
-0.853511

>  <RMSD>
0.839

$$$$
ligand
 OpenBabel11021811513D
libRbt.so/2013.1/901 2013/11/27
 42 48  0  0  0  0  0  0  0  0999 V2000
    3.8464  -34.3995  -13.4324 P   0  0  2  0  0  0  0  0  0  0  0  0
    7.5827  -35.4083  -16.6784 P   0  0  1  0  0  0  0  0  0  0  0  0
    3.3465  -35.5062  -12.5333 O   0  5  0  0  0  0  0  0  0  0  0  0
    7.0782  -34.0850  -17.2028 O   0  5  0  0  0  0  0  0  0  0  0  0
    3.0291  -33.1415  -13.6036 O   0  0  0  0  0  0  0  0  0  0  0  0
    8.8937  -35.9666  -17.1773 O   0  0  0  0  0  0  0  0  0  0  0  0
    3.3149  -36.0854  -15.3901 C   0  0  0  0  0  0  0  0  0  0  0  0
    8.4748  -34.3483  -14.4347 C   0  0  0  0  0  0  0  0  0  0  0  0
    4.1244  -35.0224  -14.8904 O   0  0  0  0  0  0  0  0  0  0  0  0
    7.6503  -35.3213  -15.0720 O   0  0  0  0  0  0  0  0  0  0  0  0
    4.1441  -36.9595  -16.3232 C   0  0  1  0  0  0  0  0  0  0  0  0
    7.6649  -33.6051  -13.3798 C   0  0  1  0  0  0  0  0  0  0  0  0
    3.2792  -37.6704  -17.2132 O   0  0  0  0  0  0  0  0  0  0  0  0
    8.2585  -32.3296  -13.1259 O   0  0  0  0  0  0  0  0  0  0  0  0
    5.0915  -36.1220  -17.1655 C   0  0  1  0  0  0  0  0  0  0  0  0
    6.2370  -33.3686  -13.8455 C   0  0  1  0  0  0  0  0  0  0  0  0
    6.4388  -36.5154  -16.9227 O   0  0  0  0  0  0  0  0  0  0  0  0
    5.3210  -33.9802  -12.9421 O   0  0  0  0  0  0  0  0  0  0  0  0
    4.7258  -36.3862  -18.6142 C   0  0  0  0  0  0  0  0  0  0  0  0
    6.0321  -31.8661  -13.8560 C   0  0  0  0  0  0  0  0  0  0  0  0
    3.5684  -37.3733  -18.5819 C   0  0  2  0  0  0  0  0  0  0  0  0
    7.3491  -31.2593  -13.3934 C   0  0  2  0  0  0  0  0  0  0  0  0
    0.1896  -33.3533  -18.6122 N   0  0  0  0  0  0  0  0  0  0  0  0
    1.2453  -33.5935  -17.8128 C   0  0  0  0  0  0  0  0  0  0  0  0
    2.0329  -34.6793  -17.9206 N   0  0  0  0  0  0  0  0  0  0  0  0
    1.7981  -35.6170  -18.8696 C   0  0  0  0  0  0  0  0  0  0  0  0
    0.6611  -35.4257  -19.7836 C   0  0  0  0  0  0  0  0  0  0  0  0
   -0.1603  -34.2053  -19.6017 C   0  0  0  0  0  0  0  0  0  0  0  0
   -1.2249  -33.9521  -20.4005 N   0  0  0  0  0  0  0  0  0  0  0  0
    0.6538  -36.4850  -20.6144 N   0  0  0  0  0  0  0  0  0  0  0  0
    1.6936  -37.2847  -20.2643 C   0  0  0  0  0  0  0  0  0  0  0  0
    2.3759  -36.7674  -19.2245 N   0  0  0  0  0  0  0  0  0  0  0  0
    9.9293  -26.8275  -14.5221 N   0  0  0  0  0  0  0  0  0  0  0  0
    9.5720  -27.3443  -13.3318 C   0  0  0  0  0  0  0  0  0  0  0  0
    8.9050  -28.5039  -13.1903 N   0  0  0  0  0  0  0  0  0  0  0  0
    8.5469  -29.2355  -14.2732 C   0  0  0  0  0  0  0  0  0  0  0  0
    8.9023  -28.7365  -15.6106 C   0  0  0  0  0  0  0  0  0  0  0  0
    9.6371  -27.4516  -15.6836 C   0  0  0  0  0  0  0  0  0  0  0  0
   10.0032  -26.9212  -16.8763 N   0  0  0  0  0  0  0  0  0  0  0  0
    8.4367  -29.6401  -16.4936 N   0  0  0  0  0  0  0  0  0  0  0  0
    7.8358  -30.6298  -15.7840 C   0  0  0  0  0  0  0  0  0  0  0  0
    7.9013  -30.3888  -14.4617 N   0  0  0  0  0  0  0  0  0  0  0  0
  1  3  1  1  0  0  0
  1  5  2  0  0  0  0
  1  9  1  0  0  0  0
  1 18  1  0  0  0  0
  2  4  1  6  0  0  0
  2  6  2  0  0  0  0
  2 10  1  0  0  0  0
  2 17  1  0  0  0  0
  7  9  1  0  0  0  0
  8 10  1  0  0  0  0
 11  7  1  1  0  0  0
 11 13  1  0  0  0  0
 11 15  1  0  0  0  0
 12  8  1  6  0  0  0
 12 14  1  0  0  0  0
 12 16  1  0  0  0  0
 13 21  1  0  0  0  0
 14 22  1  0  0  0  0
 15 17  1  6  0  0  0
 15 19  1  0  0  0  0
 16 18  1  1  0  0  0
 16 20  1  0  0  0  0
 19 21  1  0  0  0  0
 20 22  1  0  0  0  0
 21 32  1  1  0  0  0
 22 42  1  6  0  0  0
 23 24  2  0  0  0  0
 23 28  1  0  0  0  0
 24 25  1  0  0  0  0
 25 26  2  0  0  0  0
 26 27  1  0  0  0  0
 26 32  1  0  0  0  0
 27 28  2  0  0  0  0
 27 30  1  0  0  0  0
 28 29  1  0  0  0  0
 30 31  2  0  0  0  0
 31 32  1  0  0  0  0
 33 34  2  0  0  0  0
 33 38  1  0  0  0  0
 34 35  1  0  0  0  0
 35 36  2  0  0  0  0
 36 37  1  0  0  0  0
 36 42  1  0  0  0  0
 37 38  2  0  0  0  0
 37 40  1  0  0  0  0
 38 39  1  0  0  0  0
 40 41  2  0  0  0  0
 41 42  1  0  0  0  0
M  CHG  2   3  -1   4  -1
M  END
>  <CHROM.1>
61.91967290,-98.70914000,5.38471661,-33.58867948,-16.04902325,-2.64135589
-0.69117881,-0.30491359

>  <Name>
ligand

>  <RI>
0

>  <Rbt.Current_Directory>
/home/itssahil/PROJECTS/Mol_Feturizer/New_Systems/rnas/4QLN

>  <Rbt.Executable>
rbdock ($Id: //depot/dev/client3/rdock/2013.1/src/exe/rbdock.cxx#4 $)

>  <Rbt.Library>
libRbt.so (2013.1, Build901 2013/11/27)

>  <Rbt.Parameter_File>
/export/apps/rDock/src/rDock_2013.1_src/data/scripts/dock_solv.prm

>  <Rbt.Receptor>
prm/pocket_docking_3.prm

>  <SCORE>
-35.8598

>  <SCORE.INTER>
-36.2024

>  <SCORE.INTER.CONST>
1

>  <SCORE.INTER.POLAR>
0

>  <SCORE.INTER.ROT>
2

>  <SCORE.INTER.SOLV>
33.5176

>  <SCORE.INTER.VDW>
-40.2408

>  <SCORE.INTER.norm>
-0.861961

>  <SCORE.INTRA>
0.342544

>  <SCORE.INTRA.DIHEDRAL>
-0.000499775

>  <SCORE.INTRA.DIHEDRAL.0>
2.39985

>  <SCORE.INTRA.POLAR>
0

>  <SCORE.INTRA.POLAR.0>
0

>  <SCORE.INTRA.REPUL>
0

>  <SCORE.INTRA.REPUL.0>
0

>  <SCORE.INTRA.SOLV>
-0.00845298

>  <SCORE.INTRA.SOLV.lig_0>
-110.958

>  <SCORE.INTRA.VDW>
0.347021

>  <SCORE.INTRA.VDW.0>
-2.34644

>  <SCORE.INTRA.norm>
0.00815582

>  <SCORE.RESTR>
0

>  <SCORE.RESTR.CAVITY>
0

>  <SCORE.RESTR.norm>
0

>  <SCORE.SYSTEM>
0

>  <SCORE.SYSTEM.CONST>
0

>  <SCORE.SYSTEM.DIHEDRAL>
0

>  <SCORE.SYSTEM.SOLV>
0

>  <SCORE.SYSTEM.norm>
0

>  <SCORE.heavy>
42

>  <SCORE.norm>
-0.853806

>  <RMSD>
0.839

$$$$
ligand
 OpenBabel11021811513D
libRbt.so/2013.1/901 2013/11/27
 42 48  0  0  0  0  0  0  0  0999 V2000
    3.8455  -34.3960  -13.4339 P   0  0  2  0  0  0  0  0  0  0  0  0
    7.5856  -35.4099  -16.6740 P   0  0  1  0  0  0  0  0  0  0  0  0
    3.3442  -35.5014  -12.5341 O   0  5  0  0  0  0  0  0  0  0  0  0
    7.0821  -34.0871  -17.2006 O   0  5  0  0  0  0  0  0  0  0  0  0
    3.0288  -33.1380  -13.6077 O   0  0  0  0  0  0  0  0  0  0  0  0
    8.8971  -35.9692  -17.1706 O   0  0  0  0  0  0  0  0  0  0  0  0
    3.3159  -36.0841  -15.3902 C   0  0  0  0  0  0  0  0  0  0  0  0
    8.4751  -34.3474  -14.4305 C   0  0  0  0  0  0  0  0  0  0  0  0
    4.1252  -35.0208  -14.8908 O   0  0  0  0  0  0  0  0  0  0  0  0
    7.6512  -35.3209  -15.0677 O   0  0  0  0  0  0  0  0  0  0  0  0
    4.1461  -36.9597  -16.3212 C   0  0  1  0  0  0  0  0  0  0  0  0
    7.6642  -33.6027  -13.3775 C   0  0  1  0  0  0  0  0  0  0  0  0
    3.2821  -37.6715  -17.2114 O   0  0  0  0  0  0  0  0  0  0  0  0
    8.2579  -32.3270  -13.1245 O   0  0  0  0  0  0  0  0  0  0  0  0
    5.0948  -36.1235  -17.1633 C   0  0  1  0  0  0  0  0  0  0  0  0
    6.2370  -33.3663  -13.8453 C   0  0  1  0  0  0  0  0  0  0  0  0
    6.4417  -36.5170  -16.9184 O   0  0  0  0  0  0  0  0  0  0  0  0
    5.3197  -33.9765  -12.9423 O   0  0  0  0  0  0  0  0  0  0  0  0
    4.7308  -36.3894  -18.6122 C   0  0  0  0  0  0  0  0  0  0  0  0
    6.0324  -31.8637  -13.8579 C   0  0  0  0  0  0  0  0  0  0  0  0
    3.5731  -37.3761  -18.5801 C   0  0  2  0  0  0  0  0  0  0  0  0
    7.3491  -31.2568  -13.3944 C   0  0  2  0  0  0  0  0  0  0  0  0
    0.2168  -33.3376  -18.6426 N   0  0  0  0  0  0  0  0  0  0  0  0
    1.2742  -33.5748  -17.8445 C   0  0  0  0  0  0  0  0  0  0  0  0
    2.0553  -34.6662  -17.9432 N   0  0  0  0  0  0  0  0  0  0  0  0
    1.8116  -35.6131  -18.8807 C   0  0  0  0  0  0  0  0  0  0  0  0
    0.6722  -35.4255  -19.7925 C   0  0  0  0  0  0  0  0  0  0  0  0
   -0.1416  -34.1986  -19.6211 C   0  0  0  0  0  0  0  0  0  0  0  0
   -1.2078  -33.9482  -20.4187 N   0  0  0  0  0  0  0  0  0  0  0  0
    0.6558  -36.4940  -20.6113 N   0  0  0  0  0  0  0  0  0  0  0  0
    1.6923  -37.2956  -20.2562 C   0  0  0  0  0  0  0  0  0  0  0  0
    2.3815  -36.7706  -19.2249 N   0  0  0  0  0  0  0  0  0  0  0  0
    9.9165  -26.8184  -14.5263 N   0  0  0  0  0  0  0  0  0  0  0  0
    9.5556  -27.3325  -13.3360 C   0  0  0  0  0  0  0  0  0  0  0  0
    8.8927  -28.4943  -13.1935 N   0  0  0  0  0  0  0  0  0  0  0  0
    8.5429  -29.2311  -14.2755 C   0  0  0  0  0  0  0  0  0  0  0  0
    8.9026  -28.7354  -15.6130 C   0  0  0  0  0  0  0  0  0  0  0  0
    9.6325  -27.4477  -15.6869 C   0  0  0  0  0  0  0  0  0  0  0  0
   10.0021  -26.9200  -16.8798 N   0  0  0  0  0  0  0  0  0  0  0  0
    8.4449  -29.6439  -16.4950 N   0  0  0  0  0  0  0  0  0  0  0  0
    7.8447  -30.6336  -15.7849 C   0  0  0  0  0  0  0  0  0  0  0  0
    7.9029  -30.3878  -14.4631 N   0  0  0  0  0  0  0  0  0  0  0  0
  1  3  1  1  0  0  0
  1  5  2  0  0  0  0
  1  9  1  0  0  0  0
  1 18  1  0  0  0  0
  2  4  1  6  0  0  0
  2  6  2  0  0  0  0
  2 10  1  0  0  0  0
  2 17  1  0  0  0  0
  7  9  1  0  0  0  0
  8 10  1  0  0  0  0
 11  7  1  1  0  0  0
 11 13  1  0  0  0  0
 11 15  1  0  0  0  0
 12  8  1  6  0  0  0
 12 14  1  0  0  0  0
 12 16  1  0  0  0  0
 13 21  1  0  0  0  0
 14 22  1  0  0  0  0
 15 17  1  6  0  0  0
 15 19  1  0  0  0  0
 16 18  1  1  0  0  0
 16 20  1  0  0  0  0
 19 21  1  0  0  0  0
 20 22  1  0  0  0  0
 21 32  1  1  0  0  0
 22 42  1  6  0  0  0
 23 24  2  0  0  0  0
 23 28  1  0  0  0  0
 24 25  1  0  0  0  0
 25 26  2  0  0  0  0
 26 27  1  0  0  0  0
 26 32  1  0  0  0  0
 27 28  2  0  0  0  0
 27 30  1  0  0  0  0
 28 29  1  0  0  0  0
 30 31  2  0  0  0  0
 31 32  1  0  0  0  0
 33 34  2  0  0  0  0
 33 38  1  0  0  0  0
 34 35  1  0  0  0  0
 35 36  2  0  0  0  0
 36 37  1  0  0  0  0
 36 42  1  0  0  0  0
 37 38  2  0  0  0  0
 37 40  1  0  0  0  0
 38 39  1  0  0  0  0
 40 41  2  0  0  0  0
 41 42  1  0  0  0  0
M  CHG  2   3  -1   4  -1
M  END
>  <CHROM.1>
62.62951549,-99.05798660,5.38781474,-33.58670858,-16.05158400,-2.64280059
-0.69434612,-0.30824046

>  <Name>
ligand

>  <RI>
0

>  <Rbt.Current_Directory>
/home/itssahil/PROJECTS/Mol_Feturizer/New_Systems/rnas/4QLN

>  <Rbt.Executable>
rbdock ($Id: //depot/dev/client3/rdock/2013.1/src/exe/rbdock.cxx#4 $)

>  <Rbt.Library>
libRbt.so (2013.1, Build901 2013/11/27)

>  <Rbt.Parameter_File>
/export/apps/rDock/src/rDock_2013.1_src/data/scripts/dock_solv.prm

>  <Rbt.Receptor>
prm/pocket_docking_4.prm

>  <SCORE>
-35.909

>  <SCORE.INTER>
-36.2534

>  <SCORE.INTER.CONST>
1

>  <SCORE.INTER.POLAR>
0

>  <SCORE.INTER.ROT>
2

>  <SCORE.INTER.SOLV>
33.531

>  <SCORE.INTER.VDW>
-40.2792

>  <SCORE.INTER.norm>
-0.863175

>  <SCORE.INTRA>
0.344371

>  <SCORE.INTRA.DIHEDRAL>
-0.000483948

>  <SCORE.INTRA.DIHEDRAL.0>
2.39985

>  <SCORE.INTRA.POLAR>
0

>  <SCORE.INTRA.POLAR.0>
0

>  <SCORE.INTRA.REPUL>
0

>  <SCORE.INTRA.REPUL.0>
0

>  <SCORE.INTRA.SOLV>
-0.0088742

>  <SCORE.INTRA.SOLV.lig_0>
-110.958

>  <SCORE.INTRA.VDW>
0.349051

>  <SCORE.INTRA.VDW.0>
-2.34644

>  <SCORE.INTRA.norm>
0.00819932

>  <SCORE.RESTR>
0

>  <SCORE.RESTR.CAVITY>
0

>  <SCORE.RESTR.norm>
0

>  <SCORE.SYSTEM>
0

>  <SCORE.SYSTEM.CONST>
0

>  <SCORE.SYSTEM.DIHEDRAL>
0

>  <SCORE.SYSTEM.SOLV>
0

>  <SCORE.SYSTEM.norm>
0

>  <SCORE.heavy>
42

>  <SCORE.norm>
-0.854976

>  <RMSD>
0.839

$$$$
ligand
 OpenBabel11021811513D
libRbt.so/2013.1/901 2013/11/27
 42 48  0  0  0  0  0  0  0  0999 V2000
    3.7763  -34.4091  -13.3986 P   0  0  2  0  0  0  0  0  0  0  0  0
    7.5434  -35.4326  -16.6042 P   0  0  1  0  0  0  0  0  0  0  0  0
    3.2614  -35.5142  -12.5062 O   0  5  0  0  0  0  0  0  0  0  0  0
    7.0510  -34.1065  -17.1328 O   0  5  0  0  0  0  0  0  0  0  0  0
    2.9669  -33.1471  -13.5776 O   0  0  0  0  0  0  0  0  0  0  0  0
    8.8572  -35.9967  -17.0892 O   0  0  0  0  0  0  0  0  0  0  0  0
    3.2585  -36.0907  -15.3637 C   0  0  0  0  0  0  0  0  0  0  0  0
    8.4157  -34.3789  -14.3498 C   0  0  0  0  0  0  0  0  0  0  0  0
    4.0675  -35.0319  -14.8541 O   0  0  0  0  0  0  0  0  0  0  0  0
    7.5937  -35.3474  -14.9971 O   0  0  0  0  0  0  0  0  0  0  0  0
    4.0938  -36.9679  -16.2885 C   0  0  1  0  0  0  0  0  0  0  0  0
    7.5977  -33.6329  -13.3031 C   0  0  1  0  0  0  0  0  0  0  0  0
    3.2354  -37.6739  -17.1886 O   0  0  0  0  0  0  0  0  0  0  0  0
    8.1945  -32.3604  -13.0415 O   0  0  0  0  0  0  0  0  0  0  0  0
    5.0544  -36.1341  -17.1194 C   0  0  1  0  0  0  0  0  0  0  0  0
    6.1762  -33.3891  -13.7843 C   0  0  1  0  0  0  0  0  0  0  0  0
    6.3971  -36.5341  -16.8622 O   0  0  0  0  0  0  0  0  0  0  0  0
    5.2474  -33.9972  -12.8917 O   0  0  0  0  0  0  0  0  0  0  0  0
    4.7034  -36.3952  -18.5724 C   0  0  0  0  0  0  0  0  0  0  0  0
    5.9785  -31.8857  -13.7957 C   0  0  0  0  0  0  0  0  0  0  0  0
    3.5411  -37.3769  -18.5537 C   0  0  2  0  0  0  0  0  0  0  0  0
    7.2932  -31.2856  -13.3179 C   0  0  2  0  0  0  0  0  0  0  0  0
    0.1899  -33.3343  -18.6258 N   0  0  0  0  0  0  0  0  0  0  0  0
    1.2366  -33.5793  -17.8162 C   0  0  0  0  0  0  0  0  0  0  0  0
    2.0179  -34.6708  -17.9139 N   0  0  0  0  0  0  0  0  0  0  0  0
    1.7854  -35.6095  -18.8624 C   0  0  0  0  0  0  0  0  0  0  0  0
    0.6581  -35.4131  -19.7873 C   0  0  0  0  0  0  0  0  0  0  0  0
   -0.1567  -34.1867  -19.6162 C   0  0  0  0  0  0  0  0  0  0  0  0
   -1.2122  -33.9285  -20.4254 N   0  0  0  0  0  0  0  0  0  0  0  0
    0.6513  -36.4746  -20.6152 N   0  0  0  0  0  0  0  0  0  0  0  0
    1.6823  -37.2803  -20.2534 C   0  0  0  0  0  0  0  0  0  0  0  0
    2.3586  -36.7647  -19.2089 N   0  0  0  0  0  0  0  0  0  0  0  0
    9.9102  -26.8671  -14.4137 N   0  0  0  0  0  0  0  0  0  0  0  0
    9.5378  -27.3835  -13.2279 C   0  0  0  0  0  0  0  0  0  0  0  0
    8.8628  -28.5395  -13.0949 N   0  0  0  0  0  0  0  0  0  0  0  0
    8.5115  -29.2674  -14.1824 C   0  0  0  0  0  0  0  0  0  0  0  0
    8.8834  -28.7685  -15.5155 C   0  0  0  0  0  0  0  0  0  0  0  0
    9.6263  -27.4878  -15.5790 C   0  0  0  0  0  0  0  0  0  0  0  0
   10.0075  -26.9577  -16.7672 N   0  0  0  0  0  0  0  0  0  0  0  0
    8.4215  -29.6681  -16.4045 N   0  0  0  0  0  0  0  0  0  0  0  0
    7.8079  -30.6554  -15.7026 C   0  0  0  0  0  0  0  0  0  0  0  0
    7.8613  -30.4167  -14.3793 N   0  0  0  0  0  0  0  0  0  0  0  0
  1  3  1  1  0  0  0
  1  5  2  0  0  0  0
  1  9  1  0  0  0  0
  1 18  1  0  0  0  0
  2  4  1  6  0  0  0
  2  6  2  0  0  0  0
  2 10  1  0  0  0  0
  2 17  1  0  0  0  0
  7  9  1  0  0  0  0
  8 10  1  0  0  0  0
 11  7  1  1  0  0  0
 11 13  1  0  0  0  0
 11 15  1  0  0  0  0
 12  8  1  6  0  0  0
 12 14  1  0  0  0  0
 12 16  1  0  0  0  0
 13 21  1  0  0  0  0
 14 22  1  0  0  0  0
 15 17  1  6  0  0  0
 15 19  1  0  0  0  0
 16 18  1  1  0  0  0
 16 20  1  0  0  0  0
 19 21  1  0  0  0  0
 20 22  1  0  0  0  0
 21 32  1  1  0  0  0
 22 42  1  6  0  0  0
 23 24  2  0  0  0  0
 23 28  1  0  0  0  0
 24 25  1  0  0  0  0
 25 26  2  0  0  0  0
 26 27  1  0  0  0  0
 26 32  1  0  0  0  0
 27 28  2  0  0  0  0
 27 30  1  0  0  0  0
 28 29  1  0  0  0  0
 30 31  2  0  0  0  0
 31 32  1  0  0  0  0
 33 34  2  0  0  0  0
 33 38  1  0  0  0  0
 34 35  1  0  0  0  0
 35 36  2  0  0  0  0
 36 37  1  0  0  0  0
 36 42  1  0  0  0  0
 37 38  2  0  0  0  0
 37 40  1  0  0  0  0
 38 39  1  0  0  0  0
 40 41  2  0  0  0  0
 41 42  1  0  0  0  0
M  CHG  2   3  -1   4  -1
M  END
>  <CHROM.1>
62.18474909,-98.62644131,5.34819309,-33.60281908,-15.99802561,-2.65301915
-0.70123462,-0.31247610

>  <Name>
ligand

>  <RI>
0

>  <Rbt.Current_Directory>
/home/itssahil/PROJECTS/Mol_Feturizer/New_Systems/rnas/4QLN

>  <Rbt.Executable>
rbdock ($Id: //depot/dev/client3/rdock/2013.1/src/exe/rbdock.cxx#4 $)

>  <Rbt.Library>
libRbt.so (2013.1, Build901 2013/11/27)

>  <Rbt.Parameter_File>
/export/apps/rDock/src/rDock_2013.1_src/data/scripts/dock_solv.prm

>  <Rbt.Receptor>
prm/pocket_docking_6.prm

>  <SCORE>
-35.8472

>  <SCORE.INTER>
-36.1952

>  <SCORE.INTER.CONST>
1

>  <SCORE.INTER.POLAR>
0

>  <SCORE.INTER.ROT>
2

>  <SCORE.INTER.SOLV>
33.2302

>  <SCORE.INTER.VDW>
-40.1402

>  <SCORE.INTER.norm>
-0.861791

>  <SCORE.INTRA>
0.348033

>  <SCORE.INTRA.DIHEDRAL>
-0.000497596

>  <SCORE.INTRA.DIHEDRAL.0>
2.39985

>  <SCORE.INTRA.POLAR>
0

>  <SCORE.INTRA.POLAR.0>
0

>  <SCORE.INTRA.REPUL>
0

>  <SCORE.INTRA.REPUL.0>
0

>  <SCORE.INTRA.SOLV>
-0.00876101

>  <SCORE.INTRA.SOLV.lig_0>
-110.958

>  <SCORE.INTRA.VDW>
0.352662

>  <SCORE.INTRA.VDW.0>
-2.34644

>  <SCORE.INTRA.norm>
0.00828649

>  <SCORE.RESTR>
0

>  <SCORE.RESTR.CAVITY>
0

>  <SCORE.RESTR.norm>
0

>  <SCORE.SYSTEM>
0

>  <SCORE.SYSTEM.CONST>
0

>  <SCORE.SYSTEM.DIHEDRAL>
0

>  <SCORE.SYSTEM.SOLV>
0

>  <SCORE.SYSTEM.norm>
0

>  <SCORE.heavy>
42

>  <SCORE.norm>
-0.853504

>  <RMSD>
0.839

$$$$
ligand
 OpenBabel11021811513D
libRbt.so/2013.1/901 2013/11/27
 42 48  0  0  0  0  0  0  0  0999 V2000
    3.7762  -34.4199  -13.3936 P   0  0  2  0  0  0  0  0  0  0  0  0
    7.5381  -35.4358  -16.6077 P   0  0  1  0  0  0  0  0  0  0  0  0
    3.2656  -35.5260  -12.4999 O   0  5  0  0  0  0  0  0  0  0  0  0
    7.0417  -34.1108  -17.1353 O   0  5  0  0  0  0  0  0  0  0  0  0
    2.9638  -33.1595  -13.5708 O   0  0  0  0  0  0  0  0  0  0  0  0
    8.8519  -35.9972  -17.0957 O   0  0  0  0  0  0  0  0  0  0  0  0
    3.2573  -36.1026  -15.3573 C   0  0  0  0  0  0  0  0  0  0  0  0
    8.4133  -34.3802  -14.3554 C   0  0  0  0  0  0  0  0  0  0  0  0
    4.0653  -35.0422  -14.8497 O   0  0  0  0  0  0  0  0  0  0  0  0
    7.5918  -35.3504  -15.0008 O   0  0  0  0  0  0  0  0  0  0  0  0
    4.0924  -36.9782  -16.2840 C   0  0  1  0  0  0  0  0  0  0  0  0
    7.5962  -33.6358  -13.3069 C   0  0  1  0  0  0  0  0  0  0  0  0
    3.2334  -37.6860  -17.1821 O   0  0  0  0  0  0  0  0  0  0  0  0
    8.1910  -32.3621  -13.0467 O   0  0  0  0  0  0  0  0  0  0  0  0
    5.0493  -36.1425  -17.1172 C   0  0  1  0  0  0  0  0  0  0  0  0
    6.1731  -33.3950  -13.7849 C   0  0  1  0  0  0  0  0  0  0  0  0
    6.3934  -36.5396  -16.8630 O   0  0  0  0  0  0  0  0  0  0  0  0
    5.2476  -34.0049  -12.8901 O   0  0  0  0  0  0  0  0  0  0  0  0
    4.6955  -36.4044  -18.5693 C   0  0  0  0  0  0  0  0  0  0  0  0
    5.9722  -31.8919  -13.7958 C   0  0  0  0  0  0  0  0  0  0  0  0
    3.5353  -37.3884  -18.5480 C   0  0  2  0  0  0  0  0  0  0  0  0
    7.2868  -31.2891  -13.3211 C   0  0  2  0  0  0  0  0  0  0  0  0
    0.1950  -33.3371  -18.6332 N   0  0  0  0  0  0  0  0  0  0  0  0
    1.2466  -33.5779  -17.8286 C   0  0  0  0  0  0  0  0  0  0  0  0
    2.0241  -34.6724  -17.9219 N   0  0  0  0  0  0  0  0  0  0  0  0
    1.7825  -35.6189  -18.8604 C   0  0  0  0  0  0  0  0  0  0  0  0
    0.6494  -35.4275  -19.7792 C   0  0  0  0  0  0  0  0  0  0  0  0
   -0.1607  -34.1973  -19.6135 C   0  0  0  0  0  0  0  0  0  0  0  0
   -1.2211  -33.9433  -20.4177 N   0  0  0  0  0  0  0  0  0  0  0  0
    0.6339  -36.4963  -20.5975 N   0  0  0  0  0  0  0  0  0  0  0  0
    1.6652  -37.3017  -20.2356 C   0  0  0  0  0  0  0  0  0  0  0  0
    2.3501  -36.7788  -19.2004 N   0  0  0  0  0  0  0  0  0  0  0  0
    9.8789  -26.8577  -14.4240 N   0  0  0  0  0  0  0  0  0  0  0  0
    9.5086  -27.3739  -13.2374 C   0  0  0  0  0  0  0  0  0  0  0  0
    8.8402  -28.5335  -13.1025 N   0  0  0  0  0  0  0  0  0  0  0  0
    8.4941  -29.2656  -14.1889 C   0  0  0  0  0  0  0  0  0  0  0  0
    8.8640  -28.7674  -15.5226 C   0  0  0  0  0  0  0  0  0  0  0  0
    9.5995  -27.4824  -15.5882 C   0  0  0  0  0  0  0  0  0  0  0  0
    9.9786  -26.9527  -16.7772 N   0  0  0  0  0  0  0  0  0  0  0  0
    8.4081  -29.6715  -16.4101 N   0  0  0  0  0  0  0  0  0  0  0  0
    7.7997  -30.6609  -15.7067 C   0  0  0  0  0  0  0  0  0  0  0  0
    7.8507  -30.4192  -14.3838 N   0  0  0  0  0  0  0  0  0  0  0  0
  1  3  1  1  0  0  0
  1  5  2  0  0  0  0
  1  9  1  0  0  0  0
  1 18  1  0  0  0  0
  2  4  1  6  0  0  0
  2  6  2  0  0  0  0
  2 10  1  0  0  0  0
  2 17  1  0  0  0  0
  7  9  1  0  0  0  0
  8 10  1  0  0  0  0
 11  7  1  1  0  0  0
 11 13  1  0  0  0  0
 11 15  1  0  0  0  0
 12  8  1  6  0  0  0
 12 14  1  0  0  0  0
 12 16  1  0  0  0  0
 13 21  1  0  0  0  0
 14 22  1  0  0  0  0
 15 17  1  6  0  0  0
 15 19  1  0  0  0  0
 16 18  1  1  0  0  0
 16 20  1  0  0  0  0
 19 21  1  0  0  0  0
 20 22  1  0  0  0  0
 21 32  1  1  0  0  0
 22 42  1  6  0  0  0
 23 24  2  0  0  0  0
 23 28  1  0  0  0  0
 24 25  1  0  0  0  0
 25 26  2  0  0  0  0
 26 27  1  0  0  0  0
 26 32  1  0  0  0  0
 27 28  2  0  0  0  0
 27 30  1  0  0  0  0
 28 29  1  0  0  0  0
 30 31  2  0  0  0  0
 31 32  1  0  0  0  0
 33 34  2  0  0  0  0
 33 38  1  0  0  0  0
 34 35  1  0  0  0  0
 35 36  2  0  0  0  0
 36 37  1  0  0  0  0
 36 42  1  0  0  0  0
 37 38  2  0  0  0  0
 37 40  1  0  0  0  0
 38 39  1  0  0  0  0
 40 41  2  0  0  0  0
 41 42  1  0  0  0  0
M  CHG  2   3  -1   4  -1
M  END
>  <CHROM.1>
62.82146507,-98.92723178,5.34095663,-33.60860483,-15.99838392,-2.65017819
-0.70154980,-0.31179954

>  <Name>
ligand

>  <RI>
0

>  <Rbt.Current_Directory>
/home/itssahil/PROJECTS/Mol_Feturizer/New_Systems/rnas/4QLN

>  <Rbt.Executable>
rbdock ($Id: //depot/dev/client3/rdock/2013.1/src/exe/rbdock.cxx#4 $)

>  <Rbt.Library>
libRbt.so (2013.1, Build901 2013/11/27)

>  <Rbt.Parameter_File>
/export/apps/rDock/src/rDock_2013.1_src/data/scripts/dock_solv.prm

>  <Rbt.Receptor>
prm/pocket_docking_2.prm

>  <SCORE>
-35.8595

>  <SCORE.INTER>
-36.2098

>  <SCORE.INTER.CONST>
1

>  <SCORE.INTER.POLAR>
0

>  <SCORE.INTER.ROT>
2

>  <SCORE.INTER.SOLV>
33.1267

>  <SCORE.INTER.VDW>
-40.1154

>  <SCORE.INTER.norm>
-0.862138

>  <SCORE.INTRA>
0.350294

>  <SCORE.INTRA.DIHEDRAL>
-0.000483685

>  <SCORE.INTRA.DIHEDRAL.0>
2.39985

>  <SCORE.INTRA.POLAR>
0

>  <SCORE.INTRA.POLAR.0>
0

>  <SCORE.INTRA.REPUL>
0

>  <SCORE.INTRA.REPUL.0>
0

>  <SCORE.INTRA.SOLV>
-0.00914381

>  <SCORE.INTRA.SOLV.lig_0>
-110.958

>  <SCORE.INTRA.VDW>
0.355108

>  <SCORE.INTRA.VDW.0>
-2.34644

>  <SCORE.INTRA.norm>
0.00834034

>  <SCORE.RESTR>
0

>  <SCORE.RESTR.CAVITY>
0

>  <SCORE.RESTR.norm>
0

>  <SCORE.SYSTEM>
0

>  <SCORE.SYSTEM.CONST>
0

>  <SCORE.SYSTEM.DIHEDRAL>
0

>  <SCORE.SYSTEM.SOLV>
0

>  <SCORE.SYSTEM.norm>
0

>  <SCORE.heavy>
42

>  <SCORE.norm>
-0.853798

>  <RMSD>
0.840

$$$$
ligand
 OpenBabel11021811513D
libRbt.so/2013.1/901 2013/11/27
 42 48  0  0  0  0  0  0  0  0999 V2000
    3.7470  -34.3737  -13.3755 P   0  0  2  0  0  0  0  0  0  0  0  0
    7.5144  -35.4822  -16.5523 P   0  0  1  0  0  0  0  0  0  0  0  0
    3.2238  -35.4579  -12.4625 O   0  5  0  0  0  0  0  0  0  0  0  0
    7.0308  -34.1640  -17.1081 O   0  5  0  0  0  0  0  0  0  0  0  0
    2.9454  -33.1107  -13.5811 O   0  0  0  0  0  0  0  0  0  0  0  0
    8.8258  -36.0634  -17.0233 O   0  0  0  0  0  0  0  0  0  0  0  0
    3.2232  -36.0907  -15.3080 C   0  0  0  0  0  0  0  0  0  0  0  0
    8.3883  -34.3893  -14.3173 C   0  0  0  0  0  0  0  0  0  0  0  0
    4.0374  -35.0268  -14.8177 O   0  0  0  0  0  0  0  0  0  0  0  0
    7.5620  -35.3656  -14.9471 O   0  0  0  0  0  0  0  0  0  0  0  0
    4.0552  -36.9909  -16.2136 C   0  0  1  0  0  0  0  0  0  0  0  0
    7.5727  -33.6180  -13.2873 C   0  0  1  0  0  0  0  0  0  0  0  0
    3.1945  -37.7095  -17.1014 O   0  0  0  0  0  0  0  0  0  0  0  0
    8.1765  -32.3441  -13.0496 O   0  0  0  0  0  0  0  0  0  0  0  0
    5.0224  -36.1792  -17.0588 C   0  0  1  0  0  0  0  0  0  0  0  0
    6.1536  -33.3755  -13.7762 C   0  0  1  0  0  0  0  0  0  0  0  0
    6.3621  -36.5819  -16.7909 O   0  0  0  0  0  0  0  0  0  0  0  0
    5.2195  -33.9604  -12.8737 O   0  0  0  0  0  0  0  0  0  0  0  0
    4.6727  -36.4670  -18.5071 C   0  0  0  0  0  0  0  0  0  0  0  0
    5.9647  -31.8714  -13.8177 C   0  0  0  0  0  0  0  0  0  0  0  0
    3.5046  -37.4413  -18.4715 C   0  0  2  0  0  0  0  0  0  0  0  0
    7.2820  -31.2697  -13.3491 C   0  0  2  0  0  0  0  0  0  0  0  0
    0.1767  -33.3819  -18.6297 N   0  0  0  0  0  0  0  0  0  0  0  0
    1.2203  -33.6171  -17.8131 C   0  0  0  0  0  0  0  0  0  0  0  0
    1.9955  -34.7147  -17.8878 N   0  0  0  0  0  0  0  0  0  0  0  0
    1.7597  -35.6703  -18.8184 C   0  0  0  0  0  0  0  0  0  0  0  0
    0.6355  -35.4856  -19.7495 C   0  0  0  0  0  0  0  0  0  0  0  0
   -0.1726  -34.2515  -19.6041 C   0  0  0  0  0  0  0  0  0  0  0  0
   -1.2249  -34.0031  -20.4205 N   0  0  0  0  0  0  0  0  0  0  0  0
    0.6244  -36.5629  -20.5566 N   0  0  0  0  0  0  0  0  0  0  0  0
    1.6501  -37.3673  -20.1769 C   0  0  0  0  0  0  0  0  0  0  0  0
    2.3271  -36.8353  -19.1410 N   0  0  0  0  0  0  0  0  0  0  0  0
    9.9341  -26.8932  -14.5258 N   0  0  0  0  0  0  0  0  0  0  0  0
    9.5573  -27.3845  -13.3308 C   0  0  0  0  0  0  0  0  0  0  0  0
    8.8731  -28.5324  -13.1766 N   0  0  0  0  0  0  0  0  0  0  0  0
    8.5165  -29.2777  -14.2505 C   0  0  0  0  0  0  0  0  0  0  0  0
    8.8927  -28.8067  -15.5925 C   0  0  0  0  0  0  0  0  0  0  0  0
    9.6457  -27.5333  -15.6795 C   0  0  0  0  0  0  0  0  0  0  0  0
   10.0315  -27.0285  -16.8772 N   0  0  0  0  0  0  0  0  0  0  0  0
    8.4241  -29.7191  -16.4647 N   0  0  0  0  0  0  0  0  0  0  0  0
    7.8024  -30.6882  -15.7449 C   0  0  0  0  0  0  0  0  0  0  0  0
    7.8573  -30.4253  -14.4262 N   0  0  0  0  0  0  0  0  0  0  0  0
  1  3  1  1  0  0  0
  1  5  2  0  0  0  0
  1  9  1  0  0  0  0
  1 18  1  0  0  0  0
  2  4  1  6  0  0  0
  2  6  2  0  0  0  0
  2 10  1  0  0  0  0
  2 17  1  0  0  0  0
  7  9  1  0  0  0  0
  8 10  1  0  0  0  0
 11  7  1  1  0  0  0
 11 13  1  0  0  0  0
 11 15  1  0  0  0  0
 12  8  1  6  0  0  0
 12 14  1  0  0  0  0
 12 16  1  0  0  0  0
 13 21  1  0  0  0  0
 14 22  1  0  0  0  0
 15 17  1  6  0  0  0
 15 19  1  0  0  0  0
 16 18  1  1  0  0  0
 16 20  1  0  0  0  0
 19 21  1  0  0  0  0
 20 22  1  0  0  0  0
 21 32  1  1  0  0  0
 22 42  1  6  0  0  0
 23 24  2  0  0  0  0
 23 28  1  0  0  0  0
 24 25  1  0  0  0  0
 25 26  2  0  0  0  0
 26 27  1  0  0  0  0
 26 32  1  0  0  0  0
 27 28  2  0  0  0  0
 27 30  1  0  0  0  0
 28 29  1  0  0  0  0
 30 31  2  0  0  0  0
 31 32  1  0  0  0  0
 33 34  2  0  0  0  0
 33 38  1  0  0  0  0
 34 35  1  0  0  0  0
 35 36  2  0  0  0  0
 36 37  1  0  0  0  0
 36 42  1  0  0  0  0
 37 38  2  0  0  0  0
 37 40  1  0  0  0  0
 38 39  1  0  0  0  0
 40 41  2  0  0  0  0
 41 42  1  0  0  0  0
M  CHG  2   3  -1   4  -1
M  END
>  <CHROM.1>
62.16351787,-98.46407821,5.32927493,-33.62844657,-15.98689333,-2.66198319
-0.70139130,-0.33839948

>  <Name>
ligand

>  <RI>
0

>  <Rbt.Current_Directory>
/home/itssahil/PROJECTS/Mol_Feturizer/New_Systems/rnas/4QLN

>  <Rbt.Executable>
rbdock ($Id: //depot/dev/client3/rdock/2013.1/src/exe/rbdock.cxx#4 $)

>  <Rbt.Library>
libRbt.so (2013.1, Build901 2013/11/27)

>  <Rbt.Parameter_File>
/export/apps/rDock/src/rDock_2013.1_src/data/scripts/dock_solv.prm

>  <Rbt.Receptor>
prm/pocket_docking_2.prm

>  <SCORE>
-35.815

>  <SCORE.INTER>
-36.1665

>  <SCORE.INTER.CONST>
1

>  <SCORE.INTER.POLAR>
0

>  <SCORE.INTER.ROT>
2

>  <SCORE.INTER.SOLV>
33.3218

>  <SCORE.INTER.VDW>
-40.1516

>  <SCORE.INTER.norm>
-0.861108

>  <SCORE.INTRA>
0.351524

>  <SCORE.INTRA.DIHEDRAL>
-0.000500656

>  <SCORE.INTRA.DIHEDRAL.0>
2.39985

>  <SCORE.INTRA.POLAR>
0

>  <SCORE.INTRA.POLAR.0>
0

>  <SCORE.INTRA.REPUL>
0

>  <SCORE.INTRA.REPUL.0>
0

>  <SCORE.INTRA.SOLV>
-0.00886041

>  <SCORE.INTRA.SOLV.lig_0>
-110.958

>  <SCORE.INTRA.VDW>
0.356204

>  <SCORE.INTRA.VDW.0>
-2.34644

>  <SCORE.INTRA.norm>
0.00836962

>  <SCORE.RESTR>
0

>  <SCORE.RESTR.CAVITY>
0

>  <SCORE.RESTR.norm>
0

>  <SCORE.SYSTEM>
0

>  <SCORE.SYSTEM.CONST>
0

>  <SCORE.SYSTEM.DIHEDRAL>
0

>  <SCORE.SYSTEM.SOLV>
0

>  <SCORE.SYSTEM.norm>
0

>  <SCORE.heavy>
42

>  <SCORE.norm>
-0.852738

>  <RMSD>
0.840

$$$$
ligand
 OpenBabel11021811513D
libRbt.so/2013.1/901 2013/11/27
 42 48  0  0  0  0  0  0  0  0999 V2000
    3.8401  -34.3924  -13.4304 P   0  0  2  0  0  0  0  0  0  0  0  0
    7.5764  -35.4160  -16.6718 P   0  0  1  0  0  0  0  0  0  0  0  0
    3.3369  -35.4962  -12.5297 O   0  5  0  0  0  0  0  0  0  0  0  0
    7.0755  -34.0925  -17.1989 O   0  5  0  0  0  0  0  0  0  0  0  0
    3.0260  -33.1326  -13.6045 O   0  0  0  0  0  0  0  0  0  0  0  0
    8.8864  -35.9784  -17.1687 O   0  0  0  0  0  0  0  0  0  0  0  0
    3.3060  -36.0804  -15.3854 C   0  0  0  0  0  0  0  0  0  0  0  0
    8.4693  -34.3542  -14.4293 C   0  0  0  0  0  0  0  0  0  0  0  0
    4.1177  -35.0185  -14.8871 O   0  0  0  0  0  0  0  0  0  0  0  0
    7.6430  -35.3263  -15.0655 O   0  0  0  0  0  0  0  0  0  0  0  0
    4.1338  -36.9583  -16.3164 C   0  0  1  0  0  0  0  0  0  0  0  0
    7.6605  -33.6072  -13.3763 C   0  0  1  0  0  0  0  0  0  0  0  0
    3.2678  -37.6687  -17.2057 O   0  0  0  0  0  0  0  0  0  0  0  0
    8.2570  -32.3326  -13.1243 O   0  0  0  0  0  0  0  0  0  0  0  0
    5.0839  -36.1246  -17.1594 C   0  0  1  0  0  0  0  0  0  0  0  0
    6.2336  -33.3680  -13.8435 C   0  0  1  0  0  0  0  0  0  0  0  0
    6.4300  -36.5208  -16.9150 O   0  0  0  0  0  0  0  0  0  0  0  0
    5.3154  -33.9757  -12.9398 O   0  0  0  0  0  0  0  0  0  0  0  0
    4.7185  -36.3905  -18.6080 C   0  0  0  0  0  0  0  0  0  0  0  0
    6.0323  -31.8650  -13.8569 C   0  0  0  0  0  0  0  0  0  0  0  0
    3.5587  -37.3747  -18.5747 C   0  0  2  0  0  0  0  0  0  0  0  0
    7.3504  -31.2606  -13.3944 C   0  0  2  0  0  0  0  0  0  0  0  0
    0.2021  -33.3363  -18.6281 N   0  0  0  0  0  0  0  0  0  0  0  0
    1.2583  -33.5763  -17.8292 C   0  0  0  0  0  0  0  0  0  0  0  0
    2.0396  -34.6673  -17.9306 N   0  0  0  0  0  0  0  0  0  0  0  0
    1.7975  -35.6108  -18.8719 C   0  0  0  0  0  0  0  0  0  0  0  0
    0.6596  -35.4201  -19.7848 C   0  0  0  0  0  0  0  0  0  0  0  0
   -0.1546  -34.1939  -19.6103 C   0  0  0  0  0  0  0  0  0  0  0  0
   -1.2196  -33.9407  -20.4088 N   0  0  0  0  0  0  0  0  0  0  0  0
    0.6446  -36.4856  -20.6075 N   0  0  0  0  0  0  0  0  0  0  0  0
    1.6807  -37.2884  -20.2537 C   0  0  0  0  0  0  0  0  0  0  0  0
    2.3682  -36.7670  -19.2193 N   0  0  0  0  0  0  0  0  0  0  0  0
    9.9426  -26.8374  -14.5291 N   0  0  0  0  0  0  0  0  0  0  0  0
    9.5832  -27.3511  -13.3382 C   0  0  0  0  0  0  0  0  0  0  0  0
    8.9132  -28.5088  -13.1951 N   0  0  0  0  0  0  0  0  0  0  0  0
    8.5540  -29.2413  -14.2769 C   0  0  0  0  0  0  0  0  0  0  0  0
    8.9115  -28.7456  -15.6150 C   0  0  0  0  0  0  0  0  0  0  0  0
    9.6496  -27.4627  -15.6897 C   0  0  0  0  0  0  0  0  0  0  0  0
   10.0178  -26.9353  -16.8831 N   0  0  0  0  0  0  0  0  0  0  0  0
    8.4441  -29.6495  -16.4966 N   0  0  0  0  0  0  0  0  0  0  0  0
    7.8403  -30.6365  -15.7858 C   0  0  0  0  0  0  0  0  0  0  0  0
    7.9056  -30.3934  -14.4638 N   0  0  0  0  0  0  0  0  0  0  0  0
  1  3  1  1  0  0  0
  1  5  2  0  0  0  0
  1  9  1  0  0  0  0
  1 18  1  0  0  0  0
  2  4  1  6  0  0  0
  2  6  2  0  0  0  0
  2 10  1  0  0  0  0
  2 17  1  0  0  0  0
  7  9  1  0  0  0  0
  8 10  1  0  0  0  0
 11  7  1  1  0  0  0
 11 13  1  0  0  0  0
 11 15  1  0  0  0  0
 12  8  1  6  0  0  0
 12 14  1  0  0  0  0
 12 16  1  0  0  0  0
 13 21  1  0  0  0  0
 14 22  1  0  0  0  0
 15 17  1  6  0  0  0
 15 19  1  0  0  0  0
 16 18  1  1  0  0  0
 16 20  1  0  0  0  0
 19 21  1  0  0  0  0
 20 22  1  0  0  0  0
 21 32  1  1  0  0  0
 22 42  1  6  0  0  0
 23 24  2  0  0  0  0
 23 28  1  0  0  0  0
 24 25  1  0  0  0  0
 25 26  2  0  0  0  0
 26 27  1  0  0  0  0
 26 32  1  0  0  0  0
 27 28  2  0  0  0  0
 27 30  1  0  0  0  0
 28 29  1  0  0  0  0
 30 31  2  0  0  0  0
 31 32  1  0  0  0  0
 33 34  2  0  0  0  0
 33 38  1  0  0  0  0
 34 35  1  0  0  0  0
 35 36  2  0  0  0  0
 36 37  1  0  0  0  0
 36 42  1  0  0  0  0
 37 38  2  0  0  0  0
 37 40  1  0  0  0  0
 38 39  1  0  0  0  0
 40 41  2  0  0  0  0
 41 42  1  0  0  0  0
M  CHG  2   3  -1   4  -1
M  END
>  <CHROM.1>
62.33216535,-98.70143696,5.38340932,-33.58913555,-16.04840176,-2.64618477
-0.69256944,-0.31104772

>  <Name>
ligand

>  <RI>
0

>  <Rbt.Current_Directory>
/home/itssahil/PROJECTS/Mol_Feturizer/New_Systems/rnas/4QLN

>  <Rbt.Executable>
rbdock ($Id: //depot/dev/client3/rdock/2013.1/src/exe/rbdock.cxx#4 $)

>  <Rbt.Library>
libRbt.so (2013.1, Build901 2013/11/27)

>  <Rbt.Parameter_File>
/export/apps/rDock/src/rDock_2013.1_src/data/scripts/dock_solv.prm

>  <Rbt.Receptor>
prm/pocket_docking_2.prm

>  <SCORE>
-35.8794

>  <SCORE.INTER>
-36.2278

>  <SCORE.INTER.CONST>
1

>  <SCORE.INTER.POLAR>
0

>  <SCORE.INTER.ROT>
2

>  <SCORE.INTER.SOLV>
33.5806

>  <SCORE.INTER.VDW>
-40.2787

>  <SCORE.INTER.norm>
-0.862566

>  <SCORE.INTRA>
0.348343

>  <SCORE.INTRA.DIHEDRAL>
-0.000494294

>  <SCORE.INTRA.DIHEDRAL.0>
2.39985

>  <SCORE.INTRA.POLAR>
0

>  <SCORE.INTRA.POLAR.0>
0

>  <SCORE.INTRA.REPUL>
0

>  <SCORE.INTRA.REPUL.0>
0

>  <SCORE.INTRA.SOLV>
-0.00884496

>  <SCORE.INTRA.SOLV.lig_0>
-110.958

>  <SCORE.INTRA.VDW>
0.353012

>  <SCORE.INTRA.VDW.0>
-2.34644

>  <SCORE.INTRA.norm>
0.00829388

>  <SCORE.RESTR>
0

>  <SCORE.RESTR.CAVITY>
0

>  <SCORE.RESTR.norm>
0

>  <SCORE.SYSTEM>
0

>  <SCORE.SYSTEM.CONST>
0

>  <SCORE.SYSTEM.DIHEDRAL>
0

>  <SCORE.SYSTEM.SOLV>
0

>  <SCORE.SYSTEM.norm>
0

>  <SCORE.heavy>
42

>  <SCORE.norm>
-0.854272

>  <RMSD>
0.841

$$$$
ligand
 OpenBabel11021811513D
libRbt.so/2013.1/901 2013/11/27
 42 48  0  0  0  0  0  0  0  0999 V2000
    3.7807  -34.4093  -13.3953 P   0  0  2  0  0  0  0  0  0  0  0  0
    7.5441  -35.4384  -16.6034 P   0  0  1  0  0  0  0  0  0  0  0  0
    3.2714  -35.5110  -12.4954 O   0  5  0  0  0  0  0  0  0  0  0  0
    7.0461  -34.1170  -17.1385 O   0  5  0  0  0  0  0  0  0  0  0  0
    2.9666  -33.1510  -13.5797 O   0  0  0  0  0  0  0  0  0  0  0  0
    8.8588  -36.0008  -17.0881 O   0  0  0  0  0  0  0  0  0  0  0  0
    3.2642  -36.1038  -15.3496 C   0  0  0  0  0  0  0  0  0  0  0  0
    8.4178  -34.3689  -14.3570 C   0  0  0  0  0  0  0  0  0  0  0  0
    4.0707  -35.0394  -14.8478 O   0  0  0  0  0  0  0  0  0  0  0  0
    7.5976  -35.3438  -14.9969 O   0  0  0  0  0  0  0  0  0  0  0  0
    4.1005  -36.9835  -16.2712 C   0  0  1  0  0  0  0  0  0  0  0  0
    7.5996  -33.6197  -13.3127 C   0  0  1  0  0  0  0  0  0  0  0  0
    3.2425  -37.6975  -17.1654 O   0  0  0  0  0  0  0  0  0  0  0  0
    8.1927  -32.3437  -13.0597 O   0  0  0  0  0  0  0  0  0  0  0  0
    5.0564  -36.1512  -17.1090 C   0  0  1  0  0  0  0  0  0  0  0  0
    6.1763  -33.3835  -13.7922 C   0  0  1  0  0  0  0  0  0  0  0  0
    6.4010  -36.5452  -16.8525 O   0  0  0  0  0  0  0  0  0  0  0  0
    5.2515  -33.9896  -12.8941 O   0  0  0  0  0  0  0  0  0  0  0  0
    4.7031  -36.4218  -18.5597 C   0  0  0  0  0  0  0  0  0  0  0  0
    5.9734  -31.8808  -13.8116 C   0  0  0  0  0  0  0  0  0  0  0  0
    3.5442  -37.4072  -18.5329 C   0  0  2  0  0  0  0  0  0  0  0  0
    7.2871  -31.2736  -13.3403 C   0  0  2  0  0  0  0  0  0  0  0  0
    0.2251  -33.3399  -18.6699 N   0  0  0  0  0  0  0  0  0  0  0  0
    1.2803  -33.5721  -17.8676 C   0  0  0  0  0  0  0  0  0  0  0  0
    2.0513  -34.6723  -17.9461 N   0  0  0  0  0  0  0  0  0  0  0  0
    1.7989  -35.6340  -18.8661 C   0  0  0  0  0  0  0  0  0  0  0  0
    0.6611  -35.4528  -19.7813 C   0  0  0  0  0  0  0  0  0  0  0  0
   -0.1414  -34.2155  -19.6325 C   0  0  0  0  0  0  0  0  0  0  0  0
   -1.2053  -33.9700  -20.4347 N   0  0  0  0  0  0  0  0  0  0  0  0
    0.6349  -36.5359  -20.5803 N   0  0  0  0  0  0  0  0  0  0  0  0
    1.6641  -37.3403  -20.2104 C   0  0  0  0  0  0  0  0  0  0  0  0
    2.3581  -36.8028  -19.1888 N   0  0  0  0  0  0  0  0  0  0  0  0
    9.9301  -26.8777  -14.4645 N   0  0  0  0  0  0  0  0  0  0  0  0
    9.5677  -27.3919  -13.2747 C   0  0  0  0  0  0  0  0  0  0  0  0
    8.8839  -28.5418  -13.1343 N   0  0  0  0  0  0  0  0  0  0  0  0
    8.5129  -29.2656  -14.2180 C   0  0  0  0  0  0  0  0  0  0  0  0
    8.8728  -28.7689  -15.5551 C   0  0  0  0  0  0  0  0  0  0  0  0
    9.6263  -27.4948  -15.6267 C   0  0  0  0  0  0  0  0  0  0  0  0
    9.9977  -26.9671  -16.8191 N   0  0  0  0  0  0  0  0  0  0  0  0
    8.3920  -29.6635  -16.4391 N   0  0  0  0  0  0  0  0  0  0  0  0
    7.7782  -30.6459  -15.7306 C   0  0  0  0  0  0  0  0  0  0  0  0
    7.8500  -30.4089  -14.4078 N   0  0  0  0  0  0  0  0  0  0  0  0
  1  3  1  1  0  0  0
  1  5  2  0  0  0  0
  1  9  1  0  0  0  0
  1 18  1  0  0  0  0
  2  4  1  6  0  0  0
  2  6  2  0  0  0  0
  2 10  1  0  0  0  0
  2 17  1  0  0  0  0
  7  9  1  0  0  0  0
  8 10  1  0  0  0  0
 11  7  1  1  0  0  0
 11 13  1  0  0  0  0
 11 15  1  0  0  0  0
 12  8  1  6  0  0  0
 12 14  1  0  0  0  0
 12 16  1  0  0  0  0
 13 21  1  0  0  0  0
 14 22  1  0  0  0  0
 15 17  1  6  0  0  0
 15 19  1  0  0  0  0
 16 18  1  1  0  0  0
 16 20  1  0  0  0  0
 19 21  1  0  0  0  0
 20 22  1  0  0  0  0
 21 32  1  1  0  0  0
 22 42  1  6  0  0  0
 23 24  2  0  0  0  0
 23 28  1  0  0  0  0
 24 25  1  0  0  0  0
 25 26  2  0  0  0  0
 26 27  1  0  0  0  0
 26 32  1  0  0  0  0
 27 28  2  0  0  0  0
 27 30  1  0  0  0  0
 28 29  1  0  0  0  0
 30 31  2  0  0  0  0
 31 32  1  0  0  0  0
 33 34  2  0  0  0  0
 33 38  1  0  0  0  0
 34 35  1  0  0  0  0
 35 36  2  0  0  0  0
 36 37  1  0  0  0  0
 36 42  1  0  0  0  0
 37 38  2  0  0  0  0
 37 40  1  0  0  0  0
 38 39  1  0  0  0  0
 40 41  2  0  0  0  0
 41 42  1  0  0  0  0
M  CHG  2   3  -1   4  -1
M  END
>  <CHROM.1>
63.69271906,-97.64021141,5.35141195,-33.61164207,-16.00660584,-2.65923339
-0.70626541,-0.32946410

>  <Name>
ligand

>  <RI>
0

>  <Rbt.Current_Directory>
/home/itssahil/PROJECTS/Mol_Feturizer/New_Systems/rnas/4QLN

>  <Rbt.Executable>
rbdock ($Id: //depot/dev/client3/rdock/2013.1/src/exe/rbdock.cxx#4 $)

>  <Rbt.Library>
libRbt.so (2013.1, Build901 2013/11/27)

>  <Rbt.Parameter_File>
/export/apps/rDock/src/rDock_2013.1_src/data/scripts/dock_solv.prm

>  <Rbt.Receptor>
prm/pocket_docking_3.prm

>  <SCORE>
-35.8634

>  <SCORE.INTER>
-36.2579

>  <SCORE.INTER.CONST>
1

>  <SCORE.INTER.POLAR>
0

>  <SCORE.INTER.ROT>
2

>  <SCORE.INTER.SOLV>
33.2704

>  <SCORE.INTER.VDW>
-40.1954

>  <SCORE.INTER.norm>
-0.863284

>  <SCORE.INTRA>
0.394591

>  <SCORE.INTRA.DIHEDRAL>
-0.00049326

>  <SCORE.INTRA.DIHEDRAL.0>
2.39985

>  <SCORE.INTRA.POLAR>
0

>  <SCORE.INTRA.POLAR.0>
0

>  <SCORE.INTRA.REPUL>
0

>  <SCORE.INTRA.REPUL.0>
0

>  <SCORE.INTRA.SOLV>
-0.0109407

>  <SCORE.INTRA.SOLV.lig_0>
-110.958

>  <SCORE.INTRA.VDW>
0.400308

>  <SCORE.INTRA.VDW.0>
-2.34644

>  <SCORE.INTRA.norm>
0.00939502

>  <SCORE.RESTR>
0

>  <SCORE.RESTR.CAVITY>
0

>  <SCORE.RESTR.norm>
0

>  <SCORE.SYSTEM>
0

>  <SCORE.SYSTEM.CONST>
0

>  <SCORE.SYSTEM.DIHEDRAL>
0

>  <SCORE.SYSTEM.SOLV>
0

>  <SCORE.SYSTEM.norm>
0

>  <SCORE.heavy>
42

>  <SCORE.norm>
-0.853889

>  <RMSD>
0.841

$$$$
ligand
 OpenBabel11021811513D
libRbt.so/2013.1/901 2013/11/27
 42 48  0  0  0  0  0  0  0  0999 V2000
    3.8385  -34.3941  -13.4297 P   0  0  2  0  0  0  0  0  0  0  0  0
    7.5794  -35.4302  -16.6617 P   0  0  1  0  0  0  0  0  0  0  0  0
    3.3387  -35.4926  -12.5206 O   0  5  0  0  0  0  0  0  0  0  0  0
    7.0742  -34.1125  -17.1993 O   0  5  0  0  0  0  0  0  0  0  0  0
    3.0202  -33.1385  -13.6138 O   0  0  0  0  0  0  0  0  0  0  0  0
    8.8915  -35.9920  -17.1539 O   0  0  0  0  0  0  0  0  0  0  0  0
    3.3108  -36.0991  -15.3717 C   0  0  0  0  0  0  0  0  0  0  0  0
    8.4679  -34.3480  -14.4273 C   0  0  0  0  0  0  0  0  0  0  0  0
    4.1188  -35.0306  -14.8813 O   0  0  0  0  0  0  0  0  0  0  0  0
    7.6451  -35.3278  -15.0562 O   0  0  0  0  0  0  0  0  0  0  0  0
    4.1419  -36.9813  -16.2956 C   0  0  1  0  0  0  0  0  0  0  0  0
    7.6562  -33.5955  -13.3804 C   0  0  1  0  0  0  0  0  0  0  0  0
    3.2786  -37.7015  -17.1796 O   0  0  0  0  0  0  0  0  0  0  0  0
    8.2483  -32.3171  -13.1381 O   0  0  0  0  0  0  0  0  0  0  0  0
    5.0895  -36.1510  -17.1447 C   0  0  1  0  0  0  0  0  0  0  0  0
    6.2286  -33.3648  -13.8500 C   0  0  1  0  0  0  0  0  0  0  0  0
    6.4368  -36.5407  -16.8967 O   0  0  0  0  0  0  0  0  0  0  0  0
    5.3122  -33.9687  -12.9418 O   0  0  0  0  0  0  0  0  0  0  0  0
    4.7256  -36.4294  -18.5913 C   0  0  0  0  0  0  0  0  0  0  0  0
    6.0222  -31.8627  -13.8751 C   0  0  0  0  0  0  0  0  0  0  0  0
    3.5691  -37.4172  -18.5508 C   0  0  2  0  0  0  0  0  0  0  0  0
    7.3381  -31.2503  -13.4168 C   0  0  2  0  0  0  0  0  0  0  0  0
    0.2202  -33.3736  -18.6599 N   0  0  0  0  0  0  0  0  0  0  0  0
    1.2795  -33.6016  -17.8618 C   0  0  0  0  0  0  0  0  0  0  0  0
    2.0583  -34.6958  -17.9475 N   0  0  0  0  0  0  0  0  0  0  0  0
    1.8099  -35.6553  -18.8709 C   0  0  0  0  0  0  0  0  0  0  0  0
    0.6681  -35.4784  -19.7818 C   0  0  0  0  0  0  0  0  0  0  0  0
   -0.1429  -34.2477  -19.6252 C   0  0  0  0  0  0  0  0  0  0  0  0
   -1.2111  -34.0065  -20.4230 N   0  0  0  0  0  0  0  0  0  0  0  0
    0.6472  -36.5582  -20.5854 N   0  0  0  0  0  0  0  0  0  0  0  0
    1.6834  -37.3568  -20.2222 C   0  0  0  0  0  0  0  0  0  0  0  0
    2.3767  -36.8186  -19.2005 N   0  0  0  0  0  0  0  0  0  0  0  0
    9.9119  -26.8250  -14.5852 N   0  0  0  0  0  0  0  0  0  0  0  0
    9.5534  -27.3305  -13.3905 C   0  0  0  0  0  0  0  0  0  0  0  0
    8.8884  -28.4899  -13.2385 N   0  0  0  0  0  0  0  0  0  0  0  0
    8.5338  -29.2330  -14.3146 C   0  0  0  0  0  0  0  0  0  0  0  0
    8.8907  -28.7468  -15.6564 C   0  0  0  0  0  0  0  0  0  0  0  0
    9.6232  -27.4613  -15.7409 C   0  0  0  0  0  0  0  0  0  0  0  0
    9.9905  -26.9422  -16.9382 N   0  0  0  0  0  0  0  0  0  0  0  0
    8.4285  -29.6602  -16.5311 N   0  0  0  0  0  0  0  0  0  0  0  0
    7.8282  -30.6439  -15.8128 C   0  0  0  0  0  0  0  0  0  0  0  0
    7.8907  -30.3895  -14.4928 N   0  0  0  0  0  0  0  0  0  0  0  0
  1  3  1  1  0  0  0
  1  5  2  0  0  0  0
  1  9  1  0  0  0  0
  1 18  1  0  0  0  0
  2  4  1  6  0  0  0
  2  6  2  0  0  0  0
  2 10  1  0  0  0  0
  2 17  1  0  0  0  0
  7  9  1  0  0  0  0
  8 10  1  0  0  0  0
 11  7  1  1  0  0  0
 11 13  1  0  0  0  0
 11 15  1  0  0  0  0
 12  8  1  6  0  0  0
 12 14  1  0  0  0  0
 12 16  1  0  0  0  0
 13 21  1  0  0  0  0
 14 22  1  0  0  0  0
 15 17  1  6  0  0  0
 15 19  1  0  0  0  0
 16 18  1  1  0  0  0
 16 20  1  0  0  0  0
 19 21  1  0  0  0  0
 20 22  1  0  0  0  0
 21 32  1  1  0  0  0
 22 42  1  6  0  0  0
 23 24  2  0  0  0  0
 23 28  1  0  0  0  0
 24 25  1  0  0  0  0
 25 26  2  0  0  0  0
 26 27  1  0  0  0  0
 26 32  1  0  0  0  0
 27 28  2  0  0  0  0
 27 30  1  0  0  0  0
 28 29  1  0  0  0  0
 30 31  2  0  0  0  0
 31 32  1  0  0  0  0
 33 34  2  0  0  0  0
 33 38  1  0  0  0  0
 34 35  1  0  0  0  0
 35 36  2  0  0  0  0
 36 37  1  0  0  0  0
 36 42  1  0  0  0  0
 37 38  2  0  0  0  0
 37 40  1  0  0  0  0
 38 39  1  0  0  0  0
 40 41  2  0  0  0  0
 41 42  1  0  0  0  0
M  CHG  2   3  -1   4  -1
M  END
>  <CHROM.1>
63.03871797,-98.78618543,5.38144927,-33.60438985,-16.05524879,-2.64423189
-0.69629231,-0.31946499

>  <Name>
ligand

>  <RI>
0

>  <Rbt.Current_Directory>
/home/itssahil/PROJECTS/Mol_Feturizer/New_Systems/rnas/4QLN

>  <Rbt.Executable>
rbdock ($Id: //depot/dev/client3/rdock/2013.1/src/exe/rbdock.cxx#4 $)

>  <Rbt.Library>
libRbt.so (2013.1, Build901 2013/11/27)

>  <Rbt.Parameter_File>
/export/apps/rDock/src/rDock_2013.1_src/data/scripts/dock_solv.prm

>  <Rbt.Receptor>
prm/pocket_docking_3.prm

>  <SCORE>
-35.8093

>  <SCORE.INTER>
-36.1662

>  <SCORE.INTER.CONST>
1

>  <SCORE.INTER.POLAR>
0

>  <SCORE.INTER.ROT>
2

>  <SCORE.INTER.SOLV>
33.5764

>  <SCORE.INTER.VDW>
-40.2363

>  <SCORE.INTER.norm>
-0.861101

>  <SCORE.INTRA>
0.356948

>  <SCORE.INTRA.DIHEDRAL>
-0.000483233

>  <SCORE.INTRA.DIHEDRAL.0>
2.39985

>  <SCORE.INTRA.POLAR>
0

>  <SCORE.INTRA.POLAR.0>
0

>  <SCORE.INTRA.REPUL>
0

>  <SCORE.INTRA.REPUL.0>
0

>  <SCORE.INTRA.SOLV>
-0.0094462

>  <SCORE.INTRA.SOLV.lig_0>
-110.958

>  <SCORE.INTRA.VDW>
0.361913

>  <SCORE.INTRA.VDW.0>
-2.34644

>  <SCORE.INTRA.norm>
0.00849877

>  <SCORE.RESTR>
0

>  <SCORE.RESTR.CAVITY>
0

>  <SCORE.RESTR.norm>
0

>  <SCORE.SYSTEM>
0

>  <SCORE.SYSTEM.CONST>
0

>  <SCORE.SYSTEM.DIHEDRAL>
0

>  <SCORE.SYSTEM.SOLV>
0

>  <SCORE.SYSTEM.norm>
0

>  <SCORE.heavy>
42

>  <SCORE.norm>
-0.852602

>  <RMSD>
0.841

$$$$
ligand
 OpenBabel11021811513D
libRbt.so/2013.1/901 2013/11/27
 42 48  0  0  0  0  0  0  0  0999 V2000
    3.7639  -34.4024  -13.3880 P   0  0  2  0  0  0  0  0  0  0  0  0
    7.5290  -35.4743  -16.5801 P   0  0  1  0  0  0  0  0  0  0  0  0
    3.2485  -35.4942  -12.4797 O   0  5  0  0  0  0  0  0  0  0  0  0
    7.0374  -34.1555  -17.1274 O   0  5  0  0  0  0  0  0  0  0  0  0
    2.9554  -33.1424  -13.5847 O   0  0  0  0  0  0  0  0  0  0  0  0
    8.8422  -36.0462  -17.0574 O   0  0  0  0  0  0  0  0  0  0  0  0
    3.2441  -36.1113  -15.3287 C   0  0  0  0  0  0  0  0  0  0  0  0
    8.4029  -34.3892  -14.3412 C   0  0  0  0  0  0  0  0  0  0  0  0
    4.0541  -35.0461  -14.8345 O   0  0  0  0  0  0  0  0  0  0  0  0
    7.5800  -35.3662  -14.9744 O   0  0  0  0  0  0  0  0  0  0  0  0
    4.0784  -37.0023  -16.2412 C   0  0  1  0  0  0  0  0  0  0  0  0
    7.5860  -33.6277  -13.3050 C   0  0  1  0  0  0  0  0  0  0  0  0
    3.2191  -37.7204  -17.1309 O   0  0  0  0  0  0  0  0  0  0  0  0
    8.1838  -32.3521  -13.0618 O   0  0  0  0  0  0  0  0  0  0  0  0
    5.0393  -36.1812  -17.0843 C   0  0  1  0  0  0  0  0  0  0  0  0
    6.1645  -33.3898  -13.7891 C   0  0  1  0  0  0  0  0  0  0  0  0
    6.3818  -36.5785  -16.8219 O   0  0  0  0  0  0  0  0  0  0  0  0
    5.2356  -33.9844  -12.8876 O   0  0  0  0  0  0  0  0  0  0  0  0
    4.6876  -36.4628  -18.5333 C   0  0  0  0  0  0  0  0  0  0  0  0
    5.9678  -31.8865  -13.8218 C   0  0  0  0  0  0  0  0  0  0  0  0
    3.5246  -37.4431  -18.5002 C   0  0  2  0  0  0  0  0  0  0  0  0
    7.2832  -31.2807  -13.3532 C   0  0  2  0  0  0  0  0  0  0  0  0
    0.2123  -33.3713  -18.6672 N   0  0  0  0  0  0  0  0  0  0  0  0
    1.2638  -33.6020  -17.8595 C   0  0  0  0  0  0  0  0  0  0  0  0
    2.0335  -34.7037  -17.9305 N   0  0  0  0  0  0  0  0  0  0  0  0
    1.7834  -35.6685  -18.8477 C   0  0  0  0  0  0  0  0  0  0  0  0
    0.6499  -35.4892  -19.7684 C   0  0  0  0  0  0  0  0  0  0  0  0
   -0.1514  -34.2501  -19.6279 C   0  0  0  0  0  0  0  0  0  0  0  0
   -1.2115  -34.0062  -20.4356 N   0  0  0  0  0  0  0  0  0  0  0  0
    0.6253  -36.5754  -20.5633 N   0  0  0  0  0  0  0  0  0  0  0  0
    1.6517  -37.3799  -20.1860 C   0  0  0  0  0  0  0  0  0  0  0  0
    2.3423  -36.8395  -19.1635 N   0  0  0  0  0  0  0  0  0  0  0  0
    9.9385  -26.9010  -14.5104 N   0  0  0  0  0  0  0  0  0  0  0  0
    9.5708  -27.4028  -13.3170 C   0  0  0  0  0  0  0  0  0  0  0  0
    8.8844  -28.5501  -13.1679 N   0  0  0  0  0  0  0  0  0  0  0  0
    8.5159  -29.2836  -14.2459 C   0  0  0  0  0  0  0  0  0  0  0  0
    8.8817  -28.8006  -15.5865 C   0  0  0  0  0  0  0  0  0  0  0  0
    9.6379  -27.5287  -15.6677 C   0  0  0  0  0  0  0  0  0  0  0  0
   10.0146  -27.0134  -16.8638 N   0  0  0  0  0  0  0  0  0  0  0  0
    8.4024  -29.7029  -16.4635 N   0  0  0  0  0  0  0  0  0  0  0  0
    7.7841  -30.6772  -15.7476 C   0  0  0  0  0  0  0  0  0  0  0  0
    7.8515  -30.4275  -14.4270 N   0  0  0  0  0  0  0  0  0  0  0  0
  1  3  1  1  0  0  0
  1  5  2  0  0  0  0
  1  9  1  0  0  0  0
  1 18  1  0  0  0  0
  2  4  1  6  0  0  0
  2  6  2  0  0  0  0
  2 10  1  0  0  0  0
  2 17  1  0  0  0  0
  7  9  1  0  0  0  0
  8 10  1  0  0  0  0
 11  7  1  1  0  0  0
 11 13  1  0  0  0  0
 11 15  1  0  0  0  0
 12  8  1  6  0  0  0
 12 14  1  0  0  0  0
 12 16  1  0  0  0  0
 13 21  1  0  0  0  0
 14 22  1  0  0  0  0
 15 17  1  6  0  0  0
 15 19  1  0  0  0  0
 16 18  1  1  0  0  0
 16 20  1  0  0  0  0
 19 21  1  0  0  0  0
 20 22  1  0  0  0  0
 21 32  1  1  0  0  0
 22 42  1  6  0  0  0
 23 24  2  0  0  0  0
 23 28  1  0  0  0  0
 24 25  1  0  0  0  0
 25 26  2  0  0  0  0
 26 27  1  0  0  0  0
 26 32  1  0  0  0  0
 27 28  2  0  0  0  0
 27 30  1  0  0  0  0
 28 29  1  0  0  0  0
 30 31  2  0  0  0  0
 31 32  1  0  0  0  0
 33 34  2  0  0  0  0
 33 38  1  0  0  0  0
 34 35  1  0  0  0  0
 35 36  2  0  0  0  0
 36 37  1  0  0  0  0
 36 42  1  0  0  0  0
 37 38  2  0  0  0  0
 37 40  1  0  0  0  0
 38 39  1  0  0  0  0
 40 41  2  0  0  0  0
 41 42  1  0  0  0  0
M  CHG  2   3  -1   4  -1
M  END
>  <CHROM.1>
63.35965967,-97.81699377,5.34129586,-33.63379036,-16.00220162,-2.66285778
-0.70539210,-0.33887284

>  <Name>
ligand

>  <RI>
0

>  <Rbt.Current_Directory>
/home/itssahil/PROJECTS/Mol_Feturizer/New_Systems/rnas/4QLN

>  <Rbt.Executable>
rbdock ($Id: //depot/dev/client3/rdock/2013.1/src/exe/rbdock.cxx#4 $)

>  <Rbt.Library>
libRbt.so (2013.1, Build901 2013/11/27)

>  <Rbt.Parameter_File>
/export/apps/rDock/src/rDock_2013.1_src/data/scripts/dock_solv.prm

>  <Rbt.Receptor>
prm/pocket_docking_3.prm

>  <SCORE>
-35.8222

>  <SCORE.INTER>
-36.207

>  <SCORE.INTER.CONST>
1

>  <SCORE.INTER.POLAR>
0

>  <SCORE.INTER.ROT>
2

>  <SCORE.INTER.SOLV>
33.3209

>  <SCORE.INTER.VDW>
-40.1783

>  <SCORE.INTER.norm>
-0.862072

>  <SCORE.INTRA>
0.384785

>  <SCORE.INTRA.DIHEDRAL>
-0.000494999

>  <SCORE.INTRA.DIHEDRAL.0>
2.39985

>  <SCORE.INTRA.POLAR>
0

>  <SCORE.INTRA.POLAR.0>
0

>  <SCORE.INTRA.REPUL>
0

>  <SCORE.INTRA.REPUL.0>
0

>  <SCORE.INTRA.SOLV>
-0.0104838

>  <SCORE.INTRA.SOLV.lig_0>
-110.958

>  <SCORE.INTRA.VDW>
0.390275

>  <SCORE.INTRA.VDW.0>
-2.34644

>  <SCORE.INTRA.norm>
0.00916156

>  <SCORE.RESTR>
0

>  <SCORE.RESTR.CAVITY>
0

>  <SCORE.RESTR.norm>
0

>  <SCORE.SYSTEM>
0

>  <SCORE.SYSTEM.CONST>
0

>  <SCORE.SYSTEM.DIHEDRAL>
0

>  <SCORE.SYSTEM.SOLV>
0

>  <SCORE.SYSTEM.norm>
0

>  <SCORE.heavy>
42

>  <SCORE.norm>
-0.85291

>  <RMSD>
0.841

$$$$
ligand
 OpenBabel11021811513D
libRbt.so/2013.1/901 2013/11/27
 42 48  0  0  0  0  0  0  0  0999 V2000
    3.7290  -34.4160  -13.3755 P   0  0  2  0  0  0  0  0  0  0  0  0
    7.5098  -35.4936  -16.5470 P   0  0  1  0  0  0  0  0  0  0  0  0
    3.2075  -35.5069  -12.4694 O   0  5  0  0  0  0  0  0  0  0  0  0
    7.0226  -34.1745  -17.0975 O   0  5  0  0  0  0  0  0  0  0  0  0
    2.9229  -33.1552  -13.5770 O   0  0  0  0  0  0  0  0  0  0  0  0
    8.8249  -36.0672  -17.0172 O   0  0  0  0  0  0  0  0  0  0  0  0
    3.2176  -36.1253  -15.3181 C   0  0  0  0  0  0  0  0  0  0  0  0
    8.3730  -34.4085  -14.3041 C   0  0  0  0  0  0  0  0  0  0  0  0
    4.0261  -35.0607  -14.8202 O   0  0  0  0  0  0  0  0  0  0  0  0
    7.5524  -35.3848  -14.9411 O   0  0  0  0  0  0  0  0  0  0  0  0
    4.0557  -37.0176  -16.2258 C   0  0  1  0  0  0  0  0  0  0  0  0
    7.5514  -33.6456  -13.2725 C   0  0  1  0  0  0  0  0  0  0  0  0
    3.2004  -37.7352  -17.1197 O   0  0  0  0  0  0  0  0  0  0  0  0
    8.1494  -32.3706  -13.0267 O   0  0  0  0  0  0  0  0  0  0  0  0
    5.0220  -36.1979  -17.0641 C   0  0  1  0  0  0  0  0  0  0  0  0
    6.1328  -33.4063  -13.7643 C   0  0  1  0  0  0  0  0  0  0  0  0
    6.3626  -36.5966  -16.7944 O   0  0  0  0  0  0  0  0  0  0  0  0
    5.1984  -33.9995  -12.8675 O   0  0  0  0  0  0  0  0  0  0  0  0
    4.6777  -36.4798  -18.5148 C   0  0  0  0  0  0  0  0  0  0  0  0
    5.9380  -31.9028  -13.7987 C   0  0  0  0  0  0  0  0  0  0  0  0
    3.5134  -37.4589  -18.4875 C   0  0  2  0  0  0  0  0  0  0  0  0
    7.2515  -31.2982  -13.3234 C   0  0  2  0  0  0  0  0  0  0  0  0
    0.1539  -33.4246  -18.6184 N   0  0  0  0  0  0  0  0  0  0  0  0
    1.1940  -33.6614  -17.7978 C   0  0  0  0  0  0  0  0  0  0  0  0
    1.9785  -34.7517  -17.8807 N   0  0  0  0  0  0  0  0  0  0  0  0
    1.7565  -35.6978  -18.8244 C   0  0  0  0  0  0  0  0  0  0  0  0
    0.6369  -35.5107  -19.7605 C   0  0  0  0  0  0  0  0  0  0  0  0
   -0.1821  -34.2850  -19.6054 C   0  0  0  0  0  0  0  0  0  0  0  0
   -1.2310  -34.0351  -20.4257 N   0  0  0  0  0  0  0  0  0  0  0  0
    0.6397  -36.5782  -20.5807 N   0  0  0  0  0  0  0  0  0  0  0  0
    1.6694  -37.3789  -20.2040 C   0  0  0  0  0  0  0  0  0  0  0  0
    2.3353  -36.8542  -19.1574 N   0  0  0  0  0  0  0  0  0  0  0  0
    9.9013  -26.9122  -14.4697 N   0  0  0  0  0  0  0  0  0  0  0  0
    9.5246  -27.4119  -13.2781 C   0  0  0  0  0  0  0  0  0  0  0  0
    8.8410  -28.5612  -13.1318 N   0  0  0  0  0  0  0  0  0  0  0  0
    8.4851  -29.2993  -14.2109 C   0  0  0  0  0  0  0  0  0  0  0  0
    8.8612  -28.8190  -15.5495 C   0  0  0  0  0  0  0  0  0  0  0  0
    9.6135  -27.5445  -15.6277 C   0  0  0  0  0  0  0  0  0  0  0  0
    9.9992  -27.0314  -16.8219 N   0  0  0  0  0  0  0  0  0  0  0  0
    8.3933  -29.7257  -16.4281 N   0  0  0  0  0  0  0  0  0  0  0  0
    7.7721  -30.7001  -15.7150 C   0  0  0  0  0  0  0  0  0  0  0  0
    7.8265  -30.4462  -14.3946 N   0  0  0  0  0  0  0  0  0  0  0  0
  1  3  1  1  0  0  0
  1  5  2  0  0  0  0
  1  9  1  0  0  0  0
  1 18  1  0  0  0  0
  2  4  1  6  0  0  0
  2  6  2  0  0  0  0
  2 10  1  0  0  0  0
  2 17  1  0  0  0  0
  7  9  1  0  0  0  0
  8 10  1  0  0  0  0
 11  7  1  1  0  0  0
 11 13  1  0  0  0  0
 11 15  1  0  0  0  0
 12  8  1  6  0  0  0
 12 14  1  0  0  0  0
 12 16  1  0  0  0  0
 13 21  1  0  0  0  0
 14 22  1  0  0  0  0
 15 17  1  6  0  0  0
 15 19  1  0  0  0  0
 16 18  1  1  0  0  0
 16 20  1  0  0  0  0
 19 21  1  0  0  0  0
 20 22  1  0  0  0  0
 21 32  1  1  0  0  0
 22 42  1  6  0  0  0
 23 24  2  0  0  0  0
 23 28  1  0  0  0  0
 24 25  1  0  0  0  0
 25 26  2  0  0  0  0
 26 27  1  0  0  0  0
 26 32  1  0  0  0  0
 27 28  2  0  0  0  0
 27 30  1  0  0  0  0
 28 29  1  0  0  0  0
 30 31  2  0  0  0  0
 31 32  1  0  0  0  0
 33 34  2  0  0  0  0
 33 38  1  0  0  0  0
 34 35  1  0  0  0  0
 35 36  2  0  0  0  0
 36 37  1  0  0  0  0
 36 42  1  0  0  0  0
 37 38  2  0  0  0  0
 37 40  1  0  0  0  0
 38 39  1  0  0  0  0
 40 41  2  0  0  0  0
 41 42  1  0  0  0  0
M  CHG  2   3  -1   4  -1
M  END
>  <CHROM.1>
61.64775843,-98.19690597,5.31540481,-33.65297567,-15.97713856,-2.65792552
-0.70393568,-0.32994541

>  <Name>
ligand

>  <RI>
0

>  <Rbt.Current_Directory>
/home/itssahil/PROJECTS/Mol_Feturizer/New_Systems/rnas/4QLN

>  <Rbt.Executable>
rbdock ($Id: //depot/dev/client3/rdock/2013.1/src/exe/rbdock.cxx#4 $)

>  <Rbt.Library>
libRbt.so (2013.1, Build901 2013/11/27)

>  <Rbt.Parameter_File>
/export/apps/rDock/src/rDock_2013.1_src/data/scripts/dock_solv.prm

>  <Rbt.Receptor>
prm/pocket_docking_6.prm

>  <SCORE>
-35.8706

>  <SCORE.INTER>
-36.2217

>  <SCORE.INTER.CONST>
1

>  <SCORE.INTER.POLAR>
0

>  <SCORE.INTER.ROT>
2

>  <SCORE.INTER.SOLV>
33.0949

>  <SCORE.INTER.VDW>
-40.1127

>  <SCORE.INTER.norm>
-0.86242

>  <SCORE.INTRA>
0.351012

>  <SCORE.INTRA.DIHEDRAL>
-0.000512139

>  <SCORE.INTRA.DIHEDRAL.0>
2.39985

>  <SCORE.INTRA.POLAR>
0

>  <SCORE.INTRA.POLAR.0>
0

>  <SCORE.INTRA.REPUL>
0

>  <SCORE.INTRA.REPUL.0>
0

>  <SCORE.INTRA.SOLV>
-0.00857956

>  <SCORE.INTRA.SOLV.lig_0>
-110.958

>  <SCORE.INTRA.VDW>
0.355558

>  <SCORE.INTRA.VDW.0>
-2.34644

>  <SCORE.INTRA.norm>
0.00835742

>  <SCORE.RESTR>
0

>  <SCORE.RESTR.CAVITY>
0

>  <SCORE.RESTR.norm>
0

>  <SCORE.SYSTEM>
0

>  <SCORE.SYSTEM.CONST>
0

>  <SCORE.SYSTEM.DIHEDRAL>
0

>  <SCORE.SYSTEM.SOLV>
0

>  <SCORE.SYSTEM.norm>
0

>  <SCORE.heavy>
42

>  <SCORE.norm>
-0.854063

>  <RMSD>
0.841

$$$$
ligand
 OpenBabel11021811513D
libRbt.so/2013.1/901 2013/11/27
 42 48  0  0  0  0  0  0  0  0999 V2000
    3.7543  -34.4243  -13.3903 P   0  0  2  0  0  0  0  0  0  0  0  0
    7.5276  -35.4659  -16.5827 P   0  0  1  0  0  0  0  0  0  0  0  0
    3.2382  -35.5240  -12.4919 O   0  5  0  0  0  0  0  0  0  0  0  0
    7.0356  -34.1434  -17.1204 O   0  5  0  0  0  0  0  0  0  0  0  0
    2.9447  -33.1637  -13.5786 O   0  0  0  0  0  0  0  0  0  0  0  0
    8.8425  -36.0325  -17.0618 O   0  0  0  0  0  0  0  0  0  0  0  0
    3.2408  -36.1182  -15.3458 C   0  0  0  0  0  0  0  0  0  0  0  0
    8.3954  -34.3979  -14.3333 C   0  0  0  0  0  0  0  0  0  0  0  0
    4.0484  -35.0560  -14.8413 O   0  0  0  0  0  0  0  0  0  0  0  0
    7.5750  -35.3707  -14.9761 O   0  0  0  0  0  0  0  0  0  0  0  0
    4.0781  -37.0008  -16.2636 C   0  0  1  0  0  0  0  0  0  0  0  0
    7.5752  -33.6458  -13.2928 C   0  0  1  0  0  0  0  0  0  0  0  0
    3.2217  -37.7127  -17.1609 O   0  0  0  0  0  0  0  0  0  0  0  0
    8.1710  -32.3714  -13.0380 O   0  0  0  0  0  0  0  0  0  0  0  0
    5.0399  -36.1717  -17.0980 C   0  0  1  0  0  0  0  0  0  0  0  0
    6.1545  -33.4056  -13.7780 C   0  0  1  0  0  0  0  0  0  0  0  0
    6.3822  -36.5695  -16.8359 O   0  0  0  0  0  0  0  0  0  0  0  0
    5.2244  -34.0086  -12.8833 O   0  0  0  0  0  0  0  0  0  0  0  0
    4.6916  -36.4421  -18.5499 C   0  0  0  0  0  0  0  0  0  0  0  0
    5.9561  -31.9023  -13.7991 C   0  0  0  0  0  0  0  0  0  0  0  0
    3.5297  -37.4241  -18.5273 C   0  0  2  0  0  0  0  0  0  0  0  0
    7.2697  -31.2988  -13.3227 C   0  0  2  0  0  0  0  0  0  0  0  0
    0.2106  -33.3568  -18.6663 N   0  0  0  0  0  0  0  0  0  0  0  0
    1.2603  -33.5929  -17.8579 C   0  0  0  0  0  0  0  0  0  0  0  0
    2.0322  -34.6925  -17.9367 N   0  0  0  0  0  0  0  0  0  0  0  0
    1.7863  -35.6495  -18.8634 C   0  0  0  0  0  0  0  0  0  0  0  0
    0.6549  -35.4638  -19.7855 C   0  0  0  0  0  0  0  0  0  0  0  0
   -0.1489  -34.2275  -19.6359 C   0  0  0  0  0  0  0  0  0  0  0  0
   -1.2073  -33.9781  -20.4442 N   0  0  0  0  0  0  0  0  0  0  0  0
    0.6345  -36.5428  -20.5903 N   0  0  0  0  0  0  0  0  0  0  0  0
    1.6613  -37.3489  -20.2175 C   0  0  0  0  0  0  0  0  0  0  0  0
    2.3481  -36.8165  -19.1883 N   0  0  0  0  0  0  0  0  0  0  0  0
    9.8951  -26.8908  -14.4406 N   0  0  0  0  0  0  0  0  0  0  0  0
    9.5219  -27.4006  -13.2522 C   0  0  0  0  0  0  0  0  0  0  0  0
    8.8446  -28.5546  -13.1134 N   0  0  0  0  0  0  0  0  0  0  0  0
    8.4919  -29.2872  -14.1973 C   0  0  0  0  0  0  0  0  0  0  0  0
    8.8644  -28.7956  -15.5328 C   0  0  0  0  0  0  0  0  0  0  0  0
    9.6098  -27.5167  -15.6028 C   0  0  0  0  0  0  0  0  0  0  0  0
    9.9919  -26.9932  -16.7936 N   0  0  0  0  0  0  0  0  0  0  0  0
    8.4008  -29.6987  -16.4173 N   0  0  0  0  0  0  0  0  0  0  0  0
    7.7853  -30.6813  -15.7105 C   0  0  0  0  0  0  0  0  0  0  0  0
    7.8393  -30.4362  -14.3884 N   0  0  0  0  0  0  0  0  0  0  0  0
  1  3  1  1  0  0  0
  1  5  2  0  0  0  0
  1  9  1  0  0  0  0
  1 18  1  0  0  0  0
  2  4  1  6  0  0  0
  2  6  2  0  0  0  0
  2 10  1  0  0  0  0
  2 17  1  0  0  0  0
  7  9  1  0  0  0  0
  8 10  1  0  0  0  0
 11  7  1  1  0  0  0
 11 13  1  0  0  0  0
 11 15  1  0  0  0  0
 12  8  1  6  0  0  0
 12 14  1  0  0  0  0
 12 16  1  0  0  0  0
 13 21  1  0  0  0  0
 14 22  1  0  0  0  0
 15 17  1  6  0  0  0
 15 19  1  0  0  0  0
 16 18  1  1  0  0  0
 16 20  1  0  0  0  0
 19 21  1  0  0  0  0
 20 22  1  0  0  0  0
 21 32  1  1  0  0  0
 22 42  1  6  0  0  0
 23 24  2  0  0  0  0
 23 28  1  0  0  0  0
 24 25  1  0  0  0  0
 25 26  2  0  0  0  0
 26 27  1  0  0  0  0
 26 32  1  0  0  0  0
 27 28  2  0  0  0  0
 27 30  1  0  0  0  0
 28 29  1  0  0  0  0
 30 31  2  0  0  0  0
 31 32  1  0  0  0  0
 33 34  2  0  0  0  0
 33 38  1  0  0  0  0
 34 35  1  0  0  0  0
 35 36  2  0  0  0  0
 36 37  1  0  0  0  0
 36 42  1  0  0  0  0
 37 38  2  0  0  0  0
 37 40  1  0  0  0  0
 38 39  1  0  0  0  0
 40 41  2  0  0  0  0
 41 42  1  0  0  0  0
M  CHG  2   3  -1   4  -1
M  END
>  <CHROM.1>
63.28557697,-98.43683283,5.33399377,-33.63162493,-15.99472088,-2.65843600
-0.70699642,-0.32603213

>  <Name>
ligand

>  <RI>
0

>  <Rbt.Current_Directory>
/home/itssahil/PROJECTS/Mol_Feturizer/New_Systems/rnas/4QLN

>  <Rbt.Executable>
rbdock ($Id: //depot/dev/client3/rdock/2013.1/src/exe/rbdock.cxx#4 $)

>  <Rbt.Library>
libRbt.so (2013.1, Build901 2013/11/27)

>  <Rbt.Parameter_File>
/export/apps/rDock/src/rDock_2013.1_src/data/scripts/dock_solv.prm

>  <Rbt.Receptor>
prm/pocket_docking_3.prm

>  <SCORE>
-35.859

>  <SCORE.INTER>
-36.228

>  <SCORE.INTER.CONST>
1

>  <SCORE.INTER.POLAR>
0

>  <SCORE.INTER.ROT>
2

>  <SCORE.INTER.SOLV>
33.1667

>  <SCORE.INTER.VDW>
-40.1409

>  <SCORE.INTER.norm>
-0.862572

>  <SCORE.INTRA>
0.369058

>  <SCORE.INTRA.DIHEDRAL>
-0.000485904

>  <SCORE.INTRA.DIHEDRAL.0>
2.39985

>  <SCORE.INTRA.POLAR>
0

>  <SCORE.INTRA.POLAR.0>
0

>  <SCORE.INTRA.REPUL>
0

>  <SCORE.INTRA.REPUL.0>
0

>  <SCORE.INTRA.SOLV>
-0.00993152

>  <SCORE.INTRA.SOLV.lig_0>
-110.958

>  <SCORE.INTRA.VDW>
0.374267

>  <SCORE.INTRA.VDW.0>
-2.34644

>  <SCORE.INTRA.norm>
0.0087871

>  <SCORE.RESTR>
0

>  <SCORE.RESTR.CAVITY>
0

>  <SCORE.RESTR.norm>
0

>  <SCORE.SYSTEM>
0

>  <SCORE.SYSTEM.CONST>
0

>  <SCORE.SYSTEM.DIHEDRAL>
0

>  <SCORE.SYSTEM.SOLV>
0

>  <SCORE.SYSTEM.norm>
0

>  <SCORE.heavy>
42

>  <SCORE.norm>
-0.853785

>  <RMSD>
0.842

$$$$
ligand
 OpenBabel11021811513D
libRbt.so/2013.1/901 2013/11/27
 42 48  0  0  0  0  0  0  0  0999 V2000
    3.7678  -34.3988  -13.4026 P   0  0  2  0  0  0  0  0  0  0  0  0
    7.5399  -35.4622  -16.5893 P   0  0  1  0  0  0  0  0  0  0  0  0
    3.2479  -35.4941  -12.5010 O   0  5  0  0  0  0  0  0  0  0  0  0
    7.0522  -34.1400  -17.1317 O   0  5  0  0  0  0  0  0  0  0  0  0
    2.9621  -33.1365  -13.5955 O   0  0  0  0  0  0  0  0  0  0  0  0
    8.8534  -36.0343  -17.0658 O   0  0  0  0  0  0  0  0  0  0  0  0
    3.2504  -36.0976  -15.3529 C   0  0  0  0  0  0  0  0  0  0  0  0
    8.4095  -34.3895  -14.3429 C   0  0  0  0  0  0  0  0  0  0  0  0
    4.0609  -35.0362  -14.8514 O   0  0  0  0  0  0  0  0  0  0  0  0
    7.5866  -35.3619  -14.9830 O   0  0  0  0  0  0  0  0  0  0  0  0
    4.0856  -36.9857  -16.2673 C   0  0  1  0  0  0  0  0  0  0  0  0
    7.5910  -33.6315  -13.3053 C   0  0  1  0  0  0  0  0  0  0  0  0
    3.2276  -37.6980  -17.1628 O   0  0  0  0  0  0  0  0  0  0  0  0
    8.1905  -32.3581  -13.0543 O   0  0  0  0  0  0  0  0  0  0  0  0
    5.0504  -36.1623  -17.1038 C   0  0  1  0  0  0  0  0  0  0  0  0
    6.1713  -33.3887  -13.7922 C   0  0  1  0  0  0  0  0  0  0  0  0
    6.3914  -36.5632  -16.8396 O   0  0  0  0  0  0  0  0  0  0  0  0
    5.2388  -33.9859  -12.8961 O   0  0  0  0  0  0  0  0  0  0  0  0
    4.7021  -36.4363  -18.5551 C   0  0  0  0  0  0  0  0  0  0  0  0
    5.9774  -31.8849  -13.8183 C   0  0  0  0  0  0  0  0  0  0  0  0
    3.5373  -37.4147  -18.5299 C   0  0  2  0  0  0  0  0  0  0  0  0
    7.2925  -31.2837  -13.3431 C   0  0  2  0  0  0  0  0  0  0  0  0
    0.2200  -33.3461  -18.6730 N   0  0  0  0  0  0  0  0  0  0  0  0
    1.2672  -33.5838  -17.8617 C   0  0  0  0  0  0  0  0  0  0  0  0
    2.0389  -34.6836  -17.9399 N   0  0  0  0  0  0  0  0  0  0  0  0
    1.7955  -35.6391  -18.8687 C   0  0  0  0  0  0  0  0  0  0  0  0
    0.6670  -35.4516  -19.7940 C   0  0  0  0  0  0  0  0  0  0  0  0
   -0.1369  -34.2152  -19.6450 C   0  0  0  0  0  0  0  0  0  0  0  0
   -1.1927  -33.9643  -20.4561 N   0  0  0  0  0  0  0  0  0  0  0  0
    0.6486  -36.5294  -20.6004 N   0  0  0  0  0  0  0  0  0  0  0  0
    1.6740  -37.3364  -20.2256 C   0  0  0  0  0  0  0  0  0  0  0  0
    2.3579  -36.8058  -19.1936 N   0  0  0  0  0  0  0  0  0  0  0  0
    9.9542  -26.9005  -14.4723 N   0  0  0  0  0  0  0  0  0  0  0  0
    9.5817  -27.4070  -13.2823 C   0  0  0  0  0  0  0  0  0  0  0  0
    8.8942  -28.5545  -13.1406 N   0  0  0  0  0  0  0  0  0  0  0  0
    8.5296  -29.2835  -14.2230 C   0  0  0  0  0  0  0  0  0  0  0  0
    8.9007  -28.7953  -15.5602 C   0  0  0  0  0  0  0  0  0  0  0  0
    9.6578  -27.5234  -15.6333 C   0  0  0  0  0  0  0  0  0  0  0  0
   10.0393  -27.0033  -16.8258 N   0  0  0  0  0  0  0  0  0  0  0  0
    8.4244  -29.6938  -16.4426 N   0  0  0  0  0  0  0  0  0  0  0  0
    7.8030  -30.6707  -15.7332 C   0  0  0  0  0  0  0  0  0  0  0  0
    7.8654  -30.4264  -14.4113 N   0  0  0  0  0  0  0  0  0  0  0  0
  1  3  1  1  0  0  0
  1  5  2  0  0  0  0
  1  9  1  0  0  0  0
  1 18  1  0  0  0  0
  2  4  1  6  0  0  0
  2  6  2  0  0  0  0
  2 10  1  0  0  0  0
  2 17  1  0  0  0  0
  7  9  1  0  0  0  0
  8 10  1  0  0  0  0
 11  7  1  1  0  0  0
 11 13  1  0  0  0  0
 11 15  1  0  0  0  0
 12  8  1  6  0  0  0
 12 14  1  0  0  0  0
 12 16  1  0  0  0  0
 13 21  1  0  0  0  0
 14 22  1  0  0  0  0
 15 17  1  6  0  0  0
 15 19  1  0  0  0  0
 16 18  1  1  0  0  0
 16 20  1  0  0  0  0
 19 21  1  0  0  0  0
 20 22  1  0  0  0  0
 21 32  1  1  0  0  0
 22 42  1  6  0  0  0
 23 24  2  0  0  0  0
 23 28  1  0  0  0  0
 24 25  1  0  0  0  0
 25 26  2  0  0  0  0
 26 27  1  0  0  0  0
 26 32  1  0  0  0  0
 27 28  2  0  0  0  0
 27 30  1  0  0  0  0
 28 29  1  0  0  0  0
 30 31  2  0  0  0  0
 31 32  1  0  0  0  0
 33 34  2  0  0  0  0
 33 38  1  0  0  0  0
 34 35  1  0  0  0  0
 35 36  2  0  0  0  0
 36 37  1  0  0  0  0
 36 42  1  0  0  0  0
 37 38  2  0  0  0  0
 37 40  1  0  0  0  0
 38 39  1  0  0  0  0
 40 41  2  0  0  0  0
 41 42  1  0  0  0  0
M  CHG  2   3  -1   4  -1
M  END
>  <CHROM.1>
62.94404804,-97.92398352,5.35240947,-33.62120490,-16.00762311,-2.66407871
-0.70592834,-0.33333498

>  <Name>
ligand

>  <RI>
0

>  <Rbt.Current_Directory>
/home/itssahil/PROJECTS/Mol_Feturizer/New_Systems/rnas/4QLN

>  <Rbt.Executable>
rbdock ($Id: //depot/dev/client3/rdock/2013.1/src/exe/rbdock.cxx#4 $)

>  <Rbt.Library>
libRbt.so (2013.1, Build901 2013/11/27)

>  <Rbt.Parameter_File>
/export/apps/rDock/src/rDock_2013.1_src/data/scripts/dock_solv.prm

>  <Rbt.Receptor>
prm/pocket_docking_3.prm

>  <SCORE>
-35.807

>  <SCORE.INTER>
-36.1825

>  <SCORE.INTER.CONST>
1

>  <SCORE.INTER.POLAR>
0

>  <SCORE.INTER.ROT>
2

>  <SCORE.INTER.SOLV>
33.4271

>  <SCORE.INTER.VDW>
-40.1974

>  <SCORE.INTER.norm>
-0.861489

>  <SCORE.INTRA>
0.375591

>  <SCORE.INTRA.DIHEDRAL>
-0.000498924

>  <SCORE.INTRA.DIHEDRAL.0>
2.39985

>  <SCORE.INTRA.POLAR>
0

>  <SCORE.INTRA.POLAR.0>
0

>  <SCORE.INTRA.REPUL>
0

>  <SCORE.INTRA.REPUL.0>
0

>  <SCORE.INTRA.SOLV>
-0.0100084

>  <SCORE.INTRA.SOLV.lig_0>
-110.958

>  <SCORE.INTRA.VDW>
0.380845

>  <SCORE.INTRA.VDW.0>
-2.34644

>  <SCORE.INTRA.norm>
0.00894265

>  <SCORE.RESTR>
0

>  <SCORE.RESTR.CAVITY>
0

>  <SCORE.RESTR.norm>
0

>  <SCORE.SYSTEM>
0

>  <SCORE.SYSTEM.CONST>
0

>  <SCORE.SYSTEM.DIHEDRAL>
0

>  <SCORE.SYSTEM.SOLV>
0

>  <SCORE.SYSTEM.norm>
0

>  <SCORE.heavy>
42

>  <SCORE.norm>
-0.852547

>  <RMSD>
0.842

$$$$
ligand
 OpenBabel11021811513D
libRbt.so/2013.1/901 2013/11/27
 42 48  0  0  0  0  0  0  0  0999 V2000
    3.7188  -34.4115  -13.3757 P   0  0  2  0  0  0  0  0  0  0  0  0
    7.5038  -35.5060  -16.5363 P   0  0  1  0  0  0  0  0  0  0  0  0
    3.1939  -35.4984  -12.4668 O   0  5  0  0  0  0  0  0  0  0  0  0
    7.0197  -34.1881  -17.0924 O   0  5  0  0  0  0  0  0  0  0  0  0
    2.9150  -33.1501  -13.5832 O   0  0  0  0  0  0  0  0  0  0  0  0
    8.8189  -36.0834  -17.0020 O   0  0  0  0  0  0  0  0  0  0  0  0
    3.2083  -36.1268  -15.3133 C   0  0  0  0  0  0  0  0  0  0  0  0
    8.3645  -34.4144  -14.2956 C   0  0  0  0  0  0  0  0  0  0  0  0
    4.0176  -35.0617  -14.8176 O   0  0  0  0  0  0  0  0  0  0  0  0
    7.5435  -35.3917  -14.9307 O   0  0  0  0  0  0  0  0  0  0  0  0
    4.0468  -37.0236  -16.2163 C   0  0  1  0  0  0  0  0  0  0  0  0
    7.5422  -33.6467  -13.2683 C   0  0  1  0  0  0  0  0  0  0  0  0
    3.1920  -37.7429  -17.1092 O   0  0  0  0  0  0  0  0  0  0  0  0
    8.1417  -32.3717  -13.0258 O   0  0  0  0  0  0  0  0  0  0  0  0
    5.0159  -36.2083  -17.0557 C   0  0  1  0  0  0  0  0  0  0  0  0
    6.1248  -33.4069  -13.7635 C   0  0  1  0  0  0  0  0  0  0  0  0
    6.3554  -36.6081  -16.7820 O   0  0  0  0  0  0  0  0  0  0  0  0
    5.1879  -33.9954  -12.8664 O   0  0  0  0  0  0  0  0  0  0  0  0
    4.6738  -36.4948  -18.5060 C   0  0  0  0  0  0  0  0  0  0  0  0
    5.9325  -31.9032  -13.8036 C   0  0  0  0  0  0  0  0  0  0  0  0
    3.5080  -37.4719  -18.4774 C   0  0  2  0  0  0  0  0  0  0  0  0
    7.2460  -31.2990  -13.3279 C   0  0  2  0  0  0  0  0  0  0  0  0
    0.1513  -33.4359  -18.6249 N   0  0  0  0  0  0  0  0  0  0  0  0
    1.1891  -33.6718  -17.8011 C   0  0  0  0  0  0  0  0  0  0  0  0
    1.9731  -34.7627  -17.8798 N   0  0  0  0  0  0  0  0  0  0  0  0
    1.7531  -35.7104  -18.8224 C   0  0  0  0  0  0  0  0  0  0  0  0
    0.6361  -35.5244  -19.7618 C   0  0  0  0  0  0  0  0  0  0  0  0
   -0.1825  -34.2979  -19.6113 C   0  0  0  0  0  0  0  0  0  0  0  0
   -1.2291  -34.0489  -20.4349 N   0  0  0  0  0  0  0  0  0  0  0  0
    0.6406  -36.5934  -20.5800 N   0  0  0  0  0  0  0  0  0  0  0  0
    1.6687  -37.3940  -20.1991 C   0  0  0  0  0  0  0  0  0  0  0  0
    2.3321  -36.8678  -19.1516 N   0  0  0  0  0  0  0  0  0  0  0  0
    9.8482  -26.8885  -14.4893 N   0  0  0  0  0  0  0  0  0  0  0  0
    9.4611  -27.3792  -13.2973 C   0  0  0  0  0  0  0  0  0  0  0  0
    8.7923  -28.5366  -13.1469 N   0  0  0  0  0  0  0  0  0  0  0  0
    8.4633  -29.2930  -14.2219 C   0  0  0  0  0  0  0  0  0  0  0  0
    8.8522  -28.8234  -15.5607 C   0  0  0  0  0  0  0  0  0  0  0  0
    9.5869  -27.5390  -15.6436 C   0  0  0  0  0  0  0  0  0  0  0  0
    9.9827  -27.0348  -16.8382 N   0  0  0  0  0  0  0  0  0  0  0  0
    8.4107  -29.7475  -16.4347 N   0  0  0  0  0  0  0  0  0  0  0  0
    7.7932  -30.7223  -15.7188 C   0  0  0  0  0  0  0  0  0  0  0  0
    7.8243  -30.4516  -14.4010 N   0  0  0  0  0  0  0  0  0  0  0  0
  1  3  1  1  0  0  0
  1  5  2  0  0  0  0
  1  9  1  0  0  0  0
  1 18  1  0  0  0  0
  2  4  1  6  0  0  0
  2  6  2  0  0  0  0
  2 10  1  0  0  0  0
  2 17  1  0  0  0  0
  7  9  1  0  0  0  0
  8 10  1  0  0  0  0
 11  7  1  6  0  0  0
 11 13  1  0  0  0  0
 11 15  1  0  0  0  0
 12  8  1  6  0  0  0
 12 14  1  0  0  0  0
 12 16  1  0  0  0  0
 13 21  1  0  0  0  0
 14 22  1  0  0  0  0
 15 17  1  6  0  0  0
 15 19  1  0  0  0  0
 16 18  1  1  0  0  0
 16 20  1  0  0  0  0
 19 21  1  0  0  0  0
 20 22  1  0  0  0  0
 21 32  1  1  0  0  0
 22 42  1  6  0  0  0
 23 24  2  0  0  0  0
 23 28  1  0  0  0  0
 24 25  1  0  0  0  0
 25 26  2  0  0  0  0
 26 27  1  0  0  0  0
 26 32  1  0  0  0  0
 27 28  2  0  0  0  0
 27 30  1  0  0  0  0
 28 29  1  0  0  0  0
 30 31  2  0  0  0  0
 31 32  1  0  0  0  0
 33 34  2  0  0  0  0
 33 38  1  0  0  0  0
 34 35  1  0  0  0  0
 35 36  2  0  0  0  0
 36 37  1  0  0  0  0
 36 42  1  0  0  0  0
 37 38  2  0  0  0  0
 37 40  1  0  0  0  0
 38 39  1  0  0  0  0
 40 41  2  0  0  0  0
 41 42  1  0  0  0  0
M  CHG  2   3  -1   4  -1
M  END
>  <CHROM.1>
61.52901102,-99.48602220,5.30625616,-33.65759755,-15.97710202,-2.65278935
-0.70349725,-0.32622822

>  <Name>
ligand

>  <RI>
0

>  <Rbt.Current_Directory>
/home/itssahil/PROJECTS/Mol_Feturizer/New_Systems/rnas/4QLN

>  <Rbt.Executable>
rbdock ($Id: //depot/dev/client3/rdock/2013.1/src/exe/rbdock.cxx#4 $)

>  <Rbt.Library>
libRbt.so (2013.1, Build901 2013/11/27)

>  <Rbt.Parameter_File>
/export/apps/rDock/src/rDock_2013.1_src/data/scripts/dock_solv.prm

>  <Rbt.Receptor>
prm/pocket_docking_2.prm

>  <SCORE>
-35.8267

>  <SCORE.INTER>
-36.1464

>  <SCORE.INTER.CONST>
1

>  <SCORE.INTER.POLAR>
0

>  <SCORE.INTER.ROT>
2

>  <SCORE.INTER.SOLV>
33.0342

>  <SCORE.INTER.VDW>
-40.0423

>  <SCORE.INTER.norm>
-0.860627

>  <SCORE.INTRA>
0.319615

>  <SCORE.INTRA.DIHEDRAL>
-0.000491053

>  <SCORE.INTRA.DIHEDRAL.0>
2.39985

>  <SCORE.INTRA.POLAR>
0

>  <SCORE.INTRA.POLAR.0>
0

>  <SCORE.INTRA.REPUL>
0

>  <SCORE.INTRA.REPUL.0>
0

>  <SCORE.INTRA.SOLV>
-0.00756184

>  <SCORE.INTRA.SOLV.lig_0>
-110.958

>  <SCORE.INTRA.VDW>
0.323641

>  <SCORE.INTRA.VDW.0>
-2.34644

>  <SCORE.INTRA.norm>
0.00760988

>  <SCORE.RESTR>
0

>  <SCORE.RESTR.CAVITY>
0

>  <SCORE.RESTR.norm>
0

>  <SCORE.SYSTEM>
0

>  <SCORE.SYSTEM.CONST>
0

>  <SCORE.SYSTEM.DIHEDRAL>
0

>  <SCORE.SYSTEM.SOLV>
0

>  <SCORE.SYSTEM.norm>
0

>  <SCORE.heavy>
42

>  <SCORE.norm>
-0.853018

>  <RMSD>
0.843

$$$$
ligand
 OpenBabel11021811513D
libRbt.so/2013.1/901 2013/11/27
 42 48  0  0  0  0  0  0  0  0999 V2000
    3.8481  -34.3867  -13.4257 P   0  0  2  0  0  0  0  0  0  0  0  0
    7.5845  -35.4067  -16.6682 P   0  0  1  0  0  0  0  0  0  0  0  0
    3.3538  -35.4881  -12.5171 O   0  5  0  0  0  0  0  0  0  0  0  0
    7.0741  -34.0897  -17.2025 O   0  5  0  0  0  0  0  0  0  0  0  0
    3.0256  -33.1334  -13.6059 O   0  0  0  0  0  0  0  0  0  0  0  0
    8.8971  -35.9638  -17.1642 O   0  0  0  0  0  0  0  0  0  0  0  0
    3.3210  -36.0904  -15.3691 C   0  0  0  0  0  0  0  0  0  0  0  0
    8.4751  -34.3251  -14.4342 C   0  0  0  0  0  0  0  0  0  0  0  0
    4.1269  -35.0202  -14.8790 O   0  0  0  0  0  0  0  0  0  0  0  0
    7.6537  -35.3065  -15.0626 O   0  0  0  0  0  0  0  0  0  0  0  0
    4.1526  -36.9687  -16.2962 C   0  0  1  0  0  0  0  0  0  0  0  0
    7.6635  -33.5768  -13.3842 C   0  0  1  0  0  0  0  0  0  0  0  0
    3.2894  -37.6902  -17.1793 O   0  0  0  0  0  0  0  0  0  0  0  0
    8.2524  -32.2969  -13.1414 O   0  0  0  0  0  0  0  0  0  0  0  0
    5.0956  -36.1342  -17.1463 C   0  0  1  0  0  0  0  0  0  0  0  0
    6.2342  -33.3497  -13.8500 C   0  0  1  0  0  0  0  0  0  0  0  0
    6.4448  -36.5203  -16.9021 O   0  0  0  0  0  0  0  0  0  0  0  0
    5.3217  -33.9576  -12.9407 O   0  0  0  0  0  0  0  0  0  0  0  0
    4.7291  -36.4115  -18.5925 C   0  0  0  0  0  0  0  0  0  0  0  0
    6.0232  -31.8481  -13.8724 C   0  0  0  0  0  0  0  0  0  0  0  0
    3.5758  -37.4029  -18.5507 C   0  0  2  0  0  0  0  0  0  0  0  0
    7.3383  -31.2324  -13.4163 C   0  0  2  0  0  0  0  0  0  0  0  0
    0.2523  -33.3392  -18.6882 N   0  0  0  0  0  0  0  0  0  0  0  0
    1.3192  -33.5613  -17.8985 C   0  0  0  0  0  0  0  0  0  0  0  0
    2.0897  -34.6620  -17.9750 N   0  0  0  0  0  0  0  0  0  0  0  0
    1.8247  -35.6346  -18.8798 C   0  0  0  0  0  0  0  0  0  0  0  0
    0.6738  -35.4649  -19.7806 C   0  0  0  0  0  0  0  0  0  0  0  0
   -0.1273  -34.2263  -19.6350 C   0  0  0  0  0  0  0  0  0  0  0  0
   -1.2029  -33.9910  -20.4246 N   0  0  0  0  0  0  0  0  0  0  0  0
    0.6367  -36.5575  -20.5662 N   0  0  0  0  0  0  0  0  0  0  0  0
    1.6717  -37.3569  -20.2017 C   0  0  0  0  0  0  0  0  0  0  0  0
    2.3800  -36.8069  -19.1967 N   0  0  0  0  0  0  0  0  0  0  0  0
    9.9162  -26.8091  -14.5829 N   0  0  0  0  0  0  0  0  0  0  0  0
    9.5646  -27.3189  -13.3880 C   0  0  0  0  0  0  0  0  0  0  0  0
    8.8974  -28.4772  -13.2366 N   0  0  0  0  0  0  0  0  0  0  0  0
    8.5333  -29.2144  -14.3135 C   0  0  0  0  0  0  0  0  0  0  0  0
    8.8821  -28.7232  -15.6555 C   0  0  0  0  0  0  0  0  0  0  0  0
    9.6176  -27.4394  -15.7394 C   0  0  0  0  0  0  0  0  0  0  0  0
    9.9780  -26.9159  -16.9370 N   0  0  0  0  0  0  0  0  0  0  0  0
    8.4113  -29.6314  -16.5310 N   0  0  0  0  0  0  0  0  0  0  0  0
    7.8134  -30.6167  -15.8129 C   0  0  0  0  0  0  0  0  0  0  0  0
    7.8858  -30.3684  -14.4923 N   0  0  0  0  0  0  0  0  0  0  0  0
  1  3  1  1  0  0  0
  1  5  2  0  0  0  0
  1  9  1  0  0  0  0
  1 18  1  0  0  0  0
  2  4  1  6  0  0  0
  2  6  2  0  0  0  0
  2 10  1  0  0  0  0
  2 17  1  0  0  0  0
  7  9  1  0  0  0  0
  8 10  1  0  0  0  0
 11  7  1  1  0  0  0
 11 13  1  0  0  0  0
 11 15  1  0  0  0  0
 12  8  1  6  0  0  0
 12 14  1  0  0  0  0
 12 16  1  0  0  0  0
 13 21  1  0  0  0  0
 14 22  1  0  0  0  0
 15 17  1  6  0  0  0
 15 19  1  0  0  0  0
 16 18  1  1  0  0  0
 16 20  1  0  0  0  0
 19 21  1  0  0  0  0
 20 22  1  0  0  0  0
 21 32  1  1  0  0  0
 22 42  1  6  0  0  0
 23 24  2  0  0  0  0
 23 28  1  0  0  0  0
 24 25  1  0  0  0  0
 25 26  2  0  0  0  0
 26 27  1  0  0  0  0
 26 32  1  0  0  0  0
 27 28  2  0  0  0  0
 27 30  1  0  0  0  0
 28 29  1  0  0  0  0
 30 31  2  0  0  0  0
 31 32  1  0  0  0  0
 33 34  2  0  0  0  0
 33 38  1  0  0  0  0
 34 35  1  0  0  0  0
 35 36  2  0  0  0  0
 36 37  1  0  0  0  0
 36 42  1  0  0  0  0
 37 38  2  0  0  0  0
 37 40  1  0  0  0  0
 38 39  1  0  0  0  0
 40 41  2  0  0  0  0
 41 42  1  0  0  0  0
M  CHG  2   3  -1   4  -1
M  END
>  <CHROM.1>
64.30563400,-98.32976391,5.38728174,-33.58690119,-16.05708384,-2.64682323
-0.69984166,-0.32471256

>  <Name>
ligand

>  <RI>
0

>  <Rbt.Current_Directory>
/home/itssahil/PROJECTS/Mol_Feturizer/New_Systems/rnas/4QLN

>  <Rbt.Executable>
rbdock ($Id: //depot/dev/client3/rdock/2013.1/src/exe/rbdock.cxx#4 $)

>  <Rbt.Library>
libRbt.so (2013.1, Build901 2013/11/27)

>  <Rbt.Parameter_File>
/export/apps/rDock/src/rDock_2013.1_src/data/scripts/dock_solv.prm

>  <Rbt.Receptor>
prm/pocket_docking_4.prm

>  <SCORE>
-35.9015

>  <SCORE.INTER>
-36.291

>  <SCORE.INTER.CONST>
1

>  <SCORE.INTER.POLAR>
0

>  <SCORE.INTER.ROT>
2

>  <SCORE.INTER.SOLV>
33.5876

>  <SCORE.INTER.VDW>
-40.3232

>  <SCORE.INTER.norm>
-0.864072

>  <SCORE.INTRA>
0.389512

>  <SCORE.INTRA.DIHEDRAL>
-0.000474002

>  <SCORE.INTRA.DIHEDRAL.0>
2.39985

>  <SCORE.INTRA.POLAR>
0

>  <SCORE.INTRA.POLAR.0>
0

>  <SCORE.INTRA.REPUL>
0

>  <SCORE.INTRA.REPUL.0>
0

>  <SCORE.INTRA.SOLV>
-0.0109665

>  <SCORE.INTRA.SOLV.lig_0>
-110.958

>  <SCORE.INTRA.VDW>
0.395232

>  <SCORE.INTRA.VDW.0>
-2.34644

>  <SCORE.INTRA.norm>
0.00927409

>  <SCORE.RESTR>
0

>  <SCORE.RESTR.CAVITY>
0

>  <SCORE.RESTR.norm>
0

>  <SCORE.SYSTEM>
0

>  <SCORE.SYSTEM.CONST>
0

>  <SCORE.SYSTEM.DIHEDRAL>
0

>  <SCORE.SYSTEM.SOLV>
0

>  <SCORE.SYSTEM.norm>
0

>  <SCORE.heavy>
42

>  <SCORE.norm>
-0.854798

>  <RMSD>
0.843

$$$$
ligand
 OpenBabel11021811513D
libRbt.so/2013.1/901 2013/11/27
 42 48  0  0  0  0  0  0  0  0999 V2000
    3.7645  -34.4069  -13.3969 P   0  0  2  0  0  0  0  0  0  0  0  0
    7.5294  -35.4767  -16.5899 P   0  0  1  0  0  0  0  0  0  0  0  0
    3.2495  -35.4992  -12.4889 O   0  5  0  0  0  0  0  0  0  0  0  0
    7.0375  -34.1578  -17.1366 O   0  5  0  0  0  0  0  0  0  0  0  0
    2.9557  -33.1470  -13.5929 O   0  0  0  0  0  0  0  0  0  0  0  0
    8.8427  -36.0481  -17.0677 O   0  0  0  0  0  0  0  0  0  0  0  0
    3.2448  -36.1152  -15.3382 C   0  0  0  0  0  0  0  0  0  0  0  0
    8.4034  -34.3923  -14.3508 C   0  0  0  0  0  0  0  0  0  0  0  0
    4.0546  -35.0499  -14.8437 O   0  0  0  0  0  0  0  0  0  0  0  0
    7.5806  -35.3692  -14.9841 O   0  0  0  0  0  0  0  0  0  0  0  0
    4.0792  -37.0056  -16.2511 C   0  0  1  0  0  0  0  0  0  0  0  0
    7.5864  -33.6314  -13.3141 C   0  0  1  0  0  0  0  0  0  0  0  0
    3.2200  -37.7235  -17.1409 O   0  0  0  0  0  0  0  0  0  0  0  0
    8.1840  -32.3557  -13.0704 O   0  0  0  0  0  0  0  0  0  0  0  0
    5.0398  -36.1839  -17.0940 C   0  0  1  0  0  0  0  0  0  0  0  0
    6.1648  -33.3936  -13.7979 C   0  0  1  0  0  0  0  0  0  0  0  0
    6.3824  -36.5810  -16.8320 O   0  0  0  0  0  0  0  0  0  0  0  0
    5.2362  -33.9888  -12.8965 O   0  0  0  0  0  0  0  0  0  0  0  0
    4.6879  -36.4650  -18.5431 C   0  0  0  0  0  0  0  0  0  0  0  0
    5.9678  -31.8903  -13.8300 C   0  0  0  0  0  0  0  0  0  0  0  0
    3.5251  -37.4456  -18.5102 C   0  0  2  0  0  0  0  0  0  0  0  0
    7.2831  -31.2844  -13.3613 C   0  0  2  0  0  0  0  0  0  0  0  0
    0.1896  -33.3919  -18.6511 N   0  0  0  0  0  0  0  0  0  0  0  0
    1.2383  -33.6249  -17.8405 C   0  0  0  0  0  0  0  0  0  0  0  0
    2.0149  -34.7212  -17.9192 N   0  0  0  0  0  0  0  0  0  0  0  0
    1.7752  -35.6778  -18.8478 C   0  0  0  0  0  0  0  0  0  0  0  0
    0.6452  -35.4954  -19.7723 C   0  0  0  0  0  0  0  0  0  0  0  0
   -0.1641  -34.2626  -19.6228 C   0  0  0  0  0  0  0  0  0  0  0  0
   -1.2216  -34.0164  -20.4332 N   0  0  0  0  0  0  0  0  0  0  0  0
    0.6312  -36.5733  -20.5788 N   0  0  0  0  0  0  0  0  0  0  0  0
    1.6604  -37.3757  -20.2047 C   0  0  0  0  0  0  0  0  0  0  0  0
    2.3426  -36.8420  -19.1732 N   0  0  0  0  0  0  0  0  0  0  0  0
    9.9261  -26.8970  -14.5179 N   0  0  0  0  0  0  0  0  0  0  0  0
    9.5572  -27.3986  -13.3247 C   0  0  0  0  0  0  0  0  0  0  0  0
    8.8744  -28.5480  -13.1758 N   0  0  0  0  0  0  0  0  0  0  0  0
    8.5111  -29.2842  -14.2537 C   0  0  0  0  0  0  0  0  0  0  0  0
    8.8784  -28.8017  -15.5940 C   0  0  0  0  0  0  0  0  0  0  0  0
    9.6304  -27.5273  -15.6751 C   0  0  0  0  0  0  0  0  0  0  0  0
   10.0083  -27.0122  -16.8709 N   0  0  0  0  0  0  0  0  0  0  0  0
    8.4044  -29.7068  -16.4709 N   0  0  0  0  0  0  0  0  0  0  0  0
    7.7877  -30.6823  -15.7553 C   0  0  0  0  0  0  0  0  0  0  0  0
    7.8511  -30.4306  -14.4349 N   0  0  0  0  0  0  0  0  0  0  0  0
  1  3  1  1  0  0  0
  1  5  2  0  0  0  0
  1  9  1  0  0  0  0
  1 18  1  0  0  0  0
  2  4  1  6  0  0  0
  2  6  2  0  0  0  0
  2 10  1  0  0  0  0
  2 17  1  0  0  0  0
  7  9  1  0  0  0  0
  8 10  1  0  0  0  0
 11  7  1  1  0  0  0
 11 13  1  0  0  0  0
 11 15  1  0  0  0  0
 12  8  1  6  0  0  0
 12 14  1  0  0  0  0
 12 16  1  0  0  0  0
 13 21  1  0  0  0  0
 14 22  1  0  0  0  0
 15 17  1  6  0  0  0
 15 19  1  0  0  0  0
 16 18  1  1  0  0  0
 16 20  1  0  0  0  0
 19 21  1  0  0  0  0
 20 22  1  0  0  0  0
 21 32  1  1  0  0  0
 22 42  1  6  0  0  0
 23 24  2  0  0  0  0
 23 28  1  0  0  0  0
 24 25  1  0  0  0  0
 25 26  2  0  0  0  0
 26 27  1  0  0  0  0
 26 32  1  0  0  0  0
 27 28  2  0  0  0  0
 27 30  1  0  0  0  0
 28 29  1  0  0  0  0
 30 31  2  0  0  0  0
 31 32  1  0  0  0  0
 33 34  2  0  0  0  0
 33 38  1  0  0  0  0
 34 35  1  0  0  0  0
 35 36  2  0  0  0  0
 36 37  1  0  0  0  0
 36 42  1  0  0  0  0
 37 38  2  0  0  0  0
 37 40  1  0  0  0  0
 38 39  1  0  0  0  0
 40 41  2  0  0  0  0
 41 42  1  0  0  0  0
M  CHG  2   3  -1   4  -1
M  END
>  <CHROM.1>
62.62771592,-98.07289294,5.33859638,-33.63777478,-16.00905200,-2.65828421
-0.70262343,-0.33259911

>  <Name>
ligand

>  <RI>
0

>  <Rbt.Current_Directory>
/home/itssahil/PROJECTS/Mol_Feturizer/New_Systems/rnas/4QLN

>  <Rbt.Executable>
rbdock ($Id: //depot/dev/client3/rdock/2013.1/src/exe/rbdock.cxx#4 $)

>  <Rbt.Library>
libRbt.so (2013.1, Build901 2013/11/27)

>  <Rbt.Parameter_File>
/export/apps/rDock/src/rDock_2013.1_src/data/scripts/dock_solv.prm

>  <Rbt.Receptor>
prm/pocket_docking_2.prm

>  <SCORE>
-35.8147

>  <SCORE.INTER>
-36.182

>  <SCORE.INTER.CONST>
1

>  <SCORE.INTER.POLAR>
0

>  <SCORE.INTER.ROT>
2

>  <SCORE.INTER.SOLV>
33.3234

>  <SCORE.INTER.VDW>
-40.1624

>  <SCORE.INTER.norm>
-0.861476

>  <SCORE.INTRA>
0.367291

>  <SCORE.INTRA.DIHEDRAL>
-0.000500822

>  <SCORE.INTRA.DIHEDRAL.0>
2.39985

>  <SCORE.INTRA.POLAR>
0

>  <SCORE.INTRA.POLAR.0>
0

>  <SCORE.INTRA.REPUL>
0

>  <SCORE.INTRA.REPUL.0>
0

>  <SCORE.INTRA.SOLV>
-0.00959414

>  <SCORE.INTRA.SOLV.lig_0>
-110.958

>  <SCORE.INTRA.VDW>
0.372338

>  <SCORE.INTRA.VDW.0>
-2.34644

>  <SCORE.INTRA.norm>
0.00874502

>  <SCORE.RESTR>
0

>  <SCORE.RESTR.CAVITY>
0

>  <SCORE.RESTR.norm>
0

>  <SCORE.SYSTEM>
0

>  <SCORE.SYSTEM.CONST>
0

>  <SCORE.SYSTEM.DIHEDRAL>
0

>  <SCORE.SYSTEM.SOLV>
0

>  <SCORE.SYSTEM.norm>
0

>  <SCORE.heavy>
42

>  <SCORE.norm>
-0.852731

>  <RMSD>
0.844

$$$$
ligand
 OpenBabel11021811513D
libRbt.so/2013.1/901 2013/11/27
 42 48  0  0  0  0  0  0  0  0999 V2000
    3.7511  -34.4147  -13.3938 P   0  0  2  0  0  0  0  0  0  0  0  0
    7.5278  -35.4617  -16.5804 P   0  0  1  0  0  0  0  0  0  0  0  0
    3.2322  -35.5138  -12.4962 O   0  5  0  0  0  0  0  0  0  0  0  0
    7.0385  -34.1385  -17.1189 O   0  5  0  0  0  0  0  0  0  0  0  0
    2.9435  -33.1531  -13.5833 O   0  0  0  0  0  0  0  0  0  0  0  0
    8.8427  -36.0300  -17.0575 O   0  0  0  0  0  0  0  0  0  0  0  0
    3.2382  -36.1080  -15.3500 C   0  0  0  0  0  0  0  0  0  0  0  0
    8.3936  -34.3948  -14.3297 C   0  0  0  0  0  0  0  0  0  0  0  0
    4.0465  -35.0469  -14.8443 O   0  0  0  0  0  0  0  0  0  0  0  0
    7.5729  -35.3665  -14.9737 O   0  0  0  0  0  0  0  0  0  0  0  0
    4.0757  -36.9918  -16.2666 C   0  0  1  0  0  0  0  0  0  0  0  0
    7.5729  -33.6415  -13.2904 C   0  0  1  0  0  0  0  0  0  0  0  0
    3.2197  -37.7025  -17.1651 O   0  0  0  0  0  0  0  0  0  0  0  0
    8.1701  -32.3680  -13.0348 O   0  0  0  0  0  0  0  0  0  0  0  0
    5.0399  -36.1641  -17.0995 C   0  0  1  0  0  0  0  0  0  0  0  0
    6.1533  -33.3994  -13.7779 C   0  0  1  0  0  0  0  0  0  0  0  0
    6.3813  -36.5637  -16.8353 O   0  0  0  0  0  0  0  0  0  0  0  0
    5.2210  -34.0011  -12.8846 O   0  0  0  0  0  0  0  0  0  0  0  0
    4.6935  -36.4339  -18.5520 C   0  0  0  0  0  0  0  0  0  0  0  0
    5.9570  -31.8959  -13.7992 C   0  0  0  0  0  0  0  0  0  0  0  0
    3.5302  -37.4143  -18.5310 C   0  0  2  0  0  0  0  0  0  0  0  0
    7.2707  -31.2941  -13.3209 C   0  0  2  0  0  0  0  0  0  0  0  0
    0.2054  -33.3515  -18.6629 N   0  0  0  0  0  0  0  0  0  0  0  0
    1.2521  -33.5902  -17.8513 C   0  0  0  0  0  0  0  0  0  0  0  0
    2.0259  -34.6882  -17.9326 N   0  0  0  0  0  0  0  0  0  0  0  0
    1.7854  -35.6407  -18.8653 C   0  0  0  0  0  0  0  0  0  0  0  0
    0.6576  -35.4519  -19.7911 C   0  0  0  0  0  0  0  0  0  0  0  0
   -0.1487  -34.2176  -19.6386 C   0  0  0  0  0  0  0  0  0  0  0  0
   -1.2041  -33.9657  -20.4499 N   0  0  0  0  0  0  0  0  0  0  0  0
    0.6423  -36.5268  -20.6016 N   0  0  0  0  0  0  0  0  0  0  0  0
    1.6688  -37.3332  -20.2287 C   0  0  0  0  0  0  0  0  0  0  0  0
    2.3504  -36.8051  -19.1939 N   0  0  0  0  0  0  0  0  0  0  0  0
    9.9111  -26.8940  -14.4344 N   0  0  0  0  0  0  0  0  0  0  0  0
    9.5364  -27.4038  -13.2465 C   0  0  0  0  0  0  0  0  0  0  0  0
    8.8551  -28.5556  -13.1088 N   0  0  0  0  0  0  0  0  0  0  0  0
    8.4996  -29.2858  -14.1935 C   0  0  0  0  0  0  0  0  0  0  0  0
    8.8737  -28.7941  -15.5285 C   0  0  0  0  0  0  0  0  0  0  0  0
    9.6235  -27.5176  -15.5972 C   0  0  0  0  0  0  0  0  0  0  0  0
   10.0072  -26.9942  -16.7875 N   0  0  0  0  0  0  0  0  0  0  0  0
    8.4068  -29.6946  -16.4139 N   0  0  0  0  0  0  0  0  0  0  0  0
    7.7880  -30.6758  -15.7081 C   0  0  0  0  0  0  0  0  0  0  0  0
    7.8431  -30.4324  -14.3857 N   0  0  0  0  0  0  0  0  0  0  0  0
  1  3  1  1  0  0  0
  1  5  2  0  0  0  0
  1  9  1  0  0  0  0
  1 18  1  0  0  0  0
  2  4  1  6  0  0  0
  2  6  2  0  0  0  0
  2 10  1  0  0  0  0
  2 17  1  0  0  0  0
  7  9  1  0  0  0  0
  8 10  1  0  0  0  0
 11  7  1  1  0  0  0
 11 13  1  0  0  0  0
 11 15  1  0  0  0  0
 12  8  1  6  0  0  0
 12 14  1  0  0  0  0
 12 16  1  0  0  0  0
 13 21  1  0  0  0  0
 14 22  1  0  0  0  0
 15 17  1  6  0  0  0
 15 19  1  0  0  0  0
 16 18  1  1  0  0  0
 16 20  1  0  0  0  0
 19 21  1  0  0  0  0
 20 22  1  0  0  0  0
 21 32  1  1  0  0  0
 22 42  1  6  0  0  0
 23 24  2  0  0  0  0
 23 28  1  0  0  0  0
 24 25  1  0  0  0  0
 25 26  2  0  0  0  0
 26 27  1  0  0  0  0
 26 32  1  0  0  0  0
 27 28  2  0  0  0  0
 27 30  1  0  0  0  0
 28 29  1  0  0  0  0
 30 31  2  0  0  0  0
 31 32  1  0  0  0  0
 33 34  2  0  0  0  0
 33 38  1  0  0  0  0
 34 35  1  0  0  0  0
 35 36  2  0  0  0  0
 36 37  1  0  0  0  0
 36 42  1  0  0  0  0
 37 38  2  0  0  0  0
 37 40  1  0  0  0  0
 38 39  1  0  0  0  0
 40 41  2  0  0  0  0
 41 42  1  0  0  0  0
M  CHG  2   3  -1   4  -1
M  END
>  <CHROM.1>
62.90980705,-98.27082344,5.33548114,-33.62541116,-15.99475566,-2.66032458
-0.70688489,-0.32659528

>  <Name>
ligand

>  <RI>
0

>  <Rbt.Current_Directory>
/home/itssahil/PROJECTS/Mol_Feturizer/New_Systems/rnas/4QLN

>  <Rbt.Executable>
rbdock ($Id: //depot/dev/client3/rdock/2013.1/src/exe/rbdock.cxx#4 $)

>  <Rbt.Library>
libRbt.so (2013.1, Build901 2013/11/27)

>  <Rbt.Parameter_File>
/export/apps/rDock/src/rDock_2013.1_src/data/scripts/dock_solv.prm

>  <Rbt.Receptor>
prm/pocket_docking_2.prm

>  <SCORE>
-35.8595

>  <SCORE.INTER>
-36.2264

>  <SCORE.INTER.CONST>
1

>  <SCORE.INTER.POLAR>
0

>  <SCORE.INTER.ROT>
2

>  <SCORE.INTER.SOLV>
33.237

>  <SCORE.INTER.VDW>
-40.1633

>  <SCORE.INTER.norm>
-0.862534

>  <SCORE.INTRA>
0.36694

>  <SCORE.INTRA.DIHEDRAL>
-0.000493758

>  <SCORE.INTRA.DIHEDRAL.0>
2.39985

>  <SCORE.INTRA.POLAR>
0

>  <SCORE.INTRA.POLAR.0>
0

>  <SCORE.INTRA.REPUL>
0

>  <SCORE.INTRA.REPUL.0>
0

>  <SCORE.INTRA.SOLV>
-0.00970505

>  <SCORE.INTRA.SOLV.lig_0>
-110.958

>  <SCORE.INTRA.VDW>
0.372039

>  <SCORE.INTRA.VDW.0>
-2.34644

>  <SCORE.INTRA.norm>
0.00873666

>  <SCORE.RESTR>
0

>  <SCORE.RESTR.CAVITY>
0

>  <SCORE.RESTR.norm>
0

>  <SCORE.SYSTEM>
0

>  <SCORE.SYSTEM.CONST>
0

>  <SCORE.SYSTEM.DIHEDRAL>
0

>  <SCORE.SYSTEM.SOLV>
0

>  <SCORE.SYSTEM.norm>
0

>  <SCORE.heavy>
42

>  <SCORE.norm>
-0.853797

>  <RMSD>
0.844

$$$$
ligand
 OpenBabel11021811513D
libRbt.so/2013.1/901 2013/11/27
 42 48  0  0  0  0  0  0  0  0999 V2000
    3.7236  -34.3970  -13.3852 P   0  0  2  0  0  0  0  0  0  0  0  0
    7.5098  -35.5057  -16.5395 P   0  0  1  0  0  0  0  0  0  0  0  0
    3.1945  -35.4814  -12.4757 O   0  5  0  0  0  0  0  0  0  0  0  0
    7.0301  -34.1871  -17.0977 O   0  5  0  0  0  0  0  0  0  0  0  0
    2.9236  -33.1337  -13.5952 O   0  0  0  0  0  0  0  0  0  0  0  0
    8.8239  -36.0871  -17.0027 O   0  0  0  0  0  0  0  0  0  0  0  0
    3.2110  -36.1132  -15.3214 C   0  0  0  0  0  0  0  0  0  0  0  0
    8.3705  -34.4137  -14.2989 C   0  0  0  0  0  0  0  0  0  0  0  0
    4.0225  -35.0498  -14.8259 O   0  0  0  0  0  0  0  0  0  0  0  0
    7.5477  -35.3896  -14.9340 O   0  0  0  0  0  0  0  0  0  0  0  0
    4.0482  -37.0134  -16.2222 C   0  0  1  0  0  0  0  0  0  0  0  0
    7.5489  -33.6425  -13.2736 C   0  0  1  0  0  0  0  0  0  0  0  0
    3.1927  -37.7314  -17.1155 O   0  0  0  0  0  0  0  0  0  0  0  0
    8.1516  -32.3689  -13.0318 O   0  0  0  0  0  0  0  0  0  0  0  0
    5.0207  -36.2018  -17.0613 C   0  0  1  0  0  0  0  0  0  0  0  0
    6.1329  -33.3995  -13.7710 C   0  0  1  0  0  0  0  0  0  0  0  0
    6.3587  -36.6049  -16.7854 O   0  0  0  0  0  0  0  0  0  0  0  0
    5.1932  -33.9844  -12.8744 O   0  0  0  0  0  0  0  0  0  0  0  0
    4.6798  -36.4890  -18.5117 C   0  0  0  0  0  0  0  0  0  0  0  0
    5.9447  -31.8953  -13.8131 C   0  0  0  0  0  0  0  0  0  0  0  0
    3.5112  -37.4629  -18.4836 C   0  0  2  0  0  0  0  0  0  0  0  0
    7.2593  -31.2941  -13.3364 C   0  0  2  0  0  0  0  0  0  0  0  0
    0.1482  -33.4318  -18.6223 N   0  0  0  0  0  0  0  0  0  0  0  0
    1.1820  -33.6713  -17.7945 C   0  0  0  0  0  0  0  0  0  0  0  0
    1.9684  -34.7604  -17.8763 N   0  0  0  0  0  0  0  0  0  0  0  0
    1.7550  -35.7022  -18.8262 C   0  0  0  0  0  0  0  0  0  0  0  0
    0.6428  -35.5118  -19.7704 C   0  0  0  0  0  0  0  0  0  0  0  0
   -0.1788  -34.2878  -19.6162 C   0  0  0  0  0  0  0  0  0  0  0  0
   -1.2213  -34.0352  -20.4437 N   0  0  0  0  0  0  0  0  0  0  0  0
    0.6535  -36.5754  -20.5957 N   0  0  0  0  0  0  0  0  0  0  0  0
    1.6811  -37.3767  -20.2146 C   0  0  0  0  0  0  0  0  0  0  0  0
    2.3379  -36.8563  -19.1601 N   0  0  0  0  0  0  0  0  0  0  0  0
    9.9121  -26.9136  -14.4962 N   0  0  0  0  0  0  0  0  0  0  0  0
    9.5270  -27.4045  -13.3037 C   0  0  0  0  0  0  0  0  0  0  0  0
    8.8438  -28.5536  -13.1538 N   0  0  0  0  0  0  0  0  0  0  0  0
    8.4970  -29.3005  -14.2299 C   0  0  0  0  0  0  0  0  0  0  0  0
    8.8828  -28.8300  -15.5692 C   0  0  0  0  0  0  0  0  0  0  0  0
    9.6340  -27.5552  -15.6515 C   0  0  0  0  0  0  0  0  0  0  0  0
   10.0282  -27.0507  -16.8466 N   0  0  0  0  0  0  0  0  0  0  0  0
    8.4228  -29.7440  -16.4443 N   0  0  0  0  0  0  0  0  0  0  0  0
    7.7973  -30.7137  -15.7285 C   0  0  0  0  0  0  0  0  0  0  0  0
    7.8414  -30.4496  -14.4097 N   0  0  0  0  0  0  0  0  0  0  0  0
  1  3  1  1  0  0  0
  1  5  2  0  0  0  0
  1  9  1  0  0  0  0
  1 18  1  0  0  0  0
  2  4  1  6  0  0  0
  2  6  2  0  0  0  0
  2 10  1  0  0  0  0
  2 17  1  0  0  0  0
  7  9  1  0  0  0  0
  8 10  1  0  0  0  0
 11  7  1  6  0  0  0
 11 13  1  0  0  0  0
 11 15  1  0  0  0  0
 12  8  1  6  0  0  0
 12 14  1  0  0  0  0
 12 16  1  0  0  0  0
 13 21  1  0  0  0  0
 14 22  1  0  0  0  0
 15 17  1  1  0  0  0
 15 19  1  0  0  0  0
 16 18  1  1  0  0  0
 16 20  1  0  0  0  0
 19 21  1  0  0  0  0
 20 22  1  0  0  0  0
 21 32  1  1  0  0  0
 22 42  1  6  0  0  0
 23 24  2  0  0  0  0
 23 28  1  0  0  0  0
 24 25  1  0  0  0  0
 25 26  2  0  0  0  0
 26 27  1  0  0  0  0
 26 32  1  0  0  0  0
 27 28  2  0  0  0  0
 27 30  1  0  0  0  0
 28 29  1  0  0  0  0
 30 31  2  0  0  0  0
 31 32  1  0  0  0  0
 33 34  2  0  0  0  0
 33 38  1  0  0  0  0
 34 35  1  0  0  0  0
 35 36  2  0  0  0  0
 36 37  1  0  0  0  0
 36 42  1  0  0  0  0
 37 38  2  0  0  0  0
 37 40  1  0  0  0  0
 38 39  1  0  0  0  0
 40 41  2  0  0  0  0
 41 42  1  0  0  0  0
M  CHG  2   3  -1   4  -1
M  END
>  <CHROM.1>
60.96242338,-98.64089345,5.31820742,-33.65344826,-15.98361196,-2.65952601
-0.70283471,-0.33239820

>  <Name>
ligand

>  <RI>
0

>  <Rbt.Current_Directory>
/home/itssahil/PROJECTS/Mol_Feturizer/New_Systems/rnas/4QLN

>  <Rbt.Executable>
rbdock ($Id: //depot/dev/client3/rdock/2013.1/src/exe/rbdock.cxx#4 $)

>  <Rbt.Library>
libRbt.so (2013.1, Build901 2013/11/27)

>  <Rbt.Parameter_File>
/export/apps/rDock/src/rDock_2013.1_src/data/scripts/dock_solv.prm

>  <Rbt.Receptor>
prm/pocket_docking_2.prm

>  <SCORE>
-35.8417

>  <SCORE.INTER>
-36.1743

>  <SCORE.INTER.CONST>
1

>  <SCORE.INTER.POLAR>
0

>  <SCORE.INTER.ROT>
2

>  <SCORE.INTER.SOLV>
33.2417

>  <SCORE.INTER.VDW>
-40.1301

>  <SCORE.INTER.norm>
-0.861294

>  <SCORE.INTRA>
0.332681

>  <SCORE.INTRA.DIHEDRAL>
-0.000514031

>  <SCORE.INTRA.DIHEDRAL.0>
2.39985

>  <SCORE.INTRA.POLAR>
0

>  <SCORE.INTRA.POLAR.0>
0

>  <SCORE.INTRA.REPUL>
0

>  <SCORE.INTRA.REPUL.0>
0

>  <SCORE.INTRA.SOLV>
-0.00760514

>  <SCORE.INTRA.SOLV.lig_0>
-110.958

>  <SCORE.INTRA.VDW>
0.33674

>  <SCORE.INTRA.VDW.0>
-2.34644

>  <SCORE.INTRA.norm>
0.00792097

>  <SCORE.RESTR>
0

>  <SCORE.RESTR.CAVITY>
0

>  <SCORE.RESTR.norm>
0

>  <SCORE.SYSTEM>
0

>  <SCORE.SYSTEM.CONST>
0

>  <SCORE.SYSTEM.DIHEDRAL>
0

>  <SCORE.SYSTEM.SOLV>
0

>  <SCORE.SYSTEM.norm>
0

>  <SCORE.heavy>
42

>  <SCORE.norm>
-0.853373

>  <RMSD>
0.844

$$$$
ligand
 OpenBabel11021811513D
libRbt.so/2013.1/901 2013/11/27
 42 48  0  0  0  0  0  0  0  0999 V2000
    3.7737  -34.3932  -13.4035 P   0  0  2  0  0  0  0  0  0  0  0  0
    7.5460  -35.4351  -16.5970 P   0  0  1  0  0  0  0  0  0  0  0  0
    3.2593  -35.4924  -12.5034 O   0  5  0  0  0  0  0  0  0  0  0  0
    7.0523  -34.1138  -17.1361 O   0  5  0  0  0  0  0  0  0  0  0  0
    2.9627  -33.1337  -13.5929 O   0  0  0  0  0  0  0  0  0  0  0  0
    8.8612  -36.0010  -17.0763 O   0  0  0  0  0  0  0  0  0  0  0  0
    3.2606  -36.0901  -15.3566 C   0  0  0  0  0  0  0  0  0  0  0  0
    8.4141  -34.3634  -14.3496 C   0  0  0  0  0  0  0  0  0  0  0  0
    4.0675  -35.0265  -14.8539 O   0  0  0  0  0  0  0  0  0  0  0  0
    7.5943  -35.3379  -14.9906 O   0  0  0  0  0  0  0  0  0  0  0  0
    4.0983  -36.9730  -16.2738 C   0  0  1  0  0  0  0  0  0  0  0  0
    7.5939  -33.6108  -13.3094 C   0  0  1  0  0  0  0  0  0  0  0  0
    3.2419  -37.6870  -17.1696 O   0  0  0  0  0  0  0  0  0  0  0  0
    8.1886  -32.3355  -13.0566 O   0  0  0  0  0  0  0  0  0  0  0  0
    5.0586  -36.1441  -17.1099 C   0  0  1  0  0  0  0  0  0  0  0  0
    6.1726  -33.3727  -13.7941 C   0  0  1  0  0  0  0  0  0  0  0  0
    6.4016  -36.5402  -16.8481 O   0  0  0  0  0  0  0  0  0  0  0  0
    5.2437  -33.9754  -12.8980 O   0  0  0  0  0  0  0  0  0  0  0  0
    4.7097  -36.4166  -18.5612 C   0  0  0  0  0  0  0  0  0  0  0  0
    5.9727  -31.8696  -13.8169 C   0  0  0  0  0  0  0  0  0  0  0  0
    3.5488  -37.3997  -18.5366 C   0  0  2  0  0  0  0  0  0  0  0  0
    7.2860  -31.2641  -13.3421 C   0  0  2  0  0  0  0  0  0  0  0  0
    0.2166  -33.3430  -18.6689 N   0  0  0  0  0  0  0  0  0  0  0  0
    1.2659  -33.5779  -17.8596 C   0  0  0  0  0  0  0  0  0  0  0  0
    2.0414  -34.6748  -17.9405 N   0  0  0  0  0  0  0  0  0  0  0  0
    1.8001  -35.6299  -18.8702 C   0  0  0  0  0  0  0  0  0  0  0  0
    0.6694  -35.4453  -19.7934 C   0  0  0  0  0  0  0  0  0  0  0  0
   -0.1387  -34.2121  -19.6416 C   0  0  0  0  0  0  0  0  0  0  0  0
   -1.1967  -33.9639  -20.4506 N   0  0  0  0  0  0  0  0  0  0  0  0
    0.6537  -36.5221  -20.6013 N   0  0  0  0  0  0  0  0  0  0  0  0
    1.6826  -37.3259  -20.2293 C   0  0  0  0  0  0  0  0  0  0  0  0
    2.3662  -36.7941  -19.1976 N   0  0  0  0  0  0  0  0  0  0  0  0
    9.9519  -26.8817  -14.4646 N   0  0  0  0  0  0  0  0  0  0  0  0
    9.5859  -27.3939  -13.2749 C   0  0  0  0  0  0  0  0  0  0  0  0
    8.8963  -28.5404  -13.1351 N   0  0  0  0  0  0  0  0  0  0  0  0
    8.5226  -29.2624  -14.2191 C   0  0  0  0  0  0  0  0  0  0  0  0
    8.8861  -28.7677  -15.5559 C   0  0  0  0  0  0  0  0  0  0  0  0
    9.6461  -27.4974  -15.6270 C   0  0  0  0  0  0  0  0  0  0  0  0
   10.0212  -26.9717  -16.8191 N   0  0  0  0  0  0  0  0  0  0  0  0
    8.4017  -29.6600  -16.4402 N   0  0  0  0  0  0  0  0  0  0  0  0
    7.7823  -30.6392  -15.7321 C   0  0  0  0  0  0  0  0  0  0  0  0
    7.8541  -30.4024  -14.4093 N   0  0  0  0  0  0  0  0  0  0  0  0
  1  3  1  1  0  0  0
  1  5  2  0  0  0  0
  1  9  1  0  0  0  0
  1 18  1  0  0  0  0
  2  4  1  6  0  0  0
  2  6  2  0  0  0  0
  2 10  1  0  0  0  0
  2 17  1  0  0  0  0
  7  9  1  0  0  0  0
  8 10  1  0  0  0  0
 11  7  1  1  0  0  0
 11 13  1  0  0  0  0
 11 15  1  0  0  0  0
 12  8  1  6  0  0  0
 12 14  1  0  0  0  0
 12 16  1  0  0  0  0
 13 21  1  0  0  0  0
 14 22  1  0  0  0  0
 15 17  1  6  0  0  0
 15 19  1  0  0  0  0
 16 18  1  1  0  0  0
 16 20  1  0  0  0  0
 19 21  1  0  0  0  0
 20 22  1  0  0  0  0
 21 32  1  1  0  0  0
 22 42  1  6  0  0  0
 23 24  2  0  0  0  0
 23 28  1  0  0  0  0
 24 25  1  0  0  0  0
 25 26  2  0  0  0  0
 26 27  1  0  0  0  0
 26 32  1  0  0  0  0
 27 28  2  0  0  0  0
 27 30  1  0  0  0  0
 28 29  1  0  0  0  0
 30 31  2  0  0  0  0
 31 32  1  0  0  0  0
 33 34  2  0  0  0  0
 33 38  1  0  0  0  0
 34 35  1  0  0  0  0
 35 36  2  0  0  0  0
 36 37  1  0  0  0  0
 36 42  1  0  0  0  0
 37 38  2  0  0  0  0
 37 40  1  0  0  0  0
 38 39  1  0  0  0  0
 40 41  2  0  0  0  0
 41 42  1  0  0  0  0
M  CHG  2   3  -1   4  -1
M  END
>  <CHROM.1>
62.99111647,-97.39465552,5.35392906,-33.60506200,-16.00894897,-2.66182348
-0.70671221,-0.33146579

>  <Name>
ligand

>  <RI>
0

>  <Rbt.Current_Directory>
/home/itssahil/PROJECTS/Mol_Feturizer/New_Systems/rnas/4QLN

>  <Rbt.Executable>
rbdock ($Id: //depot/dev/client3/rdock/2013.1/src/exe/rbdock.cxx#4 $)

>  <Rbt.Library>
libRbt.so (2013.1, Build901 2013/11/27)

>  <Rbt.Parameter_File>
/export/apps/rDock/src/rDock_2013.1_src/data/scripts/dock_solv.prm

>  <Rbt.Receptor>
prm/pocket_docking_2.prm

>  <SCORE>
-35.8663

>  <SCORE.INTER>
-36.2551

>  <SCORE.INTER.CONST>
1

>  <SCORE.INTER.POLAR>
0

>  <SCORE.INTER.ROT>
2

>  <SCORE.INTER.SOLV>
33.3857

>  <SCORE.INTER.VDW>
-40.2319

>  <SCORE.INTER.norm>
-0.863216

>  <SCORE.INTRA>
0.388773

>  <SCORE.INTRA.DIHEDRAL>
-0.00050644

>  <SCORE.INTRA.DIHEDRAL.0>
2.39985

>  <SCORE.INTRA.POLAR>
0

>  <SCORE.INTRA.POLAR.0>
0

>  <SCORE.INTRA.REPUL>
0

>  <SCORE.INTRA.REPUL.0>
0

>  <SCORE.INTRA.SOLV>
-0.0104911

>  <SCORE.INTRA.SOLV.lig_0>
-110.958

>  <SCORE.INTRA.VDW>
0.394271

>  <SCORE.INTRA.VDW.0>
-2.34644

>  <SCORE.INTRA.norm>
0.00925649

>  <SCORE.RESTR>
0

>  <SCORE.RESTR.CAVITY>
0

>  <SCORE.RESTR.norm>
0

>  <SCORE.SYSTEM>
0

>  <SCORE.SYSTEM.CONST>
0

>  <SCORE.SYSTEM.DIHEDRAL>
0

>  <SCORE.SYSTEM.SOLV>
0

>  <SCORE.SYSTEM.norm>
0

>  <SCORE.heavy>
42

>  <SCORE.norm>
-0.853959

>  <RMSD>
0.844

$$$$
ligand
 OpenBabel11021811513D
libRbt.so/2013.1/901 2013/11/27
 42 48  0  0  0  0  0  0  0  0999 V2000
    3.7415  -34.3974  -13.3889 P   0  0  2  0  0  0  0  0  0  0  0  0
    7.5165  -35.4900  -16.5622 P   0  0  1  0  0  0  0  0  0  0  0  0
    3.2214  -35.4841  -12.4771 O   0  5  0  0  0  0  0  0  0  0  0  0
    7.0287  -34.1733  -17.1177 O   0  5  0  0  0  0  0  0  0  0  0  0
    2.9354  -33.1373  -13.5947 O   0  0  0  0  0  0  0  0  0  0  0  0
    8.8306  -36.0660  -17.0321 O   0  0  0  0  0  0  0  0  0  0  0  0
    3.2263  -36.1152  -15.3231 C   0  0  0  0  0  0  0  0  0  0  0  0
    8.3839  -34.3951  -14.3257 C   0  0  0  0  0  0  0  0  0  0  0  0
    4.0360  -35.0486  -14.8312 O   0  0  0  0  0  0  0  0  0  0  0  0
    7.5619  -35.3741  -14.9569 O   0  0  0  0  0  0  0  0  0  0  0  0
    4.0627  -37.0118  -16.2282 C   0  0  1  0  0  0  0  0  0  0  0  0
    7.5643  -33.6275  -13.2961 C   0  0  1  0  0  0  0  0  0  0  0  0
    3.2056  -37.7331  -17.1174 O   0  0  0  0  0  0  0  0  0  0  0  0
    8.1630  -32.3515  -13.0570 O   0  0  0  0  0  0  0  0  0  0  0  0
    5.0277  -36.1961  -17.0719 C   0  0  1  0  0  0  0  0  0  0  0  0
    6.1448  -33.3900  -13.7864 C   0  0  1  0  0  0  0  0  0  0  0  0
    6.3687  -36.5938  -16.8027 O   0  0  0  0  0  0  0  0  0  0  0  0
    5.2119  -33.9790  -12.8853 O   0  0  0  0  0  0  0  0  0  0  0  0
    4.6807  -36.4843  -18.5207 C   0  0  0  0  0  0  0  0  0  0  0  0
    5.9503  -31.8866  -13.8272 C   0  0  0  0  0  0  0  0  0  0  0  0
    3.5163  -37.4629  -18.4870 C   0  0  2  0  0  0  0  0  0  0  0  0
    7.2648  -31.2803  -13.3568 C   0  0  2  0  0  0  0  0  0  0  0  0
    0.1504  -33.4342  -18.6225 N   0  0  0  0  0  0  0  0  0  0  0  0
    1.1910  -33.6683  -17.8018 C   0  0  0  0  0  0  0  0  0  0  0  0
    1.9772  -34.7575  -17.8834 N   0  0  0  0  0  0  0  0  0  0  0  0
    1.7565  -35.7051  -18.8259 C   0  0  0  0  0  0  0  0  0  0  0  0
    0.6365  -35.5209  -19.7621 C   0  0  0  0  0  0  0  0  0  0  0  0
   -0.1844  -34.2964  -19.6085 C   0  0  0  0  0  0  0  0  0  0  0  0
   -1.2338  -34.0492  -20.4289 N   0  0  0  0  0  0  0  0  0  0  0  0
    0.6410  -36.5895  -20.5809 N   0  0  0  0  0  0  0  0  0  0  0  0
    1.6720  -37.3881  -20.2034 C   0  0  0  0  0  0  0  0  0  0  0  0
    2.3372  -36.8610  -19.1575 N   0  0  0  0  0  0  0  0  0  0  0  0
    9.9289  -26.9091  -14.5262 N   0  0  0  0  0  0  0  0  0  0  0  0
    9.5562  -27.4045  -13.3316 C   0  0  0  0  0  0  0  0  0  0  0  0
    8.8680  -28.5503  -13.1794 N   0  0  0  0  0  0  0  0  0  0  0  0
    8.5030  -29.2890  -14.2550 C   0  0  0  0  0  0  0  0  0  0  0  0
    8.8743  -28.8132  -15.5966 C   0  0  0  0  0  0  0  0  0  0  0  0
    9.6321  -27.5424  -15.6814 C   0  0  0  0  0  0  0  0  0  0  0  0
   10.0139  -27.0335  -16.8786 N   0  0  0  0  0  0  0  0  0  0  0  0
    8.3976  -29.7195  -16.4708 N   0  0  0  0  0  0  0  0  0  0  0  0
    7.7755  -30.6895  -15.7524 C   0  0  0  0  0  0  0  0  0  0  0  0
    7.8381  -30.4331  -14.4328 N   0  0  0  0  0  0  0  0  0  0  0  0
  1  3  1  1  0  0  0
  1  5  2  0  0  0  0
  1  9  1  0  0  0  0
  1 18  1  0  0  0  0
  2  4  1  6  0  0  0
  2  6  2  0  0  0  0
  2 10  1  0  0  0  0
  2 17  1  0  0  0  0
  7  9  1  0  0  0  0
  8 10  1  0  0  0  0
 11  7  1  1  0  0  0
 11 13  1  0  0  0  0
 11 15  1  0  0  0  0
 12  8  1  6  0  0  0
 12 14  1  0  0  0  0
 12 16  1  0  0  0  0
 13 21  1  0  0  0  0
 14 22  1  0  0  0  0
 15 17  1  6  0  0  0
 15 19  1  0  0  0  0
 16 18  1  1  0  0  0
 16 20  1  0  0  0  0
 19 21  1  0  0  0  0
 20 22  1  0  0  0  0
 21 32  1  1  0  0  0
 22 42  1  6  0  0  0
 23 24  2  0  0  0  0
 23 28  1  0  0  0  0
 24 25  1  0  0  0  0
 25 26  2  0  0  0  0
 26 27  1  0  0  0  0
 26 32  1  0  0  0  0
 27 28  2  0  0  0  0
 27 30  1  0  0  0  0
 28 29  1  0  0  0  0
 30 31  2  0  0  0  0
 31 32  1  0  0  0  0
 33 34  2  0  0  0  0
 33 38  1  0  0  0  0
 34 35  1  0  0  0  0
 35 36  2  0  0  0  0
 36 37  1  0  0  0  0
 36 42  1  0  0  0  0
 37 38  2  0  0  0  0
 37 40  1  0  0  0  0
 38 39  1  0  0  0  0
 40 41  2  0  0  0  0
 41 42  1  0  0  0  0
M  CHG  2   3  -1   4  -1
M  END
>  <CHROM.1>
61.41767818,-97.84460073,5.32420836,-33.64755394,-15.99601697,-2.65865154
-0.70179601,-0.33516431

>  <Name>
ligand

>  <RI>
0

>  <Rbt.Current_Directory>
/home/itssahil/PROJECTS/Mol_Feturizer/New_Systems/rnas/4QLN

>  <Rbt.Executable>
rbdock ($Id: //depot/dev/client3/rdock/2013.1/src/exe/rbdock.cxx#4 $)

>  <Rbt.Library>
libRbt.so (2013.1, Build901 2013/11/27)

>  <Rbt.Parameter_File>
/export/apps/rDock/src/rDock_2013.1_src/data/scripts/dock_solv.prm

>  <Rbt.Receptor>
prm/pocket_docking_3.prm

>  <SCORE>
-35.8621

>  <SCORE.INTER>
-36.2186

>  <SCORE.INTER.CONST>
1

>  <SCORE.INTER.POLAR>
0

>  <SCORE.INTER.ROT>
2

>  <SCORE.INTER.SOLV>
33.2834

>  <SCORE.INTER.VDW>
-40.1735

>  <SCORE.INTER.norm>
-0.862347

>  <SCORE.INTRA>
0.356462

>  <SCORE.INTRA.DIHEDRAL>
-0.000520948

>  <SCORE.INTRA.DIHEDRAL.0>
2.39985

>  <SCORE.INTRA.POLAR>
0

>  <SCORE.INTRA.POLAR.0>
0

>  <SCORE.INTRA.REPUL>
0

>  <SCORE.INTRA.REPUL.0>
0

>  <SCORE.INTRA.SOLV>
-0.00864242

>  <SCORE.INTRA.SOLV.lig_0>
-110.958

>  <SCORE.INTRA.VDW>
0.361044

>  <SCORE.INTRA.VDW.0>
-2.34644

>  <SCORE.INTRA.norm>
0.00848719

>  <SCORE.RESTR>
0

>  <SCORE.RESTR.CAVITY>
0

>  <SCORE.RESTR.norm>
0

>  <SCORE.SYSTEM>
0

>  <SCORE.SYSTEM.CONST>
0

>  <SCORE.SYSTEM.DIHEDRAL>
0

>  <SCORE.SYSTEM.SOLV>
0

>  <SCORE.SYSTEM.norm>
0

>  <SCORE.heavy>
42

>  <SCORE.norm>
-0.85386

>  <RMSD>
0.846

$$$$
ligand
 OpenBabel11021811513D
libRbt.so/2013.1/901 2013/11/27
 42 48  0  0  0  0  0  0  0  0999 V2000
    3.8289  -34.3907  -13.4302 P   0  0  2  0  0  0  0  0  0  0  0  0
    7.5718  -35.4067  -16.6665 P   0  0  1  0  0  0  0  0  0  0  0  0
    3.3269  -35.4955  -12.5301 O   0  5  0  0  0  0  0  0  0  0  0  0
    7.0688  -34.0844  -17.1944 O   0  5  0  0  0  0  0  0  0  0  0  0
    3.0123  -33.1328  -13.6055 O   0  0  0  0  0  0  0  0  0  0  0  0
    8.8837  -35.9664  -17.1616 O   0  0  0  0  0  0  0  0  0  0  0  0
    3.3011  -36.0802  -15.3858 C   0  0  0  0  0  0  0  0  0  0  0  0
    8.4594  -34.3427  -14.4229 C   0  0  0  0  0  0  0  0  0  0  0  0
    4.1099  -35.0164  -14.8864 O   0  0  0  0  0  0  0  0  0  0  0  0
    7.6360  -35.3167  -15.0601 O   0  0  0  0  0  0  0  0  0  0  0  0
    4.1320  -36.9564  -16.3155 C   0  0  1  0  0  0  0  0  0  0  0  0
    7.6476  -33.5973  -13.3711 C   0  0  1  0  0  0  0  0  0  0  0  0
    3.2688  -37.6687  -17.2059 O   0  0  0  0  0  0  0  0  0  0  0  0
    8.2410  -32.3215  -13.1185 O   0  0  0  0  0  0  0  0  0  0  0  0
    5.0814  -36.1207  -17.1574 C   0  0  1  0  0  0  0  0  0  0  0  0
    6.2208  -33.3613  -13.8403 C   0  0  1  0  0  0  0  0  0  0  0  0
    6.4281  -36.5140  -16.9111 O   0  0  0  0  0  0  0  0  0  0  0  0
    5.3027  -33.9709  -12.9377 O   0  0  0  0  0  0  0  0  0  0  0  0
    4.7186  -36.3876  -18.6064 C   0  0  0  0  0  0  0  0  0  0  0  0
    6.0162  -31.8587  -13.8541 C   0  0  0  0  0  0  0  0  0  0  0  0
    3.5609  -37.3743  -18.5746 C   0  0  2  0  0  0  0  0  0  0  0  0
    7.3325  -31.2515  -13.3899 C   0  0  2  0  0  0  0  0  0  0  0  0
    0.1897  -33.3481  -18.6265 N   0  0  0  0  0  0  0  0  0  0  0  0
    1.2445  -33.5863  -17.8254 C   0  0  0  0  0  0  0  0  0  0  0  0
    2.0302  -34.6742  -17.9275 N   0  0  0  0  0  0  0  0  0  0  0  0
    1.7941  -35.6161  -18.8720 C   0  0  0  0  0  0  0  0  0  0  0  0
    0.6580  -35.4271  -19.7875 C   0  0  0  0  0  0  0  0  0  0  0  0
   -0.1612  -34.2043  -19.6120 C   0  0  0  0  0  0  0  0  0  0  0  0
   -1.2249  -33.9529  -20.4127 N   0  0  0  0  0  0  0  0  0  0  0  0
    0.6492  -36.4904  -20.6131 N   0  0  0  0  0  0  0  0  0  0  0  0
    1.6872  -37.2904  -20.2585 C   0  0  0  0  0  0  0  0  0  0  0  0
    2.3699  -36.7692  -19.2208 N   0  0  0  0  0  0  0  0  0  0  0  0
    9.9285  -26.8295  -14.5210 N   0  0  0  0  0  0  0  0  0  0  0  0
    9.5702  -27.3448  -13.3304 C   0  0  0  0  0  0  0  0  0  0  0  0
    8.8989  -28.5019  -13.1882 N   0  0  0  0  0  0  0  0  0  0  0  0
    8.5373  -29.2322  -14.2708 C   0  0  0  0  0  0  0  0  0  0  0  0
    8.8935  -28.7347  -15.6086 C   0  0  0  0  0  0  0  0  0  0  0  0
    9.6331  -27.4526  -15.6822 C   0  0  0  0  0  0  0  0  0  0  0  0
   10.0003  -26.9237  -16.8753 N   0  0  0  0  0  0  0  0  0  0  0  0
    8.4238  -29.6366  -16.4910 N   0  0  0  0  0  0  0  0  0  0  0  0
    7.8198  -30.6240  -15.7810 C   0  0  0  0  0  0  0  0  0  0  0  0
    7.8872  -30.3832  -14.4587 N   0  0  0  0  0  0  0  0  0  0  0  0
  1  3  1  1  0  0  0
  1  5  2  0  0  0  0
  1  9  1  0  0  0  0
  1 18  1  0  0  0  0
  2  4  1  6  0  0  0
  2  6  2  0  0  0  0
  2 10  1  0  0  0  0
  2 17  1  0  0  0  0
  7  9  1  0  0  0  0
  8 10  1  0  0  0  0
 11  7  1  1  0  0  0
 11 13  1  0  0  0  0
 11 15  1  0  0  0  0
 12  8  1  6  0  0  0
 12 14  1  0  0  0  0
 12 16  1  0  0  0  0
 13 21  1  0  0  0  0
 14 22  1  0  0  0  0
 15 17  1  6  0  0  0
 15 19  1  0  0  0  0
 16 18  1  1  0  0  0
 16 20  1  0  0  0  0
 19 21  1  0  0  0  0
 20 22  1  0  0  0  0
 21 32  1  1  0  0  0
 22 42  1  6  0  0  0
 23 24  2  0  0  0  0
 23 28  1  0  0  0  0
 24 25  1  0  0  0  0
 25 26  2  0  0  0  0
 26 27  1  0  0  0  0
 26 32  1  0  0  0  0
 27 28  2  0  0  0  0
 27 30  1  0  0  0  0
 28 29  1  0  0  0  0
 30 31  2  0  0  0  0
 31 32  1  0  0  0  0
 33 34  2  0  0  0  0
 33 38  1  0  0  0  0
 34 35  1  0  0  0  0
 35 36  2  0  0  0  0
 36 37  1  0  0  0  0
 36 42  1  0  0  0  0
 37 38  2  0  0  0  0
 37 40  1  0  0  0  0
 38 39  1  0  0  0  0
 40 41  2  0  0  0  0
 41 42  1  0  0  0  0
M  CHG  2   3  -1   4  -1
M  END
>  <CHROM.1>
62.13407638,-98.43025847,5.37452647,-33.58546501,-16.04568504,-2.64486480
-0.69411717,-0.31048421

>  <Name>
ligand

>  <RI>
0

>  <Rbt.Current_Directory>
/home/itssahil/PROJECTS/Mol_Feturizer/New_Systems/rnas/4QLN

>  <Rbt.Executable>
rbdock ($Id: //depot/dev/client3/rdock/2013.1/src/exe/rbdock.cxx#4 $)

>  <Rbt.Library>
libRbt.so (2013.1, Build901 2013/11/27)

>  <Rbt.Parameter_File>
/export/apps/rDock/src/rDock_2013.1_src/data/scripts/dock_solv.prm

>  <Rbt.Receptor>
prm/pocket_docking_6.prm

>  <SCORE>
-35.8333

>  <SCORE.INTER>
-36.1852

>  <SCORE.INTER.CONST>
1

>  <SCORE.INTER.POLAR>
0

>  <SCORE.INTER.ROT>
2

>  <SCORE.INTER.SOLV>
33.5306

>  <SCORE.INTER.VDW>
-40.2337

>  <SCORE.INTER.norm>
-0.861552

>  <SCORE.INTRA>
0.35191

>  <SCORE.INTRA.DIHEDRAL>
-0.000501628

>  <SCORE.INTRA.DIHEDRAL.0>
2.39985

>  <SCORE.INTRA.POLAR>
0

>  <SCORE.INTRA.POLAR.0>
0

>  <SCORE.INTRA.REPUL>
0

>  <SCORE.INTRA.REPUL.0>
0

>  <SCORE.INTRA.SOLV>
-0.00885803

>  <SCORE.INTRA.SOLV.lig_0>
-110.958

>  <SCORE.INTRA.VDW>
0.35659

>  <SCORE.INTRA.VDW.0>
-2.34644

>  <SCORE.INTRA.norm>
0.00837881

>  <SCORE.RESTR>
0

>  <SCORE.RESTR.CAVITY>
0

>  <SCORE.RESTR.norm>
0

>  <SCORE.SYSTEM>
0

>  <SCORE.SYSTEM.CONST>
0

>  <SCORE.SYSTEM.DIHEDRAL>
0

>  <SCORE.SYSTEM.SOLV>
0

>  <SCORE.SYSTEM.norm>
0

>  <SCORE.heavy>
42

>  <SCORE.norm>
-0.853173

>  <RMSD>
0.846

$$$$
ligand
 OpenBabel11021811513D
libRbt.so/2013.1/901 2013/11/27
 42 48  0  0  0  0  0  0  0  0999 V2000
    3.7467  -34.4128  -13.3926 P   0  0  2  0  0  0  0  0  0  0  0  0
    7.5164  -35.4915  -16.5769 P   0  0  1  0  0  0  0  0  0  0  0  0
    3.2291  -35.5031  -12.4835 O   0  5  0  0  0  0  0  0  0  0  0  0
    7.0265  -34.1732  -17.1269 O   0  5  0  0  0  0  0  0  0  0  0  0
    2.9393  -33.1526  -13.5923 O   0  0  0  0  0  0  0  0  0  0  0  0
    8.8300  -36.0650  -17.0514 O   0  0  0  0  0  0  0  0  0  0  0  0
    3.2290  -36.1242  -15.3317 C   0  0  0  0  0  0  0  0  0  0  0  0
    8.3873  -34.4039  -14.3382 C   0  0  0  0  0  0  0  0  0  0  0  0
    4.0388  -35.0587  -14.8377 O   0  0  0  0  0  0  0  0  0  0  0  0
    7.5648  -35.3813  -14.9713 O   0  0  0  0  0  0  0  0  0  0  0  0
    4.0642  -37.0169  -16.2416 C   0  0  1  0  0  0  0  0  0  0  0  0
    7.5691  -33.6405  -13.3044 C   0  0  1  0  0  0  0  0  0  0  0  0
    3.2060  -37.7357  -17.1316 O   0  0  0  0  0  0  0  0  0  0  0  0
    8.1674  -32.3649  -13.0619 O   0  0  0  0  0  0  0  0  0  0  0  0
    5.0271  -36.1976  -17.0843 C   0  0  1  0  0  0  0  0  0  0  0  0
    6.1485  -33.4023  -13.7911 C   0  0  1  0  0  0  0  0  0  0  0  0
    6.3688  -36.5953  -16.8191 O   0  0  0  0  0  0  0  0  0  0  0  0
    5.2178  -33.9951  -12.8903 O   0  0  0  0  0  0  0  0  0  0  0  0
    4.6775  -36.4809  -18.5334 C   0  0  0  0  0  0  0  0  0  0  0  0
    5.9529  -31.8989  -13.8262 C   0  0  0  0  0  0  0  0  0  0  0  0
    3.5138  -37.4605  -18.5009 C   0  0  2  0  0  0  0  0  0  0  0  0
    7.2679  -31.2933  -13.3563 C   0  0  2  0  0  0  0  0  0  0  0  0
    0.1440  -33.4344  -18.6149 N   0  0  0  0  0  0  0  0  0  0  0  0
    1.1862  -33.6708  -17.7969 C   0  0  0  0  0  0  0  0  0  0  0  0
    1.9733  -34.7589  -17.8841 N   0  0  0  0  0  0  0  0  0  0  0  0
    1.7519  -35.7030  -18.8299 C   0  0  0  0  0  0  0  0  0  0  0  0
    0.6301  -35.5163  -19.7634 C   0  0  0  0  0  0  0  0  0  0  0  0
   -0.1917  -34.2931  -19.6036 C   0  0  0  0  0  0  0  0  0  0  0  0
   -1.2428  -34.0436  -20.4213 N   0  0  0  0  0  0  0  0  0  0  0  0
    0.6341  -36.5816  -20.5865 N   0  0  0  0  0  0  0  0  0  0  0  0
    1.6665  -37.3807  -20.2138 C   0  0  0  0  0  0  0  0  0  0  0  0
    2.3330  -36.8570  -19.1670 N   0  0  0  0  0  0  0  0  0  0  0  0
    9.8659  -26.8809  -14.5198 N   0  0  0  0  0  0  0  0  0  0  0  0
    9.4879  -27.3762  -13.3268 C   0  0  0  0  0  0  0  0  0  0  0  0
    8.8190  -28.5335  -13.1759 N   0  0  0  0  0  0  0  0  0  0  0  0
    8.4803  -29.2849  -14.2515 C   0  0  0  0  0  0  0  0  0  0  0  0
    8.8589  -28.8100  -15.5913 C   0  0  0  0  0  0  0  0  0  0  0  0
    9.5945  -27.5262  -15.6746 C   0  0  0  0  0  0  0  0  0  0  0  0
    9.9813  -27.0172  -16.8702 N   0  0  0  0  0  0  0  0  0  0  0  0
    8.4092  -29.7298  -16.4658 N   0  0  0  0  0  0  0  0  0  0  0  0
    7.7964  -30.7069  -15.7491 C   0  0  0  0  0  0  0  0  0  0  0  0
    7.8385  -30.4419  -14.4304 N   0  0  0  0  0  0  0  0  0  0  0  0
  1  3  1  1  0  0  0
  1  5  2  0  0  0  0
  1  9  1  0  0  0  0
  1 18  1  0  0  0  0
  2  4  1  6  0  0  0
  2  6  2  0  0  0  0
  2 10  1  0  0  0  0
  2 17  1  0  0  0  0
  7  9  1  0  0  0  0
  8 10  1  0  0  0  0
 11  7  1  1  0  0  0
 11 13  1  0  0  0  0
 11 15  1  0  0  0  0
 12  8  1  6  0  0  0
 12 14  1  0  0  0  0
 12 16  1  0  0  0  0
 13 21  1  0  0  0  0
 14 22  1  0  0  0  0
 15 17  1  6  0  0  0
 15 19  1  0  0  0  0
 16 18  1  1  0  0  0
 16 20  1  0  0  0  0
 19 21  1  0  0  0  0
 20 22  1  0  0  0  0
 21 32  1  1  0  0  0
 22 42  1  6  0  0  0
 23 24  2  0  0  0  0
 23 28  1  0  0  0  0
 24 25  1  0  0  0  0
 25 26  2  0  0  0  0
 26 27  1  0  0  0  0
 26 32  1  0  0  0  0
 27 28  2  0  0  0  0
 27 30  1  0  0  0  0
 28 29  1  0  0  0  0
 30 31  2  0  0  0  0
 31 32  1  0  0  0  0
 33 34  2  0  0  0  0
 33 38  1  0  0  0  0
 34 35  1  0  0  0  0
 35 36  2  0  0  0  0
 36 37  1  0  0  0  0
 36 42  1  0  0  0  0
 37 38  2  0  0  0  0
 37 40  1  0  0  0  0
 38 39  1  0  0  0  0
 40 41  2  0  0  0  0
 41 42  1  0  0  0  0
M  CHG  2   3  -1   4  -1
M  END
>  <CHROM.1>
61.38917580,-99.23079152,5.31879578,-33.64981753,-16.00030638,-2.64890934
-0.69867600,-0.32143205

>  <Name>
ligand

>  <RI>
0

>  <Rbt.Current_Directory>
/home/itssahil/PROJECTS/Mol_Feturizer/New_Systems/rnas/4QLN

>  <Rbt.Executable>
rbdock ($Id: //depot/dev/client3/rdock/2013.1/src/exe/rbdock.cxx#4 $)

>  <Rbt.Library>
libRbt.so (2013.1, Build901 2013/11/27)

>  <Rbt.Parameter_File>
/export/apps/rDock/src/rDock_2013.1_src/data/scripts/dock_solv.prm

>  <Rbt.Receptor>
prm/pocket_docking_8.prm

>  <SCORE>
-35.8857

>  <SCORE.INTER>
-36.2095

>  <SCORE.INTER.CONST>
1

>  <SCORE.INTER.POLAR>
0

>  <SCORE.INTER.ROT>
2

>  <SCORE.INTER.SOLV>
33.1775

>  <SCORE.INTER.VDW>
-40.1322

>  <SCORE.INTER.norm>
-0.862131

>  <SCORE.INTRA>
0.323827

>  <SCORE.INTRA.DIHEDRAL>
-0.000497702

>  <SCORE.INTRA.DIHEDRAL.0>
2.39985

>  <SCORE.INTRA.POLAR>
0

>  <SCORE.INTRA.POLAR.0>
0

>  <SCORE.INTRA.REPUL>
0

>  <SCORE.INTRA.REPUL.0>
0

>  <SCORE.INTRA.SOLV>
-0.00759621

>  <SCORE.INTRA.SOLV.lig_0>
-110.958

>  <SCORE.INTRA.VDW>
0.327874

>  <SCORE.INTRA.VDW.0>
-2.34644

>  <SCORE.INTRA.norm>
0.00771016

>  <SCORE.RESTR>
0

>  <SCORE.RESTR.CAVITY>
0

>  <SCORE.RESTR.norm>
0

>  <SCORE.SYSTEM>
0

>  <SCORE.SYSTEM.CONST>
0

>  <SCORE.SYSTEM.DIHEDRAL>
0

>  <SCORE.SYSTEM.SOLV>
0

>  <SCORE.SYSTEM.norm>
0

>  <SCORE.heavy>
42

>  <SCORE.norm>
-0.854421

>  <RMSD>
0.846

$$$$
ligand
 OpenBabel11021811513D
libRbt.so/2013.1/901 2013/11/27
 42 48  0  0  0  0  0  0  0  0999 V2000
    3.8401  -34.3614  -13.4353 P   0  0  2  0  0  0  0  0  0  0  0  0
    7.5804  -35.4119  -16.6635 P   0  0  1  0  0  0  0  0  0  0  0  0
    3.3374  -35.4570  -12.5244 O   0  5  0  0  0  0  0  0  0  0  0  0
    7.0785  -34.0941  -17.2038 O   0  5  0  0  0  0  0  0  0  0  0  0
    3.0247  -33.1043  -13.6222 O   0  0  0  0  0  0  0  0  0  0  0  0
    8.8915  -35.9776  -17.1539 O   0  0  0  0  0  0  0  0  0  0  0  0
    3.3096  -36.0688  -15.3745 C   0  0  0  0  0  0  0  0  0  0  0  0
    8.4702  -34.3275  -14.4306 C   0  0  0  0  0  0  0  0  0  0  0  0
    4.1197  -35.0012  -14.8857 O   0  0  0  0  0  0  0  0  0  0  0  0
    7.6455  -35.3066  -15.0581 O   0  0  0  0  0  0  0  0  0  0  0  0
    4.1392  -36.9547  -16.2962 C   0  0  1  0  0  0  0  0  0  0  0  0
    7.6596  -33.5713  -13.3856 C   0  0  1  0  0  0  0  0  0  0  0  0
    3.2748  -37.6746  -17.1794 O   0  0  0  0  0  0  0  0  0  0  0  0
    8.2544  -32.2937  -13.1453 O   0  0  0  0  0  0  0  0  0  0  0  0
    5.0891  -36.1280  -17.1464 C   0  0  1  0  0  0  0  0  0  0  0  0
    6.2328  -33.3383  -13.8563 C   0  0  1  0  0  0  0  0  0  0  0  0
    6.4355  -36.5203  -16.8970 O   0  0  0  0  0  0  0  0  0  0  0  0
    5.3145  -33.9383  -12.9475 O   0  0  0  0  0  0  0  0  0  0  0  0
    4.7253  -36.4083  -18.5927 C   0  0  0  0  0  0  0  0  0  0  0  0
    6.0298  -31.8357  -13.8843 C   0  0  0  0  0  0  0  0  0  0  0  0
    3.5666  -37.3935  -18.5509 C   0  0  2  0  0  0  0  0  0  0  0  0
    7.3468  -31.2254  -13.4265 C   0  0  2  0  0  0  0  0  0  0  0  0
    0.2148  -33.3522  -18.6562 N   0  0  0  0  0  0  0  0  0  0  0  0
    1.2717  -33.5823  -17.8555 C   0  0  0  0  0  0  0  0  0  0  0  0
    2.0516  -34.6755  -17.9426 N   0  0  0  0  0  0  0  0  0  0  0  0
    1.8071  -35.6318  -18.8704 C   0  0  0  0  0  0  0  0  0  0  0  0
    0.6682  -35.4525  -19.7844 C   0  0  0  0  0  0  0  0  0  0  0  0
   -0.1443  -34.2229  -19.6259 C   0  0  0  0  0  0  0  0  0  0  0  0
   -1.2100  -33.9797  -20.4264 N   0  0  0  0  0  0  0  0  0  0  0  0
    0.6509  -36.5293  -20.5921 N   0  0  0  0  0  0  0  0  0  0  0  0
    1.6865  -37.3283  -20.2284 C   0  0  0  0  0  0  0  0  0  0  0  0
    2.3759  -36.7934  -19.2023 N   0  0  0  0  0  0  0  0  0  0  0  0
    9.9424  -26.8145  -14.6012 N   0  0  0  0  0  0  0  0  0  0  0  0
    9.5835  -27.3178  -13.4056 C   0  0  0  0  0  0  0  0  0  0  0  0
    8.9125  -28.4735  -13.2520 N   0  0  0  0  0  0  0  0  0  0  0  0
    8.5516  -29.2149  -14.3273 C   0  0  0  0  0  0  0  0  0  0  0  0
    8.9084  -28.7309  -15.6698 C   0  0  0  0  0  0  0  0  0  0  0  0
    9.6478  -27.4495  -15.7561 C   0  0  0  0  0  0  0  0  0  0  0  0
   10.0154  -26.9326  -16.9543 N   0  0  0  0  0  0  0  0  0  0  0  0
    8.4394  -29.6419  -16.5434 N   0  0  0  0  0  0  0  0  0  0  0  0
    7.8353  -30.6222  -15.8236 C   0  0  0  0  0  0  0  0  0  0  0  0
    7.9019  -30.3679  -14.5038 N   0  0  0  0  0  0  0  0  0  0  0  0
  1  3  1  1  0  0  0
  1  5  2  0  0  0  0
  1  9  1  0  0  0  0
  1 18  1  0  0  0  0
  2  4  1  6  0  0  0
  2  6  2  0  0  0  0
  2 10  1  0  0  0  0
  2 17  1  0  0  0  0
  7  9  1  0  0  0  0
  8 10  1  0  0  0  0
 11  7  1  1  0  0  0
 11 13  1  0  0  0  0
 11 15  1  0  0  0  0
 12  8  1  6  0  0  0
 12 14  1  0  0  0  0
 12 16  1  0  0  0  0
 13 21  1  0  0  0  0
 14 22  1  0  0  0  0
 15 17  1  6  0  0  0
 15 19  1  0  0  0  0
 16 18  1  1  0  0  0
 16 20  1  0  0  0  0
 19 21  1  0  0  0  0
 20 22  1  0  0  0  0
 21 32  1  1  0  0  0
 22 42  1  6  0  0  0
 23 24  2  0  0  0  0
 23 28  1  0  0  0  0
 24 25  1  0  0  0  0
 25 26  2  0  0  0  0
 26 27  1  0  0  0  0
 26 32  1  0  0  0  0
 27 28  2  0  0  0  0
 27 30  1  0  0  0  0
 28 29  1  0  0  0  0
 30 31  2  0  0  0  0
 31 32  1  0  0  0  0
 33 34  2  0  0  0  0
 33 38  1  0  0  0  0
 34 35  1  0  0  0  0
 35 36  2  0  0  0  0
 36 37  1  0  0  0  0
 36 42  1  0  0  0  0
 37 38  2  0  0  0  0
 37 40  1  0  0  0  0
 38 39  1  0  0  0  0
 40 41  2  0  0  0  0
 41 42  1  0  0  0  0
M  CHG  2   3  -1   4  -1
M  END
>  <CHROM.1>
62.64090140,-98.53108816,5.38616256,-33.58137396,-16.06044098,-2.64719912
-0.69498000,-0.32274516

>  <Name>
ligand

>  <RI>
0

>  <Rbt.Current_Directory>
/home/itssahil/PROJECTS/Mol_Feturizer/New_Systems/rnas/4QLN

>  <Rbt.Executable>
rbdock ($Id: //depot/dev/client3/rdock/2013.1/src/exe/rbdock.cxx#4 $)

>  <Rbt.Library>
libRbt.so (2013.1, Build901 2013/11/27)

>  <Rbt.Parameter_File>
/export/apps/rDock/src/rDock_2013.1_src/data/scripts/dock_solv.prm

>  <Rbt.Receptor>
prm/pocket_docking_2.prm

>  <SCORE>
-35.8588

>  <SCORE.INTER>
-36.2156

>  <SCORE.INTER.CONST>
1

>  <SCORE.INTER.POLAR>
0

>  <SCORE.INTER.ROT>
2

>  <SCORE.INTER.SOLV>
33.7317

>  <SCORE.INTER.VDW>
-40.321

>  <SCORE.INTER.norm>
-0.862276

>  <SCORE.INTRA>
0.356783

>  <SCORE.INTRA.DIHEDRAL>
-0.00049303

>  <SCORE.INTRA.DIHEDRAL.0>
2.39985

>  <SCORE.INTRA.POLAR>
0

>  <SCORE.INTRA.POLAR.0>
0

>  <SCORE.INTRA.REPUL>
0

>  <SCORE.INTRA.REPUL.0>
0

>  <SCORE.INTRA.SOLV>
-0.00925801

>  <SCORE.INTRA.SOLV.lig_0>
-110.958

>  <SCORE.INTRA.VDW>
0.361658

>  <SCORE.INTRA.VDW.0>
-2.34644

>  <SCORE.INTRA.norm>
0.00849483

>  <SCORE.RESTR>
0

>  <SCORE.RESTR.CAVITY>
0

>  <SCORE.RESTR.norm>
0

>  <SCORE.SYSTEM>
0

>  <SCORE.SYSTEM.CONST>
0

>  <SCORE.SYSTEM.DIHEDRAL>
0

>  <SCORE.SYSTEM.SOLV>
0

>  <SCORE.SYSTEM.norm>
0

>  <SCORE.heavy>
42

>  <SCORE.norm>
-0.853781

>  <RMSD>
0.847

$$$$
ligand
 OpenBabel11021811513D
libRbt.so/2013.1/901 2013/11/27
 42 48  0  0  0  0  0  0  0  0999 V2000
    3.7682  -34.3883  -13.4058 P   0  0  2  0  0  0  0  0  0  0  0  0
    7.5431  -35.4364  -16.5942 P   0  0  1  0  0  0  0  0  0  0  0  0
    3.2519  -35.4861  -12.5051 O   0  5  0  0  0  0  0  0  0  0  0  0
    7.0510  -34.1152  -17.1351 O   0  5  0  0  0  0  0  0  0  0  0  0
    2.9584  -33.1283  -13.5972 O   0  0  0  0  0  0  0  0  0  0  0  0
    8.8583  -36.0038  -17.0714 O   0  0  0  0  0  0  0  0  0  0  0  0
    3.2558  -36.0867  -15.3576 C   0  0  0  0  0  0  0  0  0  0  0  0
    8.4096  -34.3631  -14.3468 C   0  0  0  0  0  0  0  0  0  0  0  0
    4.0630  -35.0232  -14.8552 O   0  0  0  0  0  0  0  0  0  0  0  0
    7.5897  -35.3376  -14.9877 O   0  0  0  0  0  0  0  0  0  0  0  0
    4.0937  -36.9712  -16.2731 C   0  0  1  0  0  0  0  0  0  0  0  0
    7.5889  -33.6088  -13.3083 C   0  0  1  0  0  0  0  0  0  0  0  0
    3.2378  -37.6854  -17.1691 O   0  0  0  0  0  0  0  0  0  0  0  0
    8.1843  -32.3338  -13.0561 O   0  0  0  0  0  0  0  0  0  0  0  0
    5.0557  -36.1439  -17.1090 C   0  0  1  0  0  0  0  0  0  0  0  0
    6.1683  -33.3701  -13.7947 C   0  0  1  0  0  0  0  0  0  0  0  0
    6.3980  -36.5408  -16.8454 O   0  0  0  0  0  0  0  0  0  0  0  0
    5.2379  -33.9712  -12.8991 O   0  0  0  0  0  0  0  0  0  0  0  0
    4.7081  -36.4175  -18.5604 C   0  0  0  0  0  0  0  0  0  0  0  0
    5.9697  -31.8669  -13.8192 C   0  0  0  0  0  0  0  0  0  0  0  0
    3.5464  -37.3997  -18.5361 C   0  0  2  0  0  0  0  0  0  0  0  0
    7.2829  -31.2619  -13.3437 C   0  0  2  0  0  0  0  0  0  0  0  0
    0.2164  -33.3414  -18.6748 N   0  0  0  0  0  0  0  0  0  0  0  0
    1.2645  -33.5765  -17.8639 C   0  0  0  0  0  0  0  0  0  0  0  0
    2.0396  -34.6738  -17.9432 N   0  0  0  0  0  0  0  0  0  0  0  0
    1.7990  -35.6292  -18.8729 C   0  0  0  0  0  0  0  0  0  0  0  0
    0.6696  -35.4444  -19.7977 C   0  0  0  0  0  0  0  0  0  0  0  0
   -0.1380  -34.2107  -19.6475 C   0  0  0  0  0  0  0  0  0  0  0  0
   -1.1949  -33.9624  -20.4581 N   0  0  0  0  0  0  0  0  0  0  0  0
    0.6545  -36.5216  -20.6051 N   0  0  0  0  0  0  0  0  0  0  0  0
    1.6825  -37.3257  -20.2313 C   0  0  0  0  0  0  0  0  0  0  0  0
    2.3649  -36.7938  -19.1990 N   0  0  0  0  0  0  0  0  0  0  0  0
    9.9563  -26.8845  -14.4674 N   0  0  0  0  0  0  0  0  0  0  0  0
    9.5890  -27.3954  -13.2777 C   0  0  0  0  0  0  0  0  0  0  0  0
    8.8975  -28.5407  -13.1375 N   0  0  0  0  0  0  0  0  0  0  0  0
    8.5231  -29.2627  -14.2212 C   0  0  0  0  0  0  0  0  0  0  0  0
    8.8880  -28.7693  -15.5582 C   0  0  0  0  0  0  0  0  0  0  0  0
    9.6501  -27.5003  -15.6296 C   0  0  0  0  0  0  0  0  0  0  0  0
   10.0265  -26.9759  -16.8219 N   0  0  0  0  0  0  0  0  0  0  0  0
    8.4025  -29.6613  -16.4421 N   0  0  0  0  0  0  0  0  0  0  0  0
    7.7812  -30.6391  -15.7337 C   0  0  0  0  0  0  0  0  0  0  0  0
    7.8528  -30.4017  -14.4111 N   0  0  0  0  0  0  0  0  0  0  0  0
  1  3  1  1  0  0  0
  1  5  2  0  0  0  0
  1  9  1  0  0  0  0
  1 18  1  0  0  0  0
  2  4  1  6  0  0  0
  2  6  2  0  0  0  0
  2 10  1  0  0  0  0
  2 17  1  0  0  0  0
  7  9  1  0  0  0  0
  8 10  1  0  0  0  0
 11  7  1  1  0  0  0
 11 13  1  0  0  0  0
 11 15  1  0  0  0  0
 12  8  1  6  0  0  0
 12 14  1  0  0  0  0
 12 16  1  0  0  0  0
 13 21  1  0  0  0  0
 14 22  1  0  0  0  0
 15 17  1  6  0  0  0
 15 19  1  0  0  0  0
 16 18  1  1  0  0  0
 16 20  1  0  0  0  0
 19 21  1  0  0  0  0
 20 22  1  0  0  0  0
 21 32  1  1  0  0  0
 22 42  1  6  0  0  0
 23 24  2  0  0  0  0
 23 28  1  0  0  0  0
 24 25  1  0  0  0  0
 25 26  2  0  0  0  0
 26 27  1  0  0  0  0
 26 32  1  0  0  0  0
 27 28  2  0  0  0  0
 27 30  1  0  0  0  0
 28 29  1  0  0  0  0
 30 31  2  0  0  0  0
 31 32  1  0  0  0  0
 33 34  2  0  0  0  0
 33 38  1  0  0  0  0
 34 35  1  0  0  0  0
 35 36  2  0  0  0  0
 36 37  1  0  0  0  0
 36 42  1  0  0  0  0
 37 38  2  0  0  0  0
 37 40  1  0  0  0  0
 38 39  1  0  0  0  0
 40 41  2  0  0  0  0
 41 42  1  0  0  0  0
M  CHG  2   3  -1   4  -1
M  END
>  <CHROM.1>
62.95263050,-97.33007474,5.35195250,-33.60420492,-16.01012969,-2.66351191
-0.70740028,-0.33362005

>  <Name>
ligand

>  <RI>
0

>  <Rbt.Current_Directory>
/home/itssahil/PROJECTS/Mol_Feturizer/New_Systems/rnas/4QLN

>  <Rbt.Executable>
rbdock ($Id: //depot/dev/client3/rdock/2013.1/src/exe/rbdock.cxx#4 $)

>  <Rbt.Library>
libRbt.so (2013.1, Build901 2013/11/27)

>  <Rbt.Parameter_File>
/export/apps/rDock/src/rDock_2013.1_src/data/scripts/dock_solv.prm

>  <Rbt.Receptor>
prm/pocket_docking_3.prm

>  <SCORE>
-35.8488

>  <SCORE.INTER>
-36.2385

>  <SCORE.INTER.CONST>
1

>  <SCORE.INTER.POLAR>
0

>  <SCORE.INTER.ROT>
2

>  <SCORE.INTER.SOLV>
33.427

>  <SCORE.INTER.VDW>
-40.2346

>  <SCORE.INTER.norm>
-0.862821

>  <SCORE.INTRA>
0.389693

>  <SCORE.INTRA.DIHEDRAL>
-0.000507919

>  <SCORE.INTRA.DIHEDRAL.0>
2.39985

>  <SCORE.INTRA.POLAR>
0

>  <SCORE.INTRA.POLAR.0>
0

>  <SCORE.INTRA.REPUL>
0

>  <SCORE.INTRA.REPUL.0>
0

>  <SCORE.INTRA.SOLV>
-0.0105107

>  <SCORE.INTRA.SOLV.lig_0>
-110.958

>  <SCORE.INTRA.VDW>
0.395202

>  <SCORE.INTRA.VDW.0>
-2.34644

>  <SCORE.INTRA.norm>
0.00927839

>  <SCORE.RESTR>
0

>  <SCORE.RESTR.CAVITY>
0

>  <SCORE.RESTR.norm>
0

>  <SCORE.SYSTEM>
0

>  <SCORE.SYSTEM.CONST>
0

>  <SCORE.SYSTEM.DIHEDRAL>
0

>  <SCORE.SYSTEM.SOLV>
0

>  <SCORE.SYSTEM.norm>
0

>  <SCORE.heavy>
42

>  <SCORE.norm>
-0.853542

>  <RMSD>
0.847

$$$$
ligand
 OpenBabel11021811513D
libRbt.so/2013.1/901 2013/11/27
 42 48  0  0  0  0  0  0  0  0999 V2000
    3.8546  -34.3913  -13.4349 P   0  0  2  0  0  0  0  0  0  0  0  0
    7.5827  -35.4001  -16.6903 P   0  0  1  0  0  0  0  0  0  0  0  0
    3.3626  -35.4958  -12.5288 O   0  5  0  0  0  0  0  0  0  0  0  0
    7.0710  -34.0814  -17.2189 O   0  5  0  0  0  0  0  0  0  0  0  0
    3.0316  -33.1374  -13.6088 O   0  0  0  0  0  0  0  0  0  0  0  0
    8.8941  -35.9555  -17.1916 O   0  0  0  0  0  0  0  0  0  0  0  0
    3.3225  -36.0884  -15.3827 C   0  0  0  0  0  0  0  0  0  0  0  0
    8.4790  -34.3262  -14.4550 C   0  0  0  0  0  0  0  0  0  0  0  0
    4.1297  -35.0198  -14.8910 O   0  0  0  0  0  0  0  0  0  0  0  0
    7.6560  -35.3054  -15.0846 O   0  0  0  0  0  0  0  0  0  0  0  0
    4.1518  -36.9635  -16.3150 C   0  0  1  0  0  0  0  0  0  0  0  0
    7.6701  -33.5814  -13.4004 C   0  0  1  0  0  0  0  0  0  0  0  0
    3.2864  -37.6820  -17.1983 O   0  0  0  0  0  0  0  0  0  0  0  0
    8.2595  -32.3023  -13.1547 O   0  0  0  0  0  0  0  0  0  0  0  0
    5.0926  -36.1261  -17.1647 C   0  0  1  0  0  0  0  0  0  0  0  0
    6.2395  -33.3527  -13.8618 C   0  0  1  0  0  0  0  0  0  0  0  0
    6.4424  -36.5130  -16.9252 O   0  0  0  0  0  0  0  0  0  0  0  0
    5.3294  -33.9638  -12.9522 O   0  0  0  0  0  0  0  0  0  0  0  0
    4.7225  -36.3985  -18.6108 C   0  0  0  0  0  0  0  0  0  0  0  0
    6.0285  -31.8511  -13.8785 C   0  0  0  0  0  0  0  0  0  0  0  0
    3.5692  -37.3901  -18.5695 C   0  0  2  0  0  0  0  0  0  0  0  0
    7.3448  -31.2370  -13.4237 C   0  0  2  0  0  0  0  0  0  0  0  0
    0.2062  -33.3573  -18.6407 N   0  0  0  0  0  0  0  0  0  0  0  0
    1.2700  -33.5862  -17.8488 C   0  0  0  0  0  0  0  0  0  0  0  0
    2.0520  -34.6772  -17.9441 N   0  0  0  0  0  0  0  0  0  0  0  0
    1.8027  -35.6324  -18.8717 C   0  0  0  0  0  0  0  0  0  0  0  0
    0.6561  -35.4543  -19.7763 C   0  0  0  0  0  0  0  0  0  0  0  0
   -0.1583  -34.2272  -19.6092 C   0  0  0  0  0  0  0  0  0  0  0  0
   -1.2310  -33.9853  -20.4008 N   0  0  0  0  0  0  0  0  0  0  0  0
    0.6352  -36.5297  -20.5859 N   0  0  0  0  0  0  0  0  0  0  0  0
    1.6757  -37.3267  -20.2319 C   0  0  0  0  0  0  0  0  0  0  0  0
    2.3719  -36.7919  -19.2104 N   0  0  0  0  0  0  0  0  0  0  0  0
    9.9441  -26.8237  -14.5808 N   0  0  0  0  0  0  0  0  0  0  0  0
    9.5987  -27.3394  -13.3865 C   0  0  0  0  0  0  0  0  0  0  0  0
    8.9247  -28.4940  -13.2377 N   0  0  0  0  0  0  0  0  0  0  0  0
    8.5465  -29.2212  -14.3166 C   0  0  0  0  0  0  0  0  0  0  0  0
    8.8878  -28.7230  -15.6581 C   0  0  0  0  0  0  0  0  0  0  0  0
    9.6316  -27.4438  -15.7391 C   0  0  0  0  0  0  0  0  0  0  0  0
    9.9858  -26.9145  -16.9359 N   0  0  0  0  0  0  0  0  0  0  0  0
    8.4034  -29.6217  -16.5359 N   0  0  0  0  0  0  0  0  0  0  0  0
    7.8045  -30.6078  -15.8198 C   0  0  0  0  0  0  0  0  0  0  0  0
    7.8895  -30.3692  -14.4981 N   0  0  0  0  0  0  0  0  0  0  0  0
  1  3  1  1  0  0  0
  1  5  2  0  0  0  0
  1  9  1  0  0  0  0
  1 18  1  0  0  0  0
  2  4  1  6  0  0  0
  2  6  2  0  0  0  0
  2 10  1  0  0  0  0
  2 17  1  0  0  0  0
  7  9  1  0  0  0  0
  8 10  1  0  0  0  0
 11  7  1  1  0  0  0
 11 13  1  0  0  0  0
 11 15  1  0  0  0  0
 12  8  1  6  0  0  0
 12 14  1  0  0  0  0
 12 16  1  0  0  0  0
 13 21  1  0  0  0  0
 14 22  1  0  0  0  0
 15 17  1  6  0  0  0
 15 19  1  0  0  0  0
 16 18  1  1  0  0  0
 16 20  1  0  0  0  0
 19 21  1  0  0  0  0
 20 22  1  0  0  0  0
 21 32  1  1  0  0  0
 22 42  1  6  0  0  0
 23 24  2  0  0  0  0
 23 28  1  0  0  0  0
 24 25  1  0  0  0  0
 25 26  2  0  0  0  0
 26 27  1  0  0  0  0
 26 32  1  0  0  0  0
 27 28  2  0  0  0  0
 27 30  1  0  0  0  0
 28 29  1  0  0  0  0
 30 31  2  0  0  0  0
 31 32  1  0  0  0  0
 33 34  2  0  0  0  0
 33 38  1  0  0  0  0
 34 35  1  0  0  0  0
 35 36  2  0  0  0  0
 36 37  1  0  0  0  0
 36 42  1  0  0  0  0
 37 38  2  0  0  0  0
 37 40  1  0  0  0  0
 38 39  1  0  0  0  0
 40 41  2  0  0  0  0
 41 42  1  0  0  0  0
M  CHG  2   3  -1   4  -1
M  END
>  <CHROM.1>
62.99193309,-97.77234208,5.38583005,-33.58623825,-16.06379293,-2.64403681
-0.69347422,-0.31709268

>  <Name>
ligand

>  <RI>
0

>  <Rbt.Current_Directory>
/home/itssahil/PROJECTS/Mol_Feturizer/New_Systems/rnas/4QLN

>  <Rbt.Executable>
rbdock ($Id: //depot/dev/client3/rdock/2013.1/src/exe/rbdock.cxx#4 $)

>  <Rbt.Library>
libRbt.so (2013.1, Build901 2013/11/27)

>  <Rbt.Parameter_File>
/export/apps/rDock/src/rDock_2013.1_src/data/scripts/dock_solv.prm

>  <Rbt.Receptor>
prm/pocket_docking_3.prm

>  <SCORE>
-35.832

>  <SCORE.INTER>
-36.2119

>  <SCORE.INTER.CONST>
1

>  <SCORE.INTER.POLAR>
0

>  <SCORE.INTER.ROT>
2

>  <SCORE.INTER.SOLV>
33.6554

>  <SCORE.INTER.VDW>
-40.2931

>  <SCORE.INTER.norm>
-0.862188

>  <SCORE.INTRA>
0.379899

>  <SCORE.INTRA.DIHEDRAL>
-0.000500666

>  <SCORE.INTRA.DIHEDRAL.0>
2.39985

>  <SCORE.INTRA.POLAR>
0

>  <SCORE.INTRA.POLAR.0>
0

>  <SCORE.INTRA.REPUL>
0

>  <SCORE.INTRA.REPUL.0>
0

>  <SCORE.INTRA.SOLV>
-0.0101759

>  <SCORE.INTRA.SOLV.lig_0>
-110.958

>  <SCORE.INTRA.VDW>
0.385238

>  <SCORE.INTRA.VDW.0>
-2.34644

>  <SCORE.INTRA.norm>
0.00904522

>  <SCORE.RESTR>
0

>  <SCORE.RESTR.CAVITY>
0

>  <SCORE.RESTR.norm>
0

>  <SCORE.SYSTEM>
0

>  <SCORE.SYSTEM.CONST>
0

>  <SCORE.SYSTEM.DIHEDRAL>
0

>  <SCORE.SYSTEM.SOLV>
0

>  <SCORE.SYSTEM.norm>
0

>  <SCORE.heavy>
42

>  <SCORE.norm>
-0.853142

>  <RMSD>
0.848

$$$$
ligand
 OpenBabel11021811513D
libRbt.so/2013.1/901 2013/11/27
 42 48  0  0  0  0  0  0  0  0999 V2000
    3.7551  -34.4057  -13.3936 P   0  0  2  0  0  0  0  0  0  0  0  0
    7.5222  -35.4732  -16.5848 P   0  0  1  0  0  0  0  0  0  0  0  0
    3.2407  -35.4983  -12.4855 O   0  5  0  0  0  0  0  0  0  0  0  0
    7.0293  -34.1549  -17.1321 O   0  5  0  0  0  0  0  0  0  0  0  0
    2.9453  -33.1466  -13.5903 O   0  0  0  0  0  0  0  0  0  0  0  0
    8.8361  -36.0437  -17.0620 O   0  0  0  0  0  0  0  0  0  0  0  0
    3.2376  -36.1150  -15.3346 C   0  0  0  0  0  0  0  0  0  0  0  0
    8.3944  -34.3875  -14.3456 C   0  0  0  0  0  0  0  0  0  0  0  0
    4.0463  -35.0490  -14.8401 O   0  0  0  0  0  0  0  0  0  0  0  0
    7.5726  -35.3653  -14.9791 O   0  0  0  0  0  0  0  0  0  0  0  0
    4.0731  -37.0050  -16.2470 C   0  0  1  0  0  0  0  0  0  0  0  0
    7.5763  -33.6270  -13.3095 C   0  0  1  0  0  0  0  0  0  0  0  0
    3.2149  -37.7239  -17.1370 O   0  0  0  0  0  0  0  0  0  0  0  0
    8.1728  -32.3508  -13.0660 O   0  0  0  0  0  0  0  0  0  0  0  0
    5.0334  -36.1827  -17.0898 C   0  0  1  0  0  0  0  0  0  0  0  0
    6.1547  -33.3906  -13.7940 C   0  0  1  0  0  0  0  0  0  0  0  0
    6.3762  -36.5786  -16.8271 O   0  0  0  0  0  0  0  0  0  0  0  0
    5.2262  -33.9863  -12.8927 O   0  0  0  0  0  0  0  0  0  0  0  0
    4.6823  -36.4645  -18.5389 C   0  0  0  0  0  0  0  0  0  0  0  0
    5.9565  -31.8874  -13.8265 C   0  0  0  0  0  0  0  0  0  0  0  0
    3.5203  -37.4461  -18.5062 C   0  0  2  0  0  0  0  0  0  0  0  0
    7.2710  -31.2803  -13.3574 C   0  0  2  0  0  0  0  0  0  0  0  0
    0.1854  -33.3921  -18.6537 N   0  0  0  0  0  0  0  0  0  0  0  0
    1.2345  -33.6236  -17.8432 C   0  0  0  0  0  0  0  0  0  0  0  0
    2.0108  -34.7202  -17.9200 N   0  0  0  0  0  0  0  0  0  0  0  0
    1.7705  -35.6786  -18.8466 C   0  0  0  0  0  0  0  0  0  0  0  0
    0.6401  -35.4980  -19.7708 C   0  0  0  0  0  0  0  0  0  0  0  0
   -0.1689  -34.2648  -19.6235 C   0  0  0  0  0  0  0  0  0  0  0  0
   -1.2268  -34.0201  -20.4338 N   0  0  0  0  0  0  0  0  0  0  0  0
    0.6254  -36.5775  -20.5750 N   0  0  0  0  0  0  0  0  0  0  0  0
    1.6547  -37.3793  -20.1998 C   0  0  0  0  0  0  0  0  0  0  0  0
    2.3375  -36.8436  -19.1698 N   0  0  0  0  0  0  0  0  0  0  0  0
    9.9307  -26.9027  -14.5130 N   0  0  0  0  0  0  0  0  0  0  0  0
    9.5644  -27.4058  -13.3196 C   0  0  0  0  0  0  0  0  0  0  0  0
    8.8766  -28.5522  -13.1710 N   0  0  0  0  0  0  0  0  0  0  0  0
    8.5051  -29.2837  -14.2495 C   0  0  0  0  0  0  0  0  0  0  0  0
    8.8692  -28.7993  -15.5899 C   0  0  0  0  0  0  0  0  0  0  0  0
    9.6271  -27.5283  -15.6706 C   0  0  0  0  0  0  0  0  0  0  0  0
   10.0025  -27.0118  -16.8666 N   0  0  0  0  0  0  0  0  0  0  0  0
    8.3871  -29.6996  -16.4674 N   0  0  0  0  0  0  0  0  0  0  0  0
    7.7687  -30.6740  -15.7519 C   0  0  0  0  0  0  0  0  0  0  0  0
    7.8387  -30.4263  -14.4310 N   0  0  0  0  0  0  0  0  0  0  0  0
  1  3  1  1  0  0  0
  1  5  2  0  0  0  0
  1  9  1  0  0  0  0
  1 18  1  0  0  0  0
  2  4  1  6  0  0  0
  2  6  2  0  0  0  0
  2 10  1  0  0  0  0
  2 17  1  0  0  0  0
  7  9  1  0  0  0  0
  8 10  1  0  0  0  0
 11  7  1  1  0  0  0
 11 13  1  0  0  0  0
 11 15  1  0  0  0  0
 12  8  1  6  0  0  0
 12 14  1  0  0  0  0
 12 16  1  0  0  0  0
 13 21  1  0  0  0  0
 14 22  1  0  0  0  0
 15 17  1  6  0  0  0
 15 19  1  0  0  0  0
 16 18  1  1  0  0  0
 16 20  1  0  0  0  0
 19 21  1  0  0  0  0
 20 22  1  0  0  0  0
 21 32  1  1  0  0  0
 22 42  1  6  0  0  0
 23 24  2  0  0  0  0
 23 28  1  0  0  0  0
 24 25  1  0  0  0  0
 25 26  2  0  0  0  0
 26 27  1  0  0  0  0
 26 32  1  0  0  0  0
 27 28  2  0  0  0  0
 27 30  1  0  0  0  0
 28 29  1  0  0  0  0
 30 31  2  0  0  0  0
 31 32  1  0  0  0  0
 33 34  2  0  0  0  0
 33 38  1  0  0  0  0
 34 35  1  0  0  0  0
 35 36  2  0  0  0  0
 36 37  1  0  0  0  0
 36 42  1  0  0  0  0
 37 38  2  0  0  0  0
 37 40  1  0  0  0  0
 38 39  1  0  0  0  0
 40 41  2  0  0  0  0
 41 42  1  0  0  0  0
M  CHG  2   3  -1   4  -1
M  END
>  <CHROM.1>
62.75769460,-97.61753933,5.33155047,-33.63672326,-16.00558787,-2.66051430
-0.70414838,-0.33596162

>  <Name>
ligand

>  <RI>
0

>  <Rbt.Current_Directory>
/home/itssahil/PROJECTS/Mol_Feturizer/New_Systems/rnas/4QLN

>  <Rbt.Executable>
rbdock ($Id: //depot/dev/client3/rdock/2013.1/src/exe/rbdock.cxx#4 $)

>  <Rbt.Library>
libRbt.so (2013.1, Build901 2013/11/27)

>  <Rbt.Parameter_File>
/export/apps/rDock/src/rDock_2013.1_src/data/scripts/dock_solv.prm

>  <Rbt.Receptor>
prm/pocket_docking_4.prm

>  <SCORE>
-35.8239

>  <SCORE.INTER>
-36.2038

>  <SCORE.INTER.CONST>
1

>  <SCORE.INTER.POLAR>
0

>  <SCORE.INTER.ROT>
2

>  <SCORE.INTER.SOLV>
33.3095

>  <SCORE.INTER.VDW>
-40.1724

>  <SCORE.INTER.norm>
-0.861995

>  <SCORE.INTRA>
0.379925

>  <SCORE.INTRA.DIHEDRAL>
-0.000506233

>  <SCORE.INTRA.DIHEDRAL.0>
2.39985

>  <SCORE.INTRA.POLAR>
0

>  <SCORE.INTRA.POLAR.0>
0

>  <SCORE.INTRA.REPUL>
0

>  <SCORE.INTRA.REPUL.0>
0

>  <SCORE.INTRA.SOLV>
-0.0100843

>  <SCORE.INTRA.SOLV.lig_0>
-110.958

>  <SCORE.INTRA.VDW>
0.385221

>  <SCORE.INTRA.VDW.0>
-2.34644

>  <SCORE.INTRA.norm>
0.00904584

>  <SCORE.RESTR>
0

>  <SCORE.RESTR.CAVITY>
0

>  <SCORE.RESTR.norm>
0

>  <SCORE.SYSTEM>
0

>  <SCORE.SYSTEM.CONST>
0

>  <SCORE.SYSTEM.DIHEDRAL>
0

>  <SCORE.SYSTEM.SOLV>
0

>  <SCORE.SYSTEM.norm>
0

>  <SCORE.heavy>
42

>  <SCORE.norm>
-0.852949

>  <RMSD>
0.848

$$$$
ligand
 OpenBabel11021811513D
libRbt.so/2013.1/901 2013/11/27
 42 48  0  0  0  0  0  0  0  0999 V2000
    3.7531  -34.4142  -13.3976 P   0  0  2  0  0  0  0  0  0  0  0  0
    7.5206  -35.4623  -16.5948 P   0  0  1  0  0  0  0  0  0  0  0  0
    3.2336  -35.5142  -12.5015 O   0  5  0  0  0  0  0  0  0  0  0  0
    7.0332  -34.1367  -17.1291 O   0  5  0  0  0  0  0  0  0  0  0  0
    2.9481  -33.1502  -13.5824 O   0  0  0  0  0  0  0  0  0  0  0  0
    8.8331  -36.0325  -17.0761 O   0  0  0  0  0  0  0  0  0  0  0  0
    3.2321  -36.1016  -15.3568 C   0  0  0  0  0  0  0  0  0  0  0  0
    8.3937  -34.4027  -14.3435 C   0  0  0  0  0  0  0  0  0  0  0  0
    4.0440  -35.0436  -14.8503 O   0  0  0  0  0  0  0  0  0  0  0  0
    7.5693  -35.3710  -14.9880 O   0  0  0  0  0  0  0  0  0  0  0  0
    4.0657  -36.9851  -16.2772 C   0  0  1  0  0  0  0  0  0  0  0  0
    7.5770  -33.6500  -13.3006 C   0  0  1  0  0  0  0  0  0  0  0  0
    3.2060  -37.6918  -17.1756 O   0  0  0  0  0  0  0  0  0  0  0  0
    8.1776  -32.3785  -13.0432 O   0  0  0  0  0  0  0  0  0  0  0  0
    5.0300  -36.1577  -17.1102 C   0  0  1  0  0  0  0  0  0  0  0  0
    6.1568  -33.4035  -13.7844 C   0  0  1  0  0  0  0  0  0  0  0  0
    6.3710  -36.5610  -16.8499 O   0  0  0  0  0  0  0  0  0  0  0  0
    5.2250  -34.0051  -12.8906 O   0  0  0  0  0  0  0  0  0  0  0  0
    4.6798  -36.4233  -18.5626 C   0  0  0  0  0  0  0  0  0  0  0  0
    5.9640  -31.8995  -13.8018 C   0  0  0  0  0  0  0  0  0  0  0  0
    3.5143  -37.4011  -18.5415 C   0  0  2  0  0  0  0  0  0  0  0  0
    7.2801  -31.3018  -13.3249 C   0  0  2  0  0  0  0  0  0  0  0  0
    0.1866  -33.3397  -18.6439 N   0  0  0  0  0  0  0  0  0  0  0  0
    1.2330  -33.5840  -17.8335 C   0  0  0  0  0  0  0  0  0  0  0  0
    2.0077  -34.6808  -17.9229 N   0  0  0  0  0  0  0  0  0  0  0  0
    1.7685  -35.6262  -18.8631 C   0  0  0  0  0  0  0  0  0  0  0  0
    0.6412  -35.4310  -19.7882 C   0  0  0  0  0  0  0  0  0  0  0  0
   -0.1662  -34.1985  -19.6265 C   0  0  0  0  0  0  0  0  0  0  0  0
   -1.2212  -33.9410  -20.4366 N   0  0  0  0  0  0  0  0  0  0  0  0
    0.6271  -36.4995  -20.6070 N   0  0  0  0  0  0  0  0  0  0  0  0
    1.6540  -37.3081  -20.2397 C   0  0  0  0  0  0  0  0  0  0  0  0
    2.3346  -36.7876  -19.2004 N   0  0  0  0  0  0  0  0  0  0  0  0
    9.9061  -26.8923  -14.4350 N   0  0  0  0  0  0  0  0  0  0  0  0
    9.5299  -27.4025  -13.2477 C   0  0  0  0  0  0  0  0  0  0  0  0
    8.8529  -28.5568  -13.1109 N   0  0  0  0  0  0  0  0  0  0  0  0
    8.5036  -29.2895  -14.1959 C   0  0  0  0  0  0  0  0  0  0  0  0
    8.8797  -28.7977  -15.5303 C   0  0  0  0  0  0  0  0  0  0  0  0
    9.6245  -27.5183  -15.5980 C   0  0  0  0  0  0  0  0  0  0  0  0
   10.0097  -26.9946  -16.7878 N   0  0  0  0  0  0  0  0  0  0  0  0
    8.4190  -29.7010  -16.4161 N   0  0  0  0  0  0  0  0  0  0  0  0
    7.8020  -30.6840  -15.7112 C   0  0  0  0  0  0  0  0  0  0  0  0
    7.8522  -30.4389  -14.3889 N   0  0  0  0  0  0  0  0  0  0  0  0
  1  3  1  1  0  0  0
  1  5  2  0  0  0  0
  1  9  1  0  0  0  0
  1 18  1  0  0  0  0
  2  4  1  6  0  0  0
  2  6  2  0  0  0  0
  2 10  1  0  0  0  0
  2 17  1  0  0  0  0
  7  9  1  0  0  0  0
  8 10  1  0  0  0  0
 11  7  1  1  0  0  0
 11 13  1  0  0  0  0
 11 15  1  0  0  0  0
 12  8  1  6  0  0  0
 12 14  1  0  0  0  0
 12 16  1  0  0  0  0
 13 21  1  0  0  0  0
 14 22  1  0  0  0  0
 15 17  1  6  0  0  0
 15 19  1  0  0  0  0
 16 18  1  1  0  0  0
 16 20  1  0  0  0  0
 19 21  1  0  0  0  0
 20 22  1  0  0  0  0
 21 32  1  1  0  0  0
 22 42  1  6  0  0  0
 23 24  2  0  0  0  0
 23 28  1  0  0  0  0
 24 25  1  0  0  0  0
 25 26  2  0  0  0  0
 26 27  1  0  0  0  0
 26 32  1  0  0  0  0
 27 28  2  0  0  0  0
 27 30  1  0  0  0  0
 28 29  1  0  0  0  0
 30 31  2  0  0  0  0
 31 32  1  0  0  0  0
 33 34  2  0  0  0  0
 33 38  1  0  0  0  0
 34 35  1  0  0  0  0
 35 36  2  0  0  0  0
 36 37  1  0  0  0  0
 36 42  1  0  0  0  0
 37 38  2  0  0  0  0
 37 40  1  0  0  0  0
 38 39  1  0  0  0  0
 40 41  2  0  0  0  0
 41 42  1  0  0  0  0
M  CHG  2   3  -1   4  -1
M  END
>  <CHROM.1>
62.51940990,-98.77628490,5.33097436,-33.62208167,-15.99917848,-2.65793241
-0.70231592,-0.32010748

>  <Name>
ligand

>  <RI>
0

>  <Rbt.Current_Directory>
/home/itssahil/PROJECTS/Mol_Feturizer/New_Systems/rnas/4QLN

>  <Rbt.Executable>
rbdock ($Id: //depot/dev/client3/rdock/2013.1/src/exe/rbdock.cxx#4 $)

>  <Rbt.Library>
libRbt.so (2013.1, Build901 2013/11/27)

>  <Rbt.Parameter_File>
/export/apps/rDock/src/rDock_2013.1_src/data/scripts/dock_solv.prm

>  <Rbt.Receptor>
prm/pocket_docking_2.prm

>  <SCORE>
-35.809

>  <SCORE.INTER>
-36.1583

>  <SCORE.INTER.CONST>
1

>  <SCORE.INTER.POLAR>
0

>  <SCORE.INTER.ROT>
2

>  <SCORE.INTER.SOLV>
33.2803

>  <SCORE.INTER.VDW>
-40.1323

>  <SCORE.INTER.norm>
-0.860912

>  <SCORE.INTRA>
0.349289

>  <SCORE.INTRA.DIHEDRAL>
-0.000490445

>  <SCORE.INTRA.DIHEDRAL.0>
2.39985

>  <SCORE.INTRA.POLAR>
0

>  <SCORE.INTRA.POLAR.0>
0

>  <SCORE.INTRA.REPUL>
0

>  <SCORE.INTRA.REPUL.0>
0

>  <SCORE.INTRA.SOLV>
-0.0089669

>  <SCORE.INTRA.SOLV.lig_0>
-110.958

>  <SCORE.INTRA.VDW>
0.354017

>  <SCORE.INTRA.VDW.0>
-2.34644

>  <SCORE.INTRA.norm>
0.0083164

>  <SCORE.RESTR>
0

>  <SCORE.RESTR.CAVITY>
0

>  <SCORE.RESTR.norm>
0

>  <SCORE.SYSTEM>
0

>  <SCORE.SYSTEM.CONST>
0

>  <SCORE.SYSTEM.DIHEDRAL>
0

>  <SCORE.SYSTEM.SOLV>
0

>  <SCORE.SYSTEM.norm>
0

>  <SCORE.heavy>
42

>  <SCORE.norm>
-0.852596

>  <RMSD>
0.849

$$$$
ligand
 OpenBabel11021811513D
libRbt.so/2013.1/901 2013/11/27
 42 48  0  0  0  0  0  0  0  0999 V2000
    3.7125  -34.3695  -13.3795 P   0  0  2  0  0  0  0  0  0  0  0  0
    7.5009  -35.4913  -16.5265 P   0  0  1  0  0  0  0  0  0  0  0  0
    3.1820  -35.4504  -12.4667 O   0  5  0  0  0  0  0  0  0  0  0  0
    7.0223  -34.1744  -17.0898 O   0  5  0  0  0  0  0  0  0  0  0  0
    2.9134  -33.1065  -13.5946 O   0  0  0  0  0  0  0  0  0  0  0  0
    8.8151  -36.0751  -16.9866 O   0  0  0  0  0  0  0  0  0  0  0  0
    3.2006  -36.0922  -15.3102 C   0  0  0  0  0  0  0  0  0  0  0  0
    8.3602  -34.3920  -14.2890 C   0  0  0  0  0  0  0  0  0  0  0  0
    4.0123  -35.0275  -14.8176 O   0  0  0  0  0  0  0  0  0  0  0  0
    7.5374  -35.3696  -14.9214 O   0  0  0  0  0  0  0  0  0  0  0  0
    4.0382  -36.9959  -16.2071 C   0  0  1  0  0  0  0  0  0  0  0  0
    7.5381  -33.6168  -13.2671 C   0  0  1  0  0  0  0  0  0  0  0  0
    3.1830  -37.7166  -17.0986 O   0  0  0  0  0  0  0  0  0  0  0  0
    8.1413  -32.3426  -13.0293 O   0  0  0  0  0  0  0  0  0  0  0  0
    5.0118  -36.1878  -17.0481 C   0  0  1  0  0  0  0  0  0  0  0  0
    6.1227  -33.3747  -13.7667 C   0  0  1  0  0  0  0  0  0  0  0  0
    6.3494  -36.5907  -16.7697 O   0  0  0  0  0  0  0  0  0  0  0  0
    5.1818  -33.9559  -12.8688 O   0  0  0  0  0  0  0  0  0  0  0  0
    4.6720  -36.4799  -18.4979 C   0  0  0  0  0  0  0  0  0  0  0  0
    5.9354  -31.8706  -13.8142 C   0  0  0  0  0  0  0  0  0  0  0  0
    3.5029  -37.4530  -18.4673 C   0  0  2  0  0  0  0  0  0  0  0  0
    7.2499  -31.2685  -13.3384 C   0  0  2  0  0  0  0  0  0  0  0  0
    0.1355  -33.4260  -18.6162 N   0  0  0  0  0  0  0  0  0  0  0  0
    1.1675  -33.6640  -17.7857 C   0  0  0  0  0  0  0  0  0  0  0  0
    1.9553  -34.7521  -17.8651 N   0  0  0  0  0  0  0  0  0  0  0  0
    1.7455  -35.6946  -18.8151 C   0  0  0  0  0  0  0  0  0  0  0  0
    0.6353  -35.5060  -19.7621 C   0  0  0  0  0  0  0  0  0  0  0  0
   -0.1881  -34.2829  -19.6104 C   0  0  0  0  0  0  0  0  0  0  0  0
   -1.2289  -34.0319  -20.4406 N   0  0  0  0  0  0  0  0  0  0  0  0
    0.6493  -36.5700  -20.5868 N   0  0  0  0  0  0  0  0  0  0  0  0
    1.6768  -37.3699  -20.2028 C   0  0  0  0  0  0  0  0  0  0  0  0
    2.3305  -36.8482  -19.1470 N   0  0  0  0  0  0  0  0  0  0  0  0
    9.9149  -26.8986  -14.5104 N   0  0  0  0  0  0  0  0  0  0  0  0
    9.5295  -27.3858  -13.3164 C   0  0  0  0  0  0  0  0  0  0  0  0
    8.8430  -28.5324  -13.1634 N   0  0  0  0  0  0  0  0  0  0  0  0
    8.4928  -29.2805  -14.2375 C   0  0  0  0  0  0  0  0  0  0  0  0
    8.8785  -28.8141  -15.5782 C   0  0  0  0  0  0  0  0  0  0  0  0
    9.6336  -27.5417  -15.6640 C   0  0  0  0  0  0  0  0  0  0  0  0
   10.0280  -27.0411  -16.8606 N   0  0  0  0  0  0  0  0  0  0  0  0
    8.4147  -29.7285  -16.4509 N   0  0  0  0  0  0  0  0  0  0  0  0
    7.7871  -30.6948  -15.7323 C   0  0  0  0  0  0  0  0  0  0  0  0
    7.8334  -30.4280  -14.4141 N   0  0  0  0  0  0  0  0  0  0  0  0
  1  3  1  1  0  0  0
  1  5  2  0  0  0  0
  1  9  1  0  0  0  0
  1 18  1  0  0  0  0
  2  4  1  6  0  0  0
  2  6  2  0  0  0  0
  2 10  1  0  0  0  0
  2 17  1  0  0  0  0
  7  9  1  0  0  0  0
  8 10  1  0  0  0  0
 11  7  1  6  0  0  0
 11 13  1  0  0  0  0
 11 15  1  0  0  0  0
 12  8  1  6  0  0  0
 12 14  1  0  0  0  0
 12 16  1  0  0  0  0
 13 21  1  0  0  0  0
 14 22  1  0  0  0  0
 15 17  1  1  0  0  0
 15 19  1  0  0  0  0
 16 18  1  1  0  0  0
 16 20  1  0  0  0  0
 19 21  1  0  0  0  0
 20 22  1  0  0  0  0
 21 32  1  6  0  0  0
 22 42  1  6  0  0  0
 23 24  2  0  0  0  0
 23 28  1  0  0  0  0
 24 25  1  0  0  0  0
 25 26  2  0  0  0  0
 26 27  1  0  0  0  0
 26 32  1  0  0  0  0
 27 28  2  0  0  0  0
 27 30  1  0  0  0  0
 28 29  1  0  0  0  0
 30 31  2  0  0  0  0
 31 32  1  0  0  0  0
 33 34  2  0  0  0  0
 33 38  1  0  0  0  0
 34 35  1  0  0  0  0
 35 36  2  0  0  0  0
 36 37  1  0  0  0  0
 36 42  1  0  0  0  0
 37 38  2  0  0  0  0
 37 40  1  0  0  0  0
 38 39  1  0  0  0  0
 40 41  2  0  0  0  0
 41 42  1  0  0  0  0
M  CHG  2   3  -1   4  -1
M  END
>  <CHROM.1>
60.74373043,-98.44116235,5.30996307,-33.63678808,-15.97845428,-2.66095547
-0.70296174,-0.33672019

>  <Name>
ligand

>  <RI>
0

>  <Rbt.Current_Directory>
/home/itssahil/PROJECTS/Mol_Feturizer/New_Systems/rnas/4QLN

>  <Rbt.Executable>
rbdock ($Id: //depot/dev/client3/rdock/2013.1/src/exe/rbdock.cxx#4 $)

>  <Rbt.Library>
libRbt.so (2013.1, Build901 2013/11/27)

>  <Rbt.Parameter_File>
/export/apps/rDock/src/rDock_2013.1_src/data/scripts/dock_solv.prm

>  <Rbt.Receptor>
prm/pocket_docking_2.prm

>  <SCORE>
-35.8197

>  <SCORE.INTER>
-36.1547

>  <SCORE.INTER.CONST>
1

>  <SCORE.INTER.POLAR>
0

>  <SCORE.INTER.ROT>
2

>  <SCORE.INTER.SOLV>
33.2683

>  <SCORE.INTER.VDW>
-40.1259

>  <SCORE.INTER.norm>
-0.860826

>  <SCORE.INTRA>
0.335032

>  <SCORE.INTRA.DIHEDRAL>
-0.000520431

>  <SCORE.INTRA.DIHEDRAL.0>
2.39985

>  <SCORE.INTRA.POLAR>
0

>  <SCORE.INTRA.POLAR.0>
0

>  <SCORE.INTRA.REPUL>
0

>  <SCORE.INTRA.REPUL.0>
0

>  <SCORE.INTRA.SOLV>
-0.00754701

>  <SCORE.INTRA.SOLV.lig_0>
-110.958

>  <SCORE.INTRA.VDW>
0.339065

>  <SCORE.INTRA.VDW.0>
-2.34644

>  <SCORE.INTRA.norm>
0.00797694

>  <SCORE.RESTR>
0

>  <SCORE.RESTR.CAVITY>
0

>  <SCORE.RESTR.norm>
0

>  <SCORE.SYSTEM>
0

>  <SCORE.SYSTEM.CONST>
0

>  <SCORE.SYSTEM.DIHEDRAL>
0

>  <SCORE.SYSTEM.SOLV>
0

>  <SCORE.SYSTEM.norm>
0

>  <SCORE.heavy>
42

>  <SCORE.norm>
-0.852849

>  <RMSD>
0.850

$$$$
ligand
 OpenBabel11021811513D
libRbt.so/2013.1/901 2013/11/27
 42 48  0  0  0  0  0  0  0  0999 V2000
    3.7092  -34.3988  -13.3797 P   0  0  2  0  0  0  0  0  0  0  0  0
    7.4946  -35.5133  -16.5330 P   0  0  1  0  0  0  0  0  0  0  0  0
    3.1781  -35.4825  -12.4706 O   0  5  0  0  0  0  0  0  0  0  0  0
    7.0172  -34.1939  -17.0912 O   0  5  0  0  0  0  0  0  0  0  0  0
    2.9114  -33.1342  -13.5898 O   0  0  0  0  0  0  0  0  0  0  0  0
    8.8078  -36.0969  -16.9959 O   0  0  0  0  0  0  0  0  0  0  0  0
    3.1943  -36.1138  -15.3164 C   0  0  0  0  0  0  0  0  0  0  0  0
    8.3564  -34.4232  -14.2920 C   0  0  0  0  0  0  0  0  0  0  0  0
    4.0075  -35.0519  -14.8204 O   0  0  0  0  0  0  0  0  0  0  0  0
    7.5321  -35.3975  -14.9275 O   0  0  0  0  0  0  0  0  0  0  0  0
    4.0303  -37.0153  -16.2171 C   0  0  1  0  0  0  0  0  0  0  0  0
    7.5358  -33.6508  -13.2668 C   0  0  1  0  0  0  0  0  0  0  0  0
    3.1738  -37.7317  -17.1107 O   0  0  0  0  0  0  0  0  0  0  0  0
    8.1405  -32.3782  -13.0246 O   0  0  0  0  0  0  0  0  0  0  0  0
    5.0044  -36.2052  -17.0557 C   0  0  1  0  0  0  0  0  0  0  0  0
    6.1203  -33.4053  -13.7646 C   0  0  1  0  0  0  0  0  0  0  0  0
    6.3417  -36.6106  -16.7795 O   0  0  0  0  0  0  0  0  0  0  0  0
    5.1793  -33.9887  -12.8684 O   0  0  0  0  0  0  0  0  0  0  0  0
    4.6634  -36.4915  -18.5063 C   0  0  0  0  0  0  0  0  0  0  0  0
    5.9347  -31.9008  -13.8065 C   0  0  0  0  0  0  0  0  0  0  0  0
    3.4932  -37.4635  -18.4786 C   0  0  2  0  0  0  0  0  0  0  0  0
    7.2501  -31.3019  -13.3293 C   0  0  2  0  0  0  0  0  0  0  0  0
    0.1379  -33.4262  -18.6185 N   0  0  0  0  0  0  0  0  0  0  0  0
    1.1710  -33.6675  -17.7905 C   0  0  0  0  0  0  0  0  0  0  0  0
    1.9554  -34.7580  -17.8720 N   0  0  0  0  0  0  0  0  0  0  0  0
    1.7404  -35.6996  -18.8218 C   0  0  0  0  0  0  0  0  0  0  0  0
    0.6287  -35.5073  -19.7662 C   0  0  0  0  0  0  0  0  0  0  0  0
   -0.1906  -34.2818  -19.6123 C   0  0  0  0  0  0  0  0  0  0  0  0
   -1.2326  -34.0273  -20.4400 N   0  0  0  0  0  0  0  0  0  0  0  0
    0.6375  -36.5711  -20.5913 N   0  0  0  0  0  0  0  0  0  0  0  0
    1.6635  -37.3743  -20.2099 C   0  0  0  0  0  0  0  0  0  0  0  0
    2.3211  -36.8549  -19.1554 N   0  0  0  0  0  0  0  0  0  0  0  0
    9.9120  -26.9264  -14.4875 N   0  0  0  0  0  0  0  0  0  0  0  0
    9.5259  -27.4170  -13.2952 C   0  0  0  0  0  0  0  0  0  0  0  0
    8.8403  -28.5647  -13.1457 N   0  0  0  0  0  0  0  0  0  0  0  0
    8.4920  -29.3105  -14.2221 C   0  0  0  0  0  0  0  0  0  0  0  0
    8.8787  -28.8403  -15.5612 C   0  0  0  0  0  0  0  0  0  0  0  0
    9.6326  -27.5670  -15.6430 C   0  0  0  0  0  0  0  0  0  0  0  0
   10.0278  -27.0629  -16.8379 N   0  0  0  0  0  0  0  0  0  0  0  0
    8.4167  -29.7530  -16.4367 N   0  0  0  0  0  0  0  0  0  0  0  0
    7.7893  -30.7217  -15.7212 C   0  0  0  0  0  0  0  0  0  0  0  0
    7.8339  -30.4581  -14.4023 N   0  0  0  0  0  0  0  0  0  0  0  0
  1  3  1  1  0  0  0
  1  5  2  0  0  0  0
  1  9  1  0  0  0  0
  1 18  1  0  0  0  0
  2  4  1  6  0  0  0
  2  6  2  0  0  0  0
  2 10  1  0  0  0  0
  2 17  1  0  0  0  0
  7  9  1  0  0  0  0
  8 10  1  0  0  0  0
 11  7  1  6  0  0  0
 11 13  1  0  0  0  0
 11 15  1  0  0  0  0
 12  8  1  6  0  0  0
 12 14  1  0  0  0  0
 12 16  1  0  0  0  0
 13 21  1  0  0  0  0
 14 22  1  0  0  0  0
 15 17  1  1  0  0  0
 15 19  1  0  0  0  0
 16 18  1  1  0  0  0
 16 20  1  0  0  0  0
 19 21  1  0  0  0  0
 20 22  1  0  0  0  0
 21 32  1  1  0  0  0
 22 42  1  6  0  0  0
 23 24  2  0  0  0  0
 23 28  1  0  0  0  0
 24 25  1  0  0  0  0
 25 26  2  0  0  0  0
 26 27  1  0  0  0  0
 26 32  1  0  0  0  0
 27 28  2  0  0  0  0
 27 30  1  0  0  0  0
 28 29  1  0  0  0  0
 30 31  2  0  0  0  0
 31 32  1  0  0  0  0
 33 34  2  0  0  0  0
 33 38  1  0  0  0  0
 34 35  1  0  0  0  0
 35 36  2  0  0  0  0
 36 37  1  0  0  0  0
 36 42  1  0  0  0  0
 37 38  2  0  0  0  0
 37 40  1  0  0  0  0
 38 39  1  0  0  0  0
 40 41  2  0  0  0  0
 41 42  1  0  0  0  0
M  CHG  2   3  -1   4  -1
M  END
>  <CHROM.1>
60.98755331,-98.60824041,5.30603998,-33.65754093,-15.97757379,-2.66201145
-0.70269093,-0.33400680

>  <Name>
ligand

>  <RI>
0

>  <Rbt.Current_Directory>
/home/itssahil/PROJECTS/Mol_Feturizer/New_Systems/rnas/4QLN

>  <Rbt.Executable>
rbdock ($Id: //depot/dev/client3/rdock/2013.1/src/exe/rbdock.cxx#4 $)

>  <Rbt.Library>
libRbt.so (2013.1, Build901 2013/11/27)

>  <Rbt.Parameter_File>
/export/apps/rDock/src/rDock_2013.1_src/data/scripts/dock_solv.prm

>  <Rbt.Receptor>
prm/pocket_docking_5.prm

>  <SCORE>
-35.8395

>  <SCORE.INTER>
-36.1732

>  <SCORE.INTER.CONST>
1

>  <SCORE.INTER.POLAR>
0

>  <SCORE.INTER.ROT>
2

>  <SCORE.INTER.SOLV>
33.2337

>  <SCORE.INTER.VDW>
-40.1267

>  <SCORE.INTER.norm>
-0.861267

>  <SCORE.INTRA>
0.333713

>  <SCORE.INTRA.DIHEDRAL>
-0.000514249

>  <SCORE.INTRA.DIHEDRAL.0>
2.39985

>  <SCORE.INTRA.POLAR>
0

>  <SCORE.INTRA.POLAR.0>
0

>  <SCORE.INTRA.REPUL>
0

>  <SCORE.INTRA.REPUL.0>
0

>  <SCORE.INTRA.SOLV>
-0.00765241

>  <SCORE.INTRA.SOLV.lig_0>
-110.958

>  <SCORE.INTRA.VDW>
0.337796

>  <SCORE.INTRA.VDW.0>
-2.34644

>  <SCORE.INTRA.norm>
0.00794555

>  <SCORE.RESTR>
0

>  <SCORE.RESTR.CAVITY>
0

>  <SCORE.RESTR.norm>
0

>  <SCORE.SYSTEM>
0

>  <SCORE.SYSTEM.CONST>
0

>  <SCORE.SYSTEM.DIHEDRAL>
0

>  <SCORE.SYSTEM.SOLV>
0

>  <SCORE.SYSTEM.norm>
0

>  <SCORE.heavy>
42

>  <SCORE.norm>
-0.853322

>  <RMSD>
0.850

$$$$
ligand
 OpenBabel11021811513D
libRbt.so/2013.1/901 2013/11/27
 42 48  0  0  0  0  0  0  0  0999 V2000
    3.7470  -34.3980  -13.3950 P   0  0  2  0  0  0  0  0  0  0  0  0
    7.5147  -35.4814  -16.5802 P   0  0  1  0  0  0  0  0  0  0  0  0
    3.2297  -35.4870  -12.4844 O   0  5  0  0  0  0  0  0  0  0  0  0
    7.0248  -34.1636  -17.1315 O   0  5  0  0  0  0  0  0  0  0  0  0
    2.9398  -33.1378  -13.5958 O   0  0  0  0  0  0  0  0  0  0  0  0
    8.8279  -36.0557  -17.0547 O   0  0  0  0  0  0  0  0  0  0  0  0
    3.2278  -36.1116  -15.3318 C   0  0  0  0  0  0  0  0  0  0  0  0
    8.3871  -34.3913  -14.3433 C   0  0  0  0  0  0  0  0  0  0  0  0
    4.0382  -35.0457  -14.8396 O   0  0  0  0  0  0  0  0  0  0  0  0
    7.5640  -35.3692  -14.9748 O   0  0  0  0  0  0  0  0  0  0  0  0
    4.0624  -37.0056  -16.2411 C   0  0  1  0  0  0  0  0  0  0  0  0
    7.5697  -33.6264  -13.3099 C   0  0  1  0  0  0  0  0  0  0  0  0
    3.2034  -37.7253  -17.1298 O   0  0  0  0  0  0  0  0  0  0  0  0
    8.1684  -32.3507  -13.0694 O   0  0  0  0  0  0  0  0  0  0  0  0
    5.0249  -36.1875  -17.0853 C   0  0  1  0  0  0  0  0  0  0  0  0
    6.1489  -33.3885  -13.7962 C   0  0  1  0  0  0  0  0  0  0  0  0
    6.3667  -36.5852  -16.8204 O   0  0  0  0  0  0  0  0  0  0  0  0
    5.2185  -33.9800  -12.8941 O   0  0  0  0  0  0  0  0  0  0  0  0
    4.6745  -36.4726  -18.5339 C   0  0  0  0  0  0  0  0  0  0  0  0
    5.9536  -31.8851  -13.8330 C   0  0  0  0  0  0  0  0  0  0  0  0
    3.5106  -37.4518  -18.4995 C   0  0  2  0  0  0  0  0  0  0  0  0
    7.2689  -31.2792  -13.3645 C   0  0  2  0  0  0  0  0  0  0  0  0
    0.1363  -33.4294  -18.6110 N   0  0  0  0  0  0  0  0  0  0  0  0
    1.1783  -33.6655  -17.7926 C   0  0  0  0  0  0  0  0  0  0  0  0
    1.9666  -34.7526  -17.8806 N   0  0  0  0  0  0  0  0  0  0  0  0
    1.7469  -35.6959  -18.8276 C   0  0  0  0  0  0  0  0  0  0  0  0
    0.6255  -35.5093  -19.7617 C   0  0  0  0  0  0  0  0  0  0  0  0
   -0.1977  -34.2872  -19.6010 C   0  0  0  0  0  0  0  0  0  0  0  0
   -1.2486  -34.0380  -20.4191 N   0  0  0  0  0  0  0  0  0  0  0  0
    0.6312  -36.5737  -20.5859 N   0  0  0  0  0  0  0  0  0  0  0  0
    1.6642  -37.3720  -20.2136 C   0  0  0  0  0  0  0  0  0  0  0  0
    2.3295  -36.8489  -19.1657 N   0  0  0  0  0  0  0  0  0  0  0  0
    9.9294  -26.9048  -14.5304 N   0  0  0  0  0  0  0  0  0  0  0  0
    9.5599  -27.4032  -13.3360 C   0  0  0  0  0  0  0  0  0  0  0  0
    8.8724  -28.5495  -13.1847 N   0  0  0  0  0  0  0  0  0  0  0  0
    8.5044  -29.2855  -14.2612 C   0  0  0  0  0  0  0  0  0  0  0  0
    8.8720  -28.8064  -15.6026 C   0  0  0  0  0  0  0  0  0  0  0  0
    9.6294  -27.5353  -15.6863 C   0  0  0  0  0  0  0  0  0  0  0  0
   10.0078  -27.0234  -16.8833 N   0  0  0  0  0  0  0  0  0  0  0  0
    8.3929  -29.7105  -16.4777 N   0  0  0  0  0  0  0  0  0  0  0  0
    7.7729  -30.6824  -15.7600 C   0  0  0  0  0  0  0  0  0  0  0  0
    7.8392  -30.4293  -14.4400 N   0  0  0  0  0  0  0  0  0  0  0  0
  1  3  1  1  0  0  0
  1  5  2  0  0  0  0
  1  9  1  0  0  0  0
  1 18  1  0  0  0  0
  2  4  1  6  0  0  0
  2  6  2  0  0  0  0
  2 10  1  0  0  0  0
  2 17  1  0  0  0  0
  7  9  1  0  0  0  0
  8 10  1  0  0  0  0
 11  7  1  1  0  0  0
 11 13  1  0  0  0  0
 11 15  1  0  0  0  0
 12  8  1  6  0  0  0
 12 14  1  0  0  0  0
 12 16  1  0  0  0  0
 13 21  1  0  0  0  0
 14 22  1  0  0  0  0
 15 17  1  6  0  0  0
 15 19  1  0  0  0  0
 16 18  1  1  0  0  0
 16 20  1  0  0  0  0
 19 21  1  0  0  0  0
 20 22  1  0  0  0  0
 21 32  1  1  0  0  0
 22 42  1  6  0  0  0
 23 24  2  0  0  0  0
 23 28  1  0  0  0  0
 24 25  1  0  0  0  0
 25 26  2  0  0  0  0
 26 27  1  0  0  0  0
 26 32  1  0  0  0  0
 27 28  2  0  0  0  0
 27 30  1  0  0  0  0
 28 29  1  0  0  0  0
 30 31  2  0  0  0  0
 31 32  1  0  0  0  0
 33 34  2  0  0  0  0
 33 38  1  0  0  0  0
 34 35  1  0  0  0  0
 35 36  2  0  0  0  0
 36 37  1  0  0  0  0
 36 42  1  0  0  0  0
 37 38  2  0  0  0  0
 37 40  1  0  0  0  0
 38 39  1  0  0  0  0
 40 41  2  0  0  0  0
 41 42  1  0  0  0  0
M  CHG  2   3  -1   4  -1
M  END
>  <CHROM.1>
61.21796845,-97.81563231,5.32249564,-33.64180835,-16.00378064,-2.65644272
-0.69896507,-0.33093102

>  <Name>
ligand

>  <RI>
0

>  <Rbt.Current_Directory>
/home/itssahil/PROJECTS/Mol_Feturizer/New_Systems/rnas/4QLN

>  <Rbt.Executable>
rbdock ($Id: //depot/dev/client3/rdock/2013.1/src/exe/rbdock.cxx#4 $)

>  <Rbt.Library>
libRbt.so (2013.1, Build901 2013/11/27)

>  <Rbt.Parameter_File>
/export/apps/rDock/src/rDock_2013.1_src/data/scripts/dock_solv.prm

>  <Rbt.Receptor>
prm/pocket_docking_2.prm

>  <SCORE>
-35.876

>  <SCORE.INTER>
-36.2308

>  <SCORE.INTER.CONST>
1

>  <SCORE.INTER.POLAR>
0

>  <SCORE.INTER.ROT>
2

>  <SCORE.INTER.SOLV>
33.3245

>  <SCORE.INTER.VDW>
-40.1954

>  <SCORE.INTER.norm>
-0.862638

>  <SCORE.INTRA>
0.354812

>  <SCORE.INTRA.DIHEDRAL>
-0.000524133

>  <SCORE.INTRA.DIHEDRAL.0>
2.39985

>  <SCORE.INTRA.POLAR>
0

>  <SCORE.INTRA.POLAR.0>
0

>  <SCORE.INTRA.REPUL>
0

>  <SCORE.INTRA.REPUL.0>
0

>  <SCORE.INTRA.SOLV>
-0.00847874

>  <SCORE.INTRA.SOLV.lig_0>
-110.958

>  <SCORE.INTRA.VDW>
0.359314

>  <SCORE.INTRA.VDW.0>
-2.34644

>  <SCORE.INTRA.norm>
0.00844792

>  <SCORE.RESTR>
0

>  <SCORE.RESTR.CAVITY>
0

>  <SCORE.RESTR.norm>
0

>  <SCORE.SYSTEM>
0

>  <SCORE.SYSTEM.CONST>
0

>  <SCORE.SYSTEM.DIHEDRAL>
0

>  <SCORE.SYSTEM.SOLV>
0

>  <SCORE.SYSTEM.norm>
0

>  <SCORE.heavy>
42

>  <SCORE.norm>
-0.85419

>  <RMSD>
0.851

$$$$
ligand
 OpenBabel11021811513D
libRbt.so/2013.1/901 2013/11/27
 42 48  0  0  0  0  0  0  0  0999 V2000
    3.7359  -34.3943  -13.3882 P   0  0  2  0  0  0  0  0  0  0  0  0
    7.5126  -35.4772  -16.5627 P   0  0  1  0  0  0  0  0  0  0  0  0
    3.2173  -35.4829  -12.4778 O   0  5  0  0  0  0  0  0  0  0  0  0
    7.0228  -34.1604  -17.1166 O   0  5  0  0  0  0  0  0  0  0  0  0
    2.9279  -33.1351  -13.5923 O   0  0  0  0  0  0  0  0  0  0  0  0
    8.8276  -36.0507  -17.0333 O   0  0  0  0  0  0  0  0  0  0  0  0
    3.2233  -36.1103  -15.3245 C   0  0  0  0  0  0  0  0  0  0  0  0
    8.3783  -34.3839  -14.3247 C   0  0  0  0  0  0  0  0  0  0  0  0
    4.0313  -35.0432  -14.8313 O   0  0  0  0  0  0  0  0  0  0  0  0
    7.5578  -35.3633  -14.9573 O   0  0  0  0  0  0  0  0  0  0  0  0
    4.0610  -37.0045  -16.2308 C   0  0  1  0  0  0  0  0  0  0  0  0
    7.5575  -33.6188  -13.2942 C   0  0  1  0  0  0  0  0  0  0  0  0
    3.2050  -37.7259  -17.1209 O   0  0  0  0  0  0  0  0  0  0  0  0
    8.1543  -32.3422  -13.0534 O   0  0  0  0  0  0  0  0  0  0  0  0
    5.0248  -36.1862  -17.0734 C   0  0  1  0  0  0  0  0  0  0  0  0
    6.1377  -33.3828  -13.7843 C   0  0  1  0  0  0  0  0  0  0  0  0
    6.3664  -36.5824  -16.8047 O   0  0  0  0  0  0  0  0  0  0  0  0
    5.2057  -33.9743  -12.8840 O   0  0  0  0  0  0  0  0  0  0  0  0
    4.6783  -36.4731  -18.5226 C   0  0  0  0  0  0  0  0  0  0  0  0
    5.9410  -31.8797  -13.8231 C   0  0  0  0  0  0  0  0  0  0  0  0
    3.5153  -37.4535  -18.4902 C   0  0  2  0  0  0  0  0  0  0  0  0
    7.2546  -31.2720  -13.3519 C   0  0  2  0  0  0  0  0  0  0  0  0
    0.1422  -33.4307  -18.6192 N   0  0  0  0  0  0  0  0  0  0  0  0
    1.1829  -33.6644  -17.7986 C   0  0  0  0  0  0  0  0  0  0  0  0
    1.9711  -34.7520  -17.8820 N   0  0  0  0  0  0  0  0  0  0  0  0
    1.7525  -35.6983  -18.8263 C   0  0  0  0  0  0  0  0  0  0  0  0
    0.6325  -35.5143  -19.7626 C   0  0  0  0  0  0  0  0  0  0  0  0
   -0.1907  -34.2916  -19.6070 C   0  0  0  0  0  0  0  0  0  0  0  0
   -1.2403  -34.0447  -20.4273 N   0  0  0  0  0  0  0  0  0  0  0  0
    0.6392  -36.5813  -20.5835 N   0  0  0  0  0  0  0  0  0  0  0  0
    1.6715  -37.3787  -20.2071 C   0  0  0  0  0  0  0  0  0  0  0  0
    2.3354  -36.8524  -19.1599 N   0  0  0  0  0  0  0  0  0  0  0  0
    9.9592  -26.9234  -14.5128 N   0  0  0  0  0  0  0  0  0  0  0  0
    9.5932  -27.4246  -13.3185 C   0  0  0  0  0  0  0  0  0  0  0  0
    8.8928  -28.5632  -13.1686 N   0  0  0  0  0  0  0  0  0  0  0  0
    8.5073  -29.2881  -14.2465 C   0  0  0  0  0  0  0  0  0  0  0  0
    8.8701  -28.8053  -15.5879 C   0  0  0  0  0  0  0  0  0  0  0  0
    9.6424  -27.5432  -15.6700 C   0  0  0  0  0  0  0  0  0  0  0  0
   10.0176  -27.0287  -16.8669 N   0  0  0  0  0  0  0  0  0  0  0  0
    8.3730  -29.6982  -16.4646 N   0  0  0  0  0  0  0  0  0  0  0  0
    7.7469  -30.6668  -15.7478 C   0  0  0  0  0  0  0  0  0  0  0  0
    7.8267  -30.4226  -14.4268 N   0  0  0  0  0  0  0  0  0  0  0  0
  1  3  1  1  0  0  0
  1  5  2  0  0  0  0
  1  9  1  0  0  0  0
  1 18  1  0  0  0  0
  2  4  1  6  0  0  0
  2  6  2  0  0  0  0
  2 10  1  0  0  0  0
  2 17  1  0  0  0  0
  7  9  1  0  0  0  0
  8 10  1  0  0  0  0
 11  7  1  1  0  0  0
 11 13  1  0  0  0  0
 11 15  1  0  0  0  0
 12  8  1  6  0  0  0
 12 14  1  0  0  0  0
 12 16  1  0  0  0  0
 13 21  1  0  0  0  0
 14 22  1  0  0  0  0
 15 17  1  6  0  0  0
 15 19  1  0  0  0  0
 16 18  1  1  0  0  0
 16 20  1  0  0  0  0
 19 21  1  0  0  0  0
 20 22  1  0  0  0  0
 21 32  1  1  0  0  0
 22 42  1  6  0  0  0
 23 24  2  0  0  0  0
 23 28  1  0  0  0  0
 24 25  1  0  0  0  0
 25 26  2  0  0  0  0
 26 27  1  0  0  0  0
 26 32  1  0  0  0  0
 27 28  2  0  0  0  0
 27 30  1  0  0  0  0
 28 29  1  0  0  0  0
 30 31  2  0  0  0  0
 31 32  1  0  0  0  0
 33 34  2  0  0  0  0
 33 38  1  0  0  0  0
 34 35  1  0  0  0  0
 35 36  2  0  0  0  0
 36 37  1  0  0  0  0
 36 42  1  0  0  0  0
 37 38  2  0  0  0  0
 37 40  1  0  0  0  0
 38 39  1  0  0  0  0
 40 41  2  0  0  0  0
 41 42  1  0  0  0  0
M  CHG  2   3  -1   4  -1
M  END
>  <CHROM.1>
61.37350298,-96.76720080,5.32130539,-33.64109219,-15.99389404,-2.66296743
-0.70325033,-0.33958410

>  <Name>
ligand

>  <RI>
0

>  <Rbt.Current_Directory>
/home/itssahil/PROJECTS/Mol_Feturizer/New_Systems/rnas/4QLN

>  <Rbt.Executable>
rbdock ($Id: //depot/dev/client3/rdock/2013.1/src/exe/rbdock.cxx#4 $)

>  <Rbt.Library>
libRbt.so (2013.1, Build901 2013/11/27)

>  <Rbt.Parameter_File>
/export/apps/rDock/src/rDock_2013.1_src/data/scripts/dock_solv.prm

>  <Rbt.Receptor>
prm/pocket_docking_3.prm

>  <SCORE>
-35.8613

>  <SCORE.INTER>
-36.2427

>  <SCORE.INTER.CONST>
1

>  <SCORE.INTER.POLAR>
0

>  <SCORE.INTER.ROT>
2

>  <SCORE.INTER.SOLV>
33.3129

>  <SCORE.INTER.VDW>
-40.1994

>  <SCORE.INTER.norm>
-0.862921

>  <SCORE.INTRA>
0.381348

>  <SCORE.INTRA.DIHEDRAL>
-0.00053742

>  <SCORE.INTRA.DIHEDRAL.0>
2.39985

>  <SCORE.INTRA.POLAR>
0

>  <SCORE.INTRA.POLAR.0>
0

>  <SCORE.INTRA.REPUL>
0

>  <SCORE.INTRA.REPUL.0>
0

>  <SCORE.INTRA.SOLV>
-0.00953405

>  <SCORE.INTRA.SOLV.lig_0>
-110.958

>  <SCORE.INTRA.VDW>
0.386384

>  <SCORE.INTRA.VDW.0>
-2.34644

>  <SCORE.INTRA.norm>
0.00907972

>  <SCORE.RESTR>
0

>  <SCORE.RESTR.CAVITY>
0

>  <SCORE.RESTR.norm>
0

>  <SCORE.SYSTEM>
0

>  <SCORE.SYSTEM.CONST>
0

>  <SCORE.SYSTEM.DIHEDRAL>
0

>  <SCORE.SYSTEM.SOLV>
0

>  <SCORE.SYSTEM.norm>
0

>  <SCORE.heavy>
42

>  <SCORE.norm>
-0.853841

>  <RMSD>
0.851

$$$$
ligand
 OpenBabel11021811513D
libRbt.so/2013.1/901 2013/11/27
 42 48  0  0  0  0  0  0  0  0999 V2000
    3.7267  -34.3862  -13.3908 P   0  0  2  0  0  0  0  0  0  0  0  0
    7.5122  -35.4854  -16.5494 P   0  0  1  0  0  0  0  0  0  0  0  0
    3.2041  -35.4709  -12.4779 O   0  5  0  0  0  0  0  0  0  0  0  0
    7.0257  -34.1702  -17.1096 O   0  5  0  0  0  0  0  0  0  0  0  0
    2.9209  -33.1269  -13.6021 O   0  0  0  0  0  0  0  0  0  0  0  0
    8.8279  -36.0622  -17.0137 O   0  0  0  0  0  0  0  0  0  0  0  0
    3.2182  -36.1089  -15.3223 C   0  0  0  0  0  0  0  0  0  0  0  0
    8.3721  -34.3848  -14.3127 C   0  0  0  0  0  0  0  0  0  0  0  0
    4.0260  -35.0409  -14.8305 O   0  0  0  0  0  0  0  0  0  0  0  0
    7.5524  -35.3656  -14.9442 O   0  0  0  0  0  0  0  0  0  0  0  0
    4.0577  -37.0074  -16.2226 C   0  0  1  0  0  0  0  0  0  0  0  0
    7.5490  -33.6149  -13.2877 C   0  0  1  0  0  0  0  0  0  0  0  0
    3.2037  -37.7312  -17.1127 O   0  0  0  0  0  0  0  0  0  0  0  0
    8.1465  -32.3381  -13.0498 O   0  0  0  0  0  0  0  0  0  0  0  0
    5.0252  -36.1935  -17.0652 C   0  0  1  0  0  0  0  0  0  0  0  0
    6.1310  -33.3791  -13.7831 C   0  0  1  0  0  0  0  0  0  0  0  0
    6.3654  -36.5902  -16.7908 O   0  0  0  0  0  0  0  0  0  0  0  0
    5.1954  -33.9661  -12.8835 O   0  0  0  0  0  0  0  0  0  0  0  0
    4.6829  -36.4853  -18.5144 C   0  0  0  0  0  0  0  0  0  0  0  0
    5.9362  -31.8758  -13.8281 C   0  0  0  0  0  0  0  0  0  0  0  0
    3.5186  -37.4642  -18.4820 C   0  0  2  0  0  0  0  0  0  0  0  0
    7.2490  -31.2679  -13.3551 C   0  0  2  0  0  0  0  0  0  0  0  0
    0.1605  -33.4301  -18.6469 N   0  0  0  0  0  0  0  0  0  0  0  0
    1.1996  -33.6610  -17.8234 C   0  0  0  0  0  0  0  0  0  0  0  0
    1.9839  -34.7522  -17.8973 N   0  0  0  0  0  0  0  0  0  0  0  0
    1.7626  -35.7053  -18.8340 C   0  0  0  0  0  0  0  0  0  0  0  0
    0.6441  -35.5249  -19.7728 C   0  0  0  0  0  0  0  0  0  0  0  0
   -0.1747  -34.2978  -19.6278 C   0  0  0  0  0  0  0  0  0  0  0  0
   -1.2226  -34.0538  -20.4512 N   0  0  0  0  0  0  0  0  0  0  0  0
    0.6475  -36.5985  -20.5849 N   0  0  0  0  0  0  0  0  0  0  0  0
    1.6765  -37.3967  -20.2011 C   0  0  0  0  0  0  0  0  0  0  0  0
    2.3415  -36.8643  -19.1577 N   0  0  0  0  0  0  0  0  0  0  0  0
    9.9339  -26.9097  -14.5254 N   0  0  0  0  0  0  0  0  0  0  0  0
    9.5599  -27.4037  -13.3306 C   0  0  0  0  0  0  0  0  0  0  0  0
    8.8661  -28.5461  -13.1781 N   0  0  0  0  0  0  0  0  0  0  0  0
    8.4962  -29.2825  -14.2537 C   0  0  0  0  0  0  0  0  0  0  0  0
    8.8686  -28.8080  -15.5955 C   0  0  0  0  0  0  0  0  0  0  0  0
    9.6327  -27.5411  -15.6805 C   0  0  0  0  0  0  0  0  0  0  0  0
   10.0159  -27.0336  -16.8779 N   0  0  0  0  0  0  0  0  0  0  0  0
    8.3864  -29.7116  -16.4696 N   0  0  0  0  0  0  0  0  0  0  0  0
    7.7603  -30.6787  -15.7509 C   0  0  0  0  0  0  0  0  0  0  0  0
    7.8255  -30.4232  -14.4313 N   0  0  0  0  0  0  0  0  0  0  0  0
  1  3  1  1  0  0  0
  1  5  2  0  0  0  0
  1  9  1  0  0  0  0
  1 18  1  0  0  0  0
  2  4  1  6  0  0  0
  2  6  2  0  0  0  0
  2 10  1  0  0  0  0
  2 17  1  0  0  0  0
  7  9  1  0  0  0  0
  8 10  1  0  0  0  0
 11  7  1  6  0  0  0
 11 13  1  0  0  0  0
 11 15  1  0  0  0  0
 12  8  1  6  0  0  0
 12 14  1  0  0  0  0
 12 16  1  0  0  0  0
 13 21  1  0  0  0  0
 14 22  1  0  0  0  0
 15 17  1  1  0  0  0
 15 19  1  0  0  0  0
 16 18  1  1  0  0  0
 16 20  1  0  0  0  0
 19 21  1  0  0  0  0
 20 22  1  0  0  0  0
 21 32  1  1  0  0  0
 22 42  1  6  0  0  0
 23 24  2  0  0  0  0
 23 28  1  0  0  0  0
 24 25  1  0  0  0  0
 25 26  2  0  0  0  0
 26 27  1  0  0  0  0
 26 32  1  0  0  0  0
 27 28  2  0  0  0  0
 27 30  1  0  0  0  0
 28 29  1  0  0  0  0
 30 31  2  0  0  0  0
 31 32  1  0  0  0  0
 33 34  2  0  0  0  0
 33 38  1  0  0  0  0
 34 35  1  0  0  0  0
 35 36  2  0  0  0  0
 36 37  1  0  0  0  0
 36 42  1  0  0  0  0
 37 38  2  0  0  0  0
 37 40  1  0  0  0  0
 38 39  1  0  0  0  0
 40 41  2  0  0  0  0
 41 42  1  0  0  0  0
M  CHG  2   3  -1   4  -1
M  END
>  <CHROM.1>
61.69333198,-97.42291319,5.31970810,-33.64258632,-15.99524193,-2.66313173
-0.70622589,-0.34250439

>  <Name>
ligand

>  <RI>
0

>  <Rbt.Current_Directory>
/home/itssahil/PROJECTS/Mol_Feturizer/New_Systems/rnas/4QLN

>  <Rbt.Executable>
rbdock ($Id: //depot/dev/client3/rdock/2013.1/src/exe/rbdock.cxx#4 $)

>  <Rbt.Library>
libRbt.so (2013.1, Build901 2013/11/27)

>  <Rbt.Parameter_File>
/export/apps/rDock/src/rDock_2013.1_src/data/scripts/dock_solv.prm

>  <Rbt.Receptor>
prm/pocket_docking_2.prm

>  <SCORE>
-35.8765

>  <SCORE.INTER>
-36.2463

>  <SCORE.INTER.CONST>
1

>  <SCORE.INTER.POLAR>
0

>  <SCORE.INTER.ROT>
2

>  <SCORE.INTER.SOLV>
33.3186

>  <SCORE.INTER.VDW>
-40.2037

>  <SCORE.INTER.norm>
-0.863006

>  <SCORE.INTRA>
0.369753

>  <SCORE.INTRA.DIHEDRAL>
-0.00052366

>  <SCORE.INTRA.DIHEDRAL.0>
2.39985

>  <SCORE.INTRA.POLAR>
0

>  <SCORE.INTRA.POLAR.0>
0

>  <SCORE.INTRA.REPUL>
0

>  <SCORE.INTRA.REPUL.0>
0

>  <SCORE.INTRA.SOLV>
-0.00925131

>  <SCORE.INTRA.SOLV.lig_0>
-110.958

>  <SCORE.INTRA.VDW>
0.37464

>  <SCORE.INTRA.VDW.0>
-2.34644

>  <SCORE.INTRA.norm>
0.00880364

>  <SCORE.RESTR>
0

>  <SCORE.RESTR.CAVITY>
0

>  <SCORE.RESTR.norm>
0

>  <SCORE.SYSTEM>
0

>  <SCORE.SYSTEM.CONST>
0

>  <SCORE.SYSTEM.DIHEDRAL>
0

>  <SCORE.SYSTEM.SOLV>
0

>  <SCORE.SYSTEM.norm>
0

>  <SCORE.heavy>
42

>  <SCORE.norm>
-0.854203

>  <RMSD>
0.852

$$$$
ligand
 OpenBabel11021811513D
libRbt.so/2013.1/901 2013/11/27
 42 48  0  0  0  0  0  0  0  0999 V2000
    3.7319  -34.3921  -13.3939 P   0  0  2  0  0  0  0  0  0  0  0  0
    7.5169  -35.4843  -16.5555 P   0  0  1  0  0  0  0  0  0  0  0  0
    3.2113  -35.4780  -12.4813 O   0  5  0  0  0  0  0  0  0  0  0  0
    7.0282  -34.1694  -17.1147 O   0  5  0  0  0  0  0  0  0  0  0  0
    2.9242  -33.1338  -13.6040 O   0  0  0  0  0  0  0  0  0  0  0  0
    8.8331  -36.0590  -17.0210 O   0  0  0  0  0  0  0  0  0  0  0  0
    3.2245  -36.1144  -15.3261 C   0  0  0  0  0  0  0  0  0  0  0  0
    8.3767  -34.3837  -14.3188 C   0  0  0  0  0  0  0  0  0  0  0  0
    4.0311  -35.0456  -14.8342 O   0  0  0  0  0  0  0  0  0  0  0  0
    7.5579  -35.3653  -14.9503 O   0  0  0  0  0  0  0  0  0  0  0  0
    4.0647  -37.0113  -16.2274 C   0  0  1  0  0  0  0  0  0  0  0  0
    7.5531  -33.6155  -13.2928 C   0  0  1  0  0  0  0  0  0  0  0  0
    3.2111  -37.7357  -17.1174 O   0  0  0  0  0  0  0  0  0  0  0  0
    8.1491  -32.3381  -13.0546 O   0  0  0  0  0  0  0  0  0  0  0  0
    5.0305  -36.1955  -17.0701 C   0  0  1  0  0  0  0  0  0  0  0  0
    6.1345  -33.3814  -13.7872 C   0  0  1  0  0  0  0  0  0  0  0  0
    6.3715  -36.5905  -16.7968 O   0  0  0  0  0  0  0  0  0  0  0  0
    5.2003  -33.9702  -12.8873 O   0  0  0  0  0  0  0  0  0  0  0  0
    4.6877  -36.4871  -18.5193 C   0  0  0  0  0  0  0  0  0  0  0  0
    5.9376  -31.8784  -13.8313 C   0  0  0  0  0  0  0  0  0  0  0  0
    3.5248  -37.4676  -18.4867 C   0  0  2  0  0  0  0  0  0  0  0  0
    7.2499  -31.2690  -13.3587 C   0  0  2  0  0  0  0  0  0  0  0  0
    0.1648  -33.4351  -18.6512 N   0  0  0  0  0  0  0  0  0  0  0  0
    1.2053  -33.6646  -17.8290 C   0  0  0  0  0  0  0  0  0  0  0  0
    1.9899  -34.7555  -17.9028 N   0  0  0  0  0  0  0  0  0  0  0  0
    1.7676  -35.7098  -18.8381 C   0  0  0  0  0  0  0  0  0  0  0  0
    0.6476  -35.5309  -19.7754 C   0  0  0  0  0  0  0  0  0  0  0  0
   -0.1715  -34.3040  -19.6306 C   0  0  0  0  0  0  0  0  0  0  0  0
   -1.2208  -34.0614  -20.4527 N   0  0  0  0  0  0  0  0  0  0  0  0
    0.6502  -36.6055  -20.5863 N   0  0  0  0  0  0  0  0  0  0  0  0
    1.6801  -37.4028  -20.2031 C   0  0  0  0  0  0  0  0  0  0  0  0
    2.3464  -36.8689  -19.1613 N   0  0  0  0  0  0  0  0  0  0  0  0
    9.9254  -26.9048  -14.5285 N   0  0  0  0  0  0  0  0  0  0  0  0
    9.5524  -27.3998  -13.3337 C   0  0  0  0  0  0  0  0  0  0  0  0
    8.8611  -28.5437  -13.1814 N   0  0  0  0  0  0  0  0  0  0  0  0
    8.4928  -29.2808  -14.2571 C   0  0  0  0  0  0  0  0  0  0  0  0
    8.8641  -28.8053  -15.5988 C   0  0  0  0  0  0  0  0  0  0  0  0
    9.6255  -27.5367  -15.6837 C   0  0  0  0  0  0  0  0  0  0  0  0
   10.0075  -27.0282  -16.8810 N   0  0  0  0  0  0  0  0  0  0  0  0
    8.3839  -29.7097  -16.4730 N   0  0  0  0  0  0  0  0  0  0  0  0
    7.7598  -30.6783  -15.7545 C   0  0  0  0  0  0  0  0  0  0  0  0
    7.8245  -30.4229  -14.4348 N   0  0  0  0  0  0  0  0  0  0  0  0
  1  3  1  1  0  0  0
  1  5  2  0  0  0  0
  1  9  1  0  0  0  0
  1 18  1  0  0  0  0
  2  4  1  6  0  0  0
  2  6  2  0  0  0  0
  2 10  1  0  0  0  0
  2 17  1  0  0  0  0
  7  9  1  0  0  0  0
  8 10  1  0  0  0  0
 11  7  1  6  0  0  0
 11 13  1  0  0  0  0
 11 15  1  0  0  0  0
 12  8  1  6  0  0  0
 12 14  1  0  0  0  0
 12 16  1  0  0  0  0
 13 21  1  0  0  0  0
 14 22  1  0  0  0  0
 15 17  1  1  0  0  0
 15 19  1  0  0  0  0
 16 18  1  1  0  0  0
 16 20  1  0  0  0  0
 19 21  1  0  0  0  0
 20 22  1  0  0  0  0
 21 32  1  1  0  0  0
 22 42  1  6  0  0  0
 23 24  2  0  0  0  0
 23 28  1  0  0  0  0
 24 25  1  0  0  0  0
 25 26  2  0  0  0  0
 26 27  1  0  0  0  0
 26 32  1  0  0  0  0
 27 28  2  0  0  0  0
 27 30  1  0  0  0  0
 28 29  1  0  0  0  0
 30 31  2  0  0  0  0
 31 32  1  0  0  0  0
 33 34  2  0  0  0  0
 33 38  1  0  0  0  0
 34 35  1  0  0  0  0
 35 36  2  0  0  0  0
 36 37  1  0  0  0  0
 36 42  1  0  0  0  0
 37 38  2  0  0  0  0
 37 40  1  0  0  0  0
 38 39  1  0  0  0  0
 40 41  2  0  0  0  0
 41 42  1  0  0  0  0
M  CHG  2   3  -1   4  -1
M  END
>  <CHROM.1>
61.81611842,-97.48389901,5.32229555,-33.64445983,-15.99930668,-2.66123973
-0.70643882,-0.34091702

>  <Name>
ligand

>  <RI>
0

>  <Rbt.Current_Directory>
/home/itssahil/PROJECTS/Mol_Feturizer/New_Systems/rnas/4QLN

>  <Rbt.Executable>
rbdock ($Id: //depot/dev/client3/rdock/2013.1/src/exe/rbdock.cxx#4 $)

>  <Rbt.Library>
libRbt.so (2013.1, Build901 2013/11/27)

>  <Rbt.Parameter_File>
/export/apps/rDock/src/rDock_2013.1_src/data/scripts/dock_solv.prm

>  <Rbt.Receptor>
prm/pocket_docking_2.prm

>  <SCORE>
-35.8772

>  <SCORE.INTER>
-36.2471

>  <SCORE.INTER.CONST>
1

>  <SCORE.INTER.POLAR>
0

>  <SCORE.INTER.ROT>
2

>  <SCORE.INTER.SOLV>
33.2992

>  <SCORE.INTER.VDW>
-40.1978

>  <SCORE.INTER.norm>
-0.863026

>  <SCORE.INTRA>
0.369879

>  <SCORE.INTRA.DIHEDRAL>
-0.000521069

>  <SCORE.INTRA.DIHEDRAL.0>
2.39985

>  <SCORE.INTRA.POLAR>
0

>  <SCORE.INTRA.POLAR.0>
0

>  <SCORE.INTRA.REPUL>
0

>  <SCORE.INTRA.REPUL.0>
0

>  <SCORE.INTRA.SOLV>
-0.0093145

>  <SCORE.INTRA.SOLV.lig_0>
-110.958

>  <SCORE.INTRA.VDW>
0.374797

>  <SCORE.INTRA.VDW.0>
-2.34644

>  <SCORE.INTRA.norm>
0.00880664

>  <SCORE.RESTR>
0

>  <SCORE.RESTR.CAVITY>
0

>  <SCORE.RESTR.norm>
0

>  <SCORE.SYSTEM>
0

>  <SCORE.SYSTEM.CONST>
0

>  <SCORE.SYSTEM.DIHEDRAL>
0

>  <SCORE.SYSTEM.SOLV>
0

>  <SCORE.SYSTEM.norm>
0

>  <SCORE.heavy>
42

>  <SCORE.norm>
-0.85422

>  <RMSD>
0.852

$$$$
ligand
 OpenBabel11021811513D
libRbt.so/2013.1/901 2013/11/27
 42 48  0  0  0  0  0  0  0  0999 V2000
    3.7266  -34.3971  -13.3901 P   0  0  2  0  0  0  0  0  0  0  0  0
    7.5048  -35.4946  -16.5579 P   0  0  1  0  0  0  0  0  0  0  0  0
    3.2031  -35.4834  -12.4796 O   0  5  0  0  0  0  0  0  0  0  0  0
    7.0201  -34.1768  -17.1135 O   0  5  0  0  0  0  0  0  0  0  0  0
    2.9230  -33.1355  -13.5964 O   0  0  0  0  0  0  0  0  0  0  0  0
    8.8186  -36.0727  -17.0259 O   0  0  0  0  0  0  0  0  0  0  0  0
    3.2115  -36.1130  -15.3259 C   0  0  0  0  0  0  0  0  0  0  0  0
    8.3705  -34.4024  -14.3194 C   0  0  0  0  0  0  0  0  0  0  0  0
    4.0222  -35.0481  -14.8322 O   0  0  0  0  0  0  0  0  0  0  0  0
    7.5478  -35.3796  -14.9524 O   0  0  0  0  0  0  0  0  0  0  0  0
    4.0478  -37.0106  -16.2301 C   0  0  1  0  0  0  0  0  0  0  0  0
    7.5506  -33.6338  -13.2907 C   0  0  1  0  0  0  0  0  0  0  0  0
    3.1909  -37.7300  -17.1210 O   0  0  0  0  0  0  0  0  0  0  0  0
    8.1511  -32.3590  -13.0500 O   0  0  0  0  0  0  0  0  0  0  0  0
    5.0155  -36.1961  -17.0718 C   0  0  1  0  0  0  0  0  0  0  0  0
    6.1323  -33.3937  -13.7832 C   0  0  1  0  0  0  0  0  0  0  0  0
    6.3554  -36.5964  -16.8008 O   0  0  0  0  0  0  0  0  0  0  0  0
    5.1969  -33.9814  -12.8839 O   0  0  0  0  0  0  0  0  0  0  0  0
    4.6704  -36.4830  -18.5213 C   0  0  0  0  0  0  0  0  0  0  0  0
    5.9405  -31.8899  -13.8235 C   0  0  0  0  0  0  0  0  0  0  0  0
    3.5042  -37.4597  -18.4900 C   0  0  2  0  0  0  0  0  0  0  0  0
    7.2553  -31.2861  -13.3508 C   0  0  2  0  0  0  0  0  0  0  0  0
    0.1444  -33.4259  -18.6277 N   0  0  0  0  0  0  0  0  0  0  0  0
    1.1831  -33.6623  -17.8052 C   0  0  0  0  0  0  0  0  0  0  0  0
    1.9679  -34.7526  -17.8865 N   0  0  0  0  0  0  0  0  0  0  0  0
    1.7476  -35.6989  -18.8304 C   0  0  0  0  0  0  0  0  0  0  0  0
    0.6296  -35.5122  -19.7685 C   0  0  0  0  0  0  0  0  0  0  0  0
   -0.1898  -34.2866  -19.6151 C   0  0  0  0  0  0  0  0  0  0  0  0
   -1.2373  -34.0370  -20.4373 N   0  0  0  0  0  0  0  0  0  0  0  0
    0.6341  -36.5799  -20.5884 N   0  0  0  0  0  0  0  0  0  0  0  0
    1.6632  -37.3804  -20.2098 C   0  0  0  0  0  0  0  0  0  0  0  0
    2.3272  -36.8553  -19.1621 N   0  0  0  0  0  0  0  0  0  0  0  0
    9.8656  -26.8821  -14.5186 N   0  0  0  0  0  0  0  0  0  0  0  0
    9.4819  -27.3727  -13.3255 C   0  0  0  0  0  0  0  0  0  0  0  0
    8.8103  -28.5284  -13.1735 N   0  0  0  0  0  0  0  0  0  0  0  0
    8.4748  -29.2828  -14.2478 C   0  0  0  0  0  0  0  0  0  0  0  0
    8.8597  -28.8132  -15.5877 C   0  0  0  0  0  0  0  0  0  0  0  0
    9.5978  -27.5308  -15.6724 C   0  0  0  0  0  0  0  0  0  0  0  0
    9.9904  -27.0267  -16.8681 N   0  0  0  0  0  0  0  0  0  0  0  0
    8.4121  -29.7352  -16.4608 N   0  0  0  0  0  0  0  0  0  0  0  0
    7.7946  -30.7088  -15.7434 C   0  0  0  0  0  0  0  0  0  0  0  0
    7.8318  -30.4394  -14.4254 N   0  0  0  0  0  0  0  0  0  0  0  0
  1  3  1  1  0  0  0
  1  5  2  0  0  0  0
  1  9  1  0  0  0  0
  1 18  1  0  0  0  0
  2  4  1  6  0  0  0
  2  6  2  0  0  0  0
  2 10  1  0  0  0  0
  2 17  1  0  0  0  0
  7  9  1  0  0  0  0
  8 10  1  0  0  0  0
 11  7  1  1  0  0  0
 11 13  1  0  0  0  0
 11 15  1  0  0  0  0
 12  8  1  6  0  0  0
 12 14  1  0  0  0  0
 12 16  1  0  0  0  0
 13 21  1  0  0  0  0
 14 22  1  0  0  0  0
 15 17  1  6  0  0  0
 15 19  1  0  0  0  0
 16 18  1  1  0  0  0
 16 20  1  0  0  0  0
 19 21  1  0  0  0  0
 20 22  1  0  0  0  0
 21 32  1  1  0  0  0
 22 42  1  6  0  0  0
 23 24  2  0  0  0  0
 23 28  1  0  0  0  0
 24 25  1  0  0  0  0
 25 26  2  0  0  0  0
 26 27  1  0  0  0  0
 26 32  1  0  0  0  0
 27 28  2  0  0  0  0
 27 30  1  0  0  0  0
 28 29  1  0  0  0  0
 30 31  2  0  0  0  0
 31 32  1  0  0  0  0
 33 34  2  0  0  0  0
 33 38  1  0  0  0  0
 34 35  1  0  0  0  0
 35 36  2  0  0  0  0
 36 37  1  0  0  0  0
 36 42  1  0  0  0  0
 37 38  2  0  0  0  0
 37 40  1  0  0  0  0
 38 39  1  0  0  0  0
 40 41  2  0  0  0  0
 41 42  1  0  0  0  0
M  CHG  2   3  -1   4  -1
M  END
>  <CHROM.1>
61.38034802,-99.28970729,5.30947847,-33.64572252,-15.99453729,-2.65303817
-0.70113969,-0.32691580

>  <Name>
ligand

>  <RI>
0

>  <Rbt.Current_Directory>
/home/itssahil/PROJECTS/Mol_Feturizer/New_Systems/rnas/4QLN

>  <Rbt.Executable>
rbdock ($Id: //depot/dev/client3/rdock/2013.1/src/exe/rbdock.cxx#4 $)

>  <Rbt.Library>
libRbt.so (2013.1, Build901 2013/11/27)

>  <Rbt.Parameter_File>
/export/apps/rDock/src/rDock_2013.1_src/data/scripts/dock_solv.prm

>  <Rbt.Receptor>
prm/pocket_docking_5.prm

>  <SCORE>
-35.8479

>  <SCORE.INTER>
-36.1702

>  <SCORE.INTER.CONST>
1

>  <SCORE.INTER.POLAR>
0

>  <SCORE.INTER.ROT>
2

>  <SCORE.INTER.SOLV>
33.2062

>  <SCORE.INTER.VDW>
-40.1156

>  <SCORE.INTER.norm>
-0.861196

>  <SCORE.INTRA>
0.322361

>  <SCORE.INTRA.DIHEDRAL>
-0.000496739

>  <SCORE.INTRA.DIHEDRAL.0>
2.39985

>  <SCORE.INTRA.POLAR>
0

>  <SCORE.INTRA.POLAR.0>
0

>  <SCORE.INTRA.REPUL>
0

>  <SCORE.INTRA.REPUL.0>
0

>  <SCORE.INTRA.SOLV>
-0.00754913

>  <SCORE.INTRA.SOLV.lig_0>
-110.958

>  <SCORE.INTRA.VDW>
0.326384

>  <SCORE.INTRA.VDW.0>
-2.34644

>  <SCORE.INTRA.norm>
0.00767526

>  <SCORE.RESTR>
0

>  <SCORE.RESTR.CAVITY>
0

>  <SCORE.RESTR.norm>
0

>  <SCORE.SYSTEM>
0

>  <SCORE.SYSTEM.CONST>
0

>  <SCORE.SYSTEM.DIHEDRAL>
0

>  <SCORE.SYSTEM.SOLV>
0

>  <SCORE.SYSTEM.norm>
0

>  <SCORE.heavy>
42

>  <SCORE.norm>
-0.85352

>  <RMSD>
0.852

$$$$
ligand
 OpenBabel11021811513D
libRbt.so/2013.1/901 2013/11/27
 42 48  0  0  0  0  0  0  0  0999 V2000
    3.7397  -34.4162  -13.3911 P   0  0  2  0  0  0  0  0  0  0  0  0
    7.5104  -35.4832  -16.5782 P   0  0  1  0  0  0  0  0  0  0  0  0
    3.2249  -35.5086  -12.4829 O   0  5  0  0  0  0  0  0  0  0  0  0
    7.0173  -34.1654  -17.1266 O   0  5  0  0  0  0  0  0  0  0  0  0
    2.9293  -33.1576  -13.5892 O   0  0  0  0  0  0  0  0  0  0  0  0
    8.8250  -36.0532  -17.0538 O   0  0  0  0  0  0  0  0  0  0  0  0
    3.2249  -36.1268  -15.3317 C   0  0  0  0  0  0  0  0  0  0  0  0
    8.3798  -34.3959  -14.3387 C   0  0  0  0  0  0  0  0  0  0  0  0
    4.0326  -35.0600  -14.8370 O   0  0  0  0  0  0  0  0  0  0  0  0
    7.5592  -35.3745  -14.9725 O   0  0  0  0  0  0  0  0  0  0  0  0
    4.0618  -37.0167  -16.2429 C   0  0  1  0  0  0  0  0  0  0  0  0
    7.5604  -33.6354  -13.3038 C   0  0  1  0  0  0  0  0  0  0  0  0
    3.2048  -37.7365  -17.1333 O   0  0  0  0  0  0  0  0  0  0  0  0
    8.1559  -32.3587  -13.0603 O   0  0  0  0  0  0  0  0  0  0  0  0
    5.0224  -36.1943  -17.0851 C   0  0  1  0  0  0  0  0  0  0  0  0
    6.1390  -33.3999  -13.7897 C   0  0  1  0  0  0  0  0  0  0  0  0
    6.3652  -36.5893  -16.8210 O   0  0  0  0  0  0  0  0  0  0  0  0
    5.2100  -33.9957  -12.8890 O   0  0  0  0  0  0  0  0  0  0  0  0
    4.6729  -36.4770  -18.5344 C   0  0  0  0  0  0  0  0  0  0  0  0
    5.9400  -31.8969  -13.8231 C   0  0  0  0  0  0  0  0  0  0  0  0
    3.5114  -37.4593  -18.5024 C   0  0  2  0  0  0  0  0  0  0  0  0
    7.2538  -31.2888  -13.3532 C   0  0  2  0  0  0  0  0  0  0  0  0
    0.1478  -33.4282  -18.6269 N   0  0  0  0  0  0  0  0  0  0  0  0
    1.1929  -33.6614  -17.8117 C   0  0  0  0  0  0  0  0  0  0  0  0
    1.9778  -34.7514  -17.8956 N   0  0  0  0  0  0  0  0  0  0  0  0
    1.7511  -35.7008  -18.8348 C   0  0  0  0  0  0  0  0  0  0  0  0
    0.6259  -35.5177  -19.7650 C   0  0  0  0  0  0  0  0  0  0  0  0
   -0.1932  -34.2922  -19.6092 C   0  0  0  0  0  0  0  0  0  0  0  0
   -1.2471  -34.0458  -20.4242 N   0  0  0  0  0  0  0  0  0  0  0  0
    0.6248  -36.5879  -20.5816 N   0  0  0  0  0  0  0  0  0  0  0  0
    1.6573  -37.3865  -20.2084 C   0  0  0  0  0  0  0  0  0  0  0  0
    2.3289  -36.8578  -19.1674 N   0  0  0  0  0  0  0  0  0  0  0  0
    9.9060  -26.9067  -14.5087 N   0  0  0  0  0  0  0  0  0  0  0  0
    9.5380  -27.4089  -13.3155 C   0  0  0  0  0  0  0  0  0  0  0  0
    8.8525  -28.5567  -13.1669 N   0  0  0  0  0  0  0  0  0  0  0  0
    8.4853  -29.2906  -14.2451 C   0  0  0  0  0  0  0  0  0  0  0  0
    8.8515  -28.8073  -15.5854 C   0  0  0  0  0  0  0  0  0  0  0  0
    9.6066  -27.5347  -15.6662 C   0  0  0  0  0  0  0  0  0  0  0  0
    9.9836  -27.0190  -16.8620 N   0  0  0  0  0  0  0  0  0  0  0  0
    8.3736  -29.7100  -16.4627 N   0  0  0  0  0  0  0  0  0  0  0  0
    7.7557  -30.6848  -15.7473 C   0  0  0  0  0  0  0  0  0  0  0  0
    7.8221  -30.4351  -14.4266 N   0  0  0  0  0  0  0  0  0  0  0  0
  1  3  1  1  0  0  0
  1  5  2  0  0  0  0
  1  9  1  0  0  0  0
  1 18  1  0  0  0  0
  2  4  1  6  0  0  0
  2  6  2  0  0  0  0
  2 10  1  0  0  0  0
  2 17  1  0  0  0  0
  7  9  1  0  0  0  0
  8 10  1  0  0  0  0
 11  7  1  1  0  0  0
 11 13  1  0  0  0  0
 11 15  1  0  0  0  0
 12  8  1  6  0  0  0
 12 14  1  0  0  0  0
 12 16  1  0  0  0  0
 13 21  1  0  0  0  0
 14 22  1  0  0  0  0
 15 17  1  6  0  0  0
 15 19  1  0  0  0  0
 16 18  1  1  0  0  0
 16 20  1  0  0  0  0
 19 21  1  0  0  0  0
 20 22  1  0  0  0  0
 21 32  1  1  0  0  0
 22 42  1  6  0  0  0
 23 24  2  0  0  0  0
 23 28  1  0  0  0  0
 24 25  1  0  0  0  0
 25 26  2  0  0  0  0
 26 27  1  0  0  0  0
 26 32  1  0  0  0  0
 27 28  2  0  0  0  0
 27 30  1  0  0  0  0
 28 29  1  0  0  0  0
 30 31  2  0  0  0  0
 31 32  1  0  0  0  0
 33 34  2  0  0  0  0
 33 38  1  0  0  0  0
 34 35  1  0  0  0  0
 35 36  2  0  0  0  0
 36 37  1  0  0  0  0
 36 42  1  0  0  0  0
 37 38  2  0  0  0  0
 37 40  1  0  0  0  0
 38 39  1  0  0  0  0
 40 41  2  0  0  0  0
 41 42  1  0  0  0  0
M  CHG  2   3  -1   4  -1
M  END
>  <CHROM.1>
61.89157631,-97.76012559,5.31545207,-33.64907660,-15.99967598,-2.65620655
-0.70219148,-0.33069764

>  <Name>
ligand

>  <RI>
0

>  <Rbt.Current_Directory>
/home/itssahil/PROJECTS/Mol_Feturizer/New_Systems/rnas/4QLN

>  <Rbt.Executable>
rbdock ($Id: //depot/dev/client3/rdock/2013.1/src/exe/rbdock.cxx#4 $)

>  <Rbt.Library>
libRbt.so (2013.1, Build901 2013/11/27)

>  <Rbt.Parameter_File>
/export/apps/rDock/src/rDock_2013.1_src/data/scripts/dock_solv.prm

>  <Rbt.Receptor>
prm/pocket_docking_3.prm

>  <SCORE>
-35.9321

>  <SCORE.INTER>
-36.2965

>  <SCORE.INTER.CONST>
1

>  <SCORE.INTER.POLAR>
0

>  <SCORE.INTER.ROT>
2

>  <SCORE.INTER.SOLV>
33.2123

>  <SCORE.INTER.VDW>
-40.2018

>  <SCORE.INTER.norm>
-0.864202

>  <SCORE.INTRA>
0.364361

>  <SCORE.INTRA.DIHEDRAL>
-0.000515805

>  <SCORE.INTRA.DIHEDRAL.0>
2.39985

>  <SCORE.INTRA.POLAR>
0

>  <SCORE.INTRA.POLAR.0>
0

>  <SCORE.INTRA.REPUL>
0

>  <SCORE.INTRA.REPUL.0>
0

>  <SCORE.INTRA.SOLV>
-0.00915521

>  <SCORE.INTRA.SOLV.lig_0>
-110.958

>  <SCORE.INTRA.VDW>
0.369196

>  <SCORE.INTRA.VDW.0>
-2.34644

>  <SCORE.INTRA.norm>
0.00867525

>  <SCORE.RESTR>
0

>  <SCORE.RESTR.CAVITY>
0

>  <SCORE.RESTR.norm>
0

>  <SCORE.SYSTEM>
0

>  <SCORE.SYSTEM.CONST>
0

>  <SCORE.SYSTEM.DIHEDRAL>
0

>  <SCORE.SYSTEM.SOLV>
0

>  <SCORE.SYSTEM.norm>
0

>  <SCORE.heavy>
42

>  <SCORE.norm>
-0.855526

>  <RMSD>
0.853

$$$$
ligand
 OpenBabel11021811513D
libRbt.so/2013.1/901 2013/11/27
 42 48  0  0  0  0  0  0  0  0999 V2000
    3.7332  -34.4085  -13.3949 P   0  0  2  0  0  0  0  0  0  0  0  0
    7.5117  -35.4921  -16.5672 P   0  0  1  0  0  0  0  0  0  0  0  0
    3.2132  -35.4973  -12.4855 O   0  5  0  0  0  0  0  0  0  0  0  0
    7.0232  -34.1747  -17.1206 O   0  5  0  0  0  0  0  0  0  0  0  0
    2.9263  -33.1487  -13.5989 O   0  0  0  0  0  0  0  0  0  0  0  0
    8.8266  -36.0662  -17.0371 O   0  0  0  0  0  0  0  0  0  0  0  0
    3.2209  -36.1231  -15.3327 C   0  0  0  0  0  0  0  0  0  0  0  0
    8.3764  -34.4008  -14.3279 C   0  0  0  0  0  0  0  0  0  0  0  0
    4.0294  -35.0568  -14.8382 O   0  0  0  0  0  0  0  0  0  0  0  0
    7.5557  -35.3792  -14.9616 O   0  0  0  0  0  0  0  0  0  0  0  0
    4.0588  -37.0173  -16.2388 C   0  0  1  0  0  0  0  0  0  0  0  0
    7.5553  -33.6357  -13.2975 C   0  0  1  0  0  0  0  0  0  0  0  0
    3.2030  -37.7376  -17.1300 O   0  0  0  0  0  0  0  0  0  0  0  0
    8.1528  -32.3597  -13.0555 O   0  0  0  0  0  0  0  0  0  0  0  0
    5.0238  -36.1992  -17.0802 C   0  0  1  0  0  0  0  0  0  0  0  0
    6.1361  -33.3985  -13.7886 C   0  0  1  0  0  0  0  0  0  0  0  0
    6.3649  -36.5964  -16.8107 O   0  0  0  0  0  0  0  0  0  0  0  0
    5.2029  -33.9898  -12.8893 O   0  0  0  0  0  0  0  0  0  0  0  0
    4.6782  -36.4850  -18.5298 C   0  0  0  0  0  0  0  0  0  0  0  0
    5.9405  -31.8952  -13.8267 C   0  0  0  0  0  0  0  0  0  0  0  0
    3.5145  -37.4646  -18.4989 C   0  0  2  0  0  0  0  0  0  0  0  0
    7.2541  -31.2886  -13.3541 C   0  0  2  0  0  0  0  0  0  0  0  0
    0.1568  -33.4293  -18.6413 N   0  0  0  0  0  0  0  0  0  0  0  0
    1.1984  -33.6629  -17.8216 C   0  0  0  0  0  0  0  0  0  0  0  0
    1.9822  -34.7540  -17.9012 N   0  0  0  0  0  0  0  0  0  0  0  0
    1.7579  -35.7042  -18.8402 C   0  0  0  0  0  0  0  0  0  0  0  0
    0.6366  -35.5206  -19.7750 C   0  0  0  0  0  0  0  0  0  0  0  0
   -0.1815  -34.2939  -19.6239 C   0  0  0  0  0  0  0  0  0  0  0  0
   -1.2319  -34.0471  -20.4433 N   0  0  0  0  0  0  0  0  0  0  0  0
    0.6373  -36.5918  -20.5905 N   0  0  0  0  0  0  0  0  0  0  0  0
    1.6673  -37.3913  -20.2123 C   0  0  0  0  0  0  0  0  0  0  0  0
    2.3355  -36.8623  -19.1692 N   0  0  0  0  0  0  0  0  0  0  0  0
    9.9130  -26.9115  -14.5133 N   0  0  0  0  0  0  0  0  0  0  0  0
    9.5393  -27.4093  -13.3199 C   0  0  0  0  0  0  0  0  0  0  0  0
    8.8527  -28.5564  -13.1704 N   0  0  0  0  0  0  0  0  0  0  0  0
    8.4904  -29.2941  -14.2476 C   0  0  0  0  0  0  0  0  0  0  0  0
    8.8629  -28.8157  -15.5880 C   0  0  0  0  0  0  0  0  0  0  0  0
    9.6188  -27.5437  -15.6698 C   0  0  0  0  0  0  0  0  0  0  0  0
   10.0015  -27.0324  -16.8657 N   0  0  0  0  0  0  0  0  0  0  0  0
    8.3888  -29.7215  -16.4642 N   0  0  0  0  0  0  0  0  0  0  0  0
    7.7673  -30.6935  -15.7481 C   0  0  0  0  0  0  0  0  0  0  0  0
    7.8276  -30.4390  -14.4280 N   0  0  0  0  0  0  0  0  0  0  0  0
  1  3  1  1  0  0  0
  1  5  2  0  0  0  0
  1  9  1  0  0  0  0
  1 18  1  0  0  0  0
  2  4  1  6  0  0  0
  2  6  2  0  0  0  0
  2 10  1  0  0  0  0
  2 17  1  0  0  0  0
  7  9  1  0  0  0  0
  8 10  1  0  0  0  0
 11  7  1  1  0  0  0
 11 13  1  0  0  0  0
 11 15  1  0  0  0  0
 12  8  1  6  0  0  0
 12 14  1  0  0  0  0
 12 16  1  0  0  0  0
 13 21  1  0  0  0  0
 14 22  1  0  0  0  0
 15 17  1  6  0  0  0
 15 19  1  0  0  0  0
 16 18  1  1  0  0  0
 16 20  1  0  0  0  0
 19 21  1  0  0  0  0
 20 22  1  0  0  0  0
 21 32  1  1  0  0  0
 22 42  1  6  0  0  0
 23 24  2  0  0  0  0
 23 28  1  0  0  0  0
 24 25  1  0  0  0  0
 25 26  2  0  0  0  0
 26 27  1  0  0  0  0
 26 32  1  0  0  0  0
 27 28  2  0  0  0  0
 27 30  1  0  0  0  0
 28 29  1  0  0  0  0
 30 31  2  0  0  0  0
 31 32  1  0  0  0  0
 33 34  2  0  0  0  0
 33 38  1  0  0  0  0
 34 35  1  0  0  0  0
 35 36  2  0  0  0  0
 36 37  1  0  0  0  0
 36 42  1  0  0  0  0
 37 38  2  0  0  0  0
 37 40  1  0  0  0  0
 38 39  1  0  0  0  0
 40 41  2  0  0  0  0
 41 42  1  0  0  0  0
M  CHG  2   3  -1   4  -1
M  END
>  <CHROM.1>
61.78264895,-97.90692145,5.31815698,-33.65160968,-16.00027288,-2.65900297
-0.70396972,-0.33441829

>  <Name>
ligand

>  <RI>
0

>  <Rbt.Current_Directory>
/home/itssahil/PROJECTS/Mol_Feturizer/New_Systems/rnas/4QLN

>  <Rbt.Executable>
rbdock ($Id: //depot/dev/client3/rdock/2013.1/src/exe/rbdock.cxx#4 $)

>  <Rbt.Library>
libRbt.so (2013.1, Build901 2013/11/27)

>  <Rbt.Parameter_File>
/export/apps/rDock/src/rDock_2013.1_src/data/scripts/dock_solv.prm

>  <Rbt.Receptor>
prm/pocket_docking_3.prm

>  <SCORE>
-35.8507

>  <SCORE.INTER>
-36.2102

>  <SCORE.INTER.CONST>
1

>  <SCORE.INTER.POLAR>
0

>  <SCORE.INTER.ROT>
2

>  <SCORE.INTER.SOLV>
33.2714

>  <SCORE.INTER.VDW>
-40.1639

>  <SCORE.INTER.norm>
-0.862148

>  <SCORE.INTRA>
0.359507

>  <SCORE.INTRA.DIHEDRAL>
-0.000514981

>  <SCORE.INTRA.DIHEDRAL.0>
2.39985

>  <SCORE.INTRA.POLAR>
0

>  <SCORE.INTRA.POLAR.0>
0

>  <SCORE.INTRA.REPUL>
0

>  <SCORE.INTRA.REPUL.0>
0

>  <SCORE.INTRA.SOLV>
-0.0089342

>  <SCORE.INTRA.SOLV.lig_0>
-110.958

>  <SCORE.INTRA.VDW>
0.364232

>  <SCORE.INTRA.VDW.0>
-2.34644

>  <SCORE.INTRA.norm>
0.0085597

>  <SCORE.RESTR>
0

>  <SCORE.RESTR.CAVITY>
0

>  <SCORE.RESTR.norm>
0

>  <SCORE.SYSTEM>
0

>  <SCORE.SYSTEM.CONST>
0

>  <SCORE.SYSTEM.DIHEDRAL>
0

>  <SCORE.SYSTEM.SOLV>
0

>  <SCORE.SYSTEM.norm>
0

>  <SCORE.heavy>
42

>  <SCORE.norm>
-0.853588

>  <RMSD>
0.853

$$$$
ligand
 OpenBabel11021811513D
libRbt.so/2013.1/901 2013/11/27
 42 48  0  0  0  0  0  0  0  0999 V2000
    3.8518  -34.3568  -13.4415 P   0  0  2  0  0  0  0  0  0  0  0  0
    7.5861  -35.3752  -16.6868 P   0  0  1  0  0  0  0  0  0  0  0  0
    3.3524  -35.4608  -12.5389 O   0  5  0  0  0  0  0  0  0  0  0  0
    7.0815  -34.0534  -17.2147 O   0  5  0  0  0  0  0  0  0  0  0  0
    3.0346  -33.0991  -13.6158 O   0  0  0  0  0  0  0  0  0  0  0  0
    8.8968  -35.9351  -17.1850 O   0  0  0  0  0  0  0  0  0  0  0  0
    3.3190  -36.0481  -15.3940 C   0  0  0  0  0  0  0  0  0  0  0  0
    8.4796  -34.3089  -14.4467 C   0  0  0  0  0  0  0  0  0  0  0  0
    4.1290  -34.9838  -14.8978 O   0  0  0  0  0  0  0  0  0  0  0  0
    7.6547  -35.2836  -15.0808 O   0  0  0  0  0  0  0  0  0  0  0  0
    4.1476  -36.9251  -16.3252 C   0  0  1  0  0  0  0  0  0  0  0  0
    7.6705  -33.5626  -13.3934 C   0  0  1  0  0  0  0  0  0  0  0  0
    3.2820  -37.6384  -17.2126 O   0  0  0  0  0  0  0  0  0  0  0  0
    8.2644  -32.2864  -13.1436 O   0  0  0  0  0  0  0  0  0  0  0  0
    5.0946  -36.0900  -17.1704 C   0  0  1  0  0  0  0  0  0  0  0  0
    6.2424  -33.3273  -13.8590 C   0  0  1  0  0  0  0  0  0  0  0  0
    6.4420  -36.4829  -16.9273 O   0  0  0  0  0  0  0  0  0  0  0  0
    5.3269  -33.9362  -12.9533 O   0  0  0  0  0  0  0  0  0  0  0  0
    4.7279  -36.3584  -18.6181 C   0  0  0  0  0  0  0  0  0  0  0  0
    6.0375  -31.8247  -13.8736 C   0  0  0  0  0  0  0  0  0  0  0  0
    3.5705  -37.3452  -18.5823 C   0  0  2  0  0  0  0  0  0  0  0  0
    7.3549  -31.2168  -13.4135 C   0  0  2  0  0  0  0  0  0  0  0  0
    0.2000  -33.3183  -18.6306 N   0  0  0  0  0  0  0  0  0  0  0  0
    1.2572  -33.5555  -17.8323 C   0  0  0  0  0  0  0  0  0  0  0  0
    2.0423  -34.6437  -17.9350 N   0  0  0  0  0  0  0  0  0  0  0  0
    1.8031  -35.5871  -18.8772 C   0  0  0  0  0  0  0  0  0  0  0  0
    0.6642  -35.3994  -19.7895 C   0  0  0  0  0  0  0  0  0  0  0  0
   -0.1541  -34.1761  -19.6136 C   0  0  0  0  0  0  0  0  0  0  0  0
   -1.2202  -33.9258  -20.4114 N   0  0  0  0  0  0  0  0  0  0  0  0
    0.6527  -36.4641  -20.6133 N   0  0  0  0  0  0  0  0  0  0  0  0
    1.6916  -37.2637  -20.2605 C   0  0  0  0  0  0  0  0  0  0  0  0
    2.3776  -36.7410  -19.2259 N   0  0  0  0  0  0  0  0  0  0  0  0
    9.9638  -26.8052  -14.5550 N   0  0  0  0  0  0  0  0  0  0  0  0
    9.6109  -27.3206  -13.3629 C   0  0  0  0  0  0  0  0  0  0  0  0
    8.9353  -28.4748  -13.2181 N   0  0  0  0  0  0  0  0  0  0  0  0
    8.5632  -29.2018  -14.2993 C   0  0  0  0  0  0  0  0  0  0  0  0
    8.9129  -28.7039  -15.6386 C   0  0  0  0  0  0  0  0  0  0  0  0
    9.6579  -27.4251  -15.7152 C   0  0  0  0  0  0  0  0  0  0  0  0
   10.0197  -26.8960  -16.9099 N   0  0  0  0  0  0  0  0  0  0  0  0
    8.4333  -29.6023  -16.5194 N   0  0  0  0  0  0  0  0  0  0  0  0
    7.8294  -30.5880  -15.8068 C   0  0  0  0  0  0  0  0  0  0  0  0
    7.9066  -30.3495  -14.4847 N   0  0  0  0  0  0  0  0  0  0  0  0
  1  3  1  1  0  0  0
  1  5  2  0  0  0  0
  1  9  1  0  0  0  0
  1 18  1  0  0  0  0
  2  4  1  6  0  0  0
  2  6  2  0  0  0  0
  2 10  1  0  0  0  0
  2 17  1  0  0  0  0
  7  9  1  0  0  0  0
  8 10  1  0  0  0  0
 11  7  1  1  0  0  0
 11 13  1  0  0  0  0
 11 15  1  0  0  0  0
 12  8  1  6  0  0  0
 12 14  1  0  0  0  0
 12 16  1  0  0  0  0
 13 21  1  0  0  0  0
 14 22  1  0  0  0  0
 15 17  1  6  0  0  0
 15 19  1  0  0  0  0
 16 18  1  1  0  0  0
 16 20  1  0  0  0  0
 19 21  1  0  0  0  0
 20 22  1  0  0  0  0
 21 32  1  1  0  0  0
 22 42  1  6  0  0  0
 23 24  2  0  0  0  0
 23 28  1  0  0  0  0
 24 25  1  0  0  0  0
 25 26  2  0  0  0  0
 26 27  1  0  0  0  0
 26 32  1  0  0  0  0
 27 28  2  0  0  0  0
 27 30  1  0  0  0  0
 28 29  1  0  0  0  0
 30 31  2  0  0  0  0
 31 32  1  0  0  0  0
 33 34  2  0  0  0  0
 33 38  1  0  0  0  0
 34 35  1  0  0  0  0
 35 36  2  0  0  0  0
 36 37  1  0  0  0  0
 36 42  1  0  0  0  0
 37 38  2  0  0  0  0
 37 40  1  0  0  0  0
 38 39  1  0  0  0  0
 40 41  2  0  0  0  0
 41 42  1  0  0  0  0
M  CHG  2   3  -1   4  -1
M  END
>  <CHROM.1>
62.18666008,-98.05118354,5.39172602,-33.55437308,-16.06191612,-2.64591271
-0.69218033,-0.31331756

>  <Name>
ligand

>  <RI>
0

>  <Rbt.Current_Directory>
/home/itssahil/PROJECTS/Mol_Feturizer/New_Systems/rnas/4QLN

>  <Rbt.Executable>
rbdock ($Id: //depot/dev/client3/rdock/2013.1/src/exe/rbdock.cxx#4 $)

>  <Rbt.Library>
libRbt.so (2013.1, Build901 2013/11/27)

>  <Rbt.Parameter_File>
/export/apps/rDock/src/rDock_2013.1_src/data/scripts/dock_solv.prm

>  <Rbt.Receptor>
prm/pocket_docking_4.prm

>  <SCORE>
-35.8967

>  <SCORE.INTER>
-36.2582

>  <SCORE.INTER.CONST>
1

>  <SCORE.INTER.POLAR>
0

>  <SCORE.INTER.ROT>
2

>  <SCORE.INTER.SOLV>
33.7579

>  <SCORE.INTER.VDW>
-40.3581

>  <SCORE.INTER.norm>
-0.86329

>  <SCORE.INTRA>
0.361492

>  <SCORE.INTRA.DIHEDRAL>
-0.000507167

>  <SCORE.INTRA.DIHEDRAL.0>
2.39985

>  <SCORE.INTRA.POLAR>
0

>  <SCORE.INTRA.POLAR.0>
0

>  <SCORE.INTRA.REPUL>
0

>  <SCORE.INTRA.REPUL.0>
0

>  <SCORE.INTRA.SOLV>
-0.00919807

>  <SCORE.INTRA.SOLV.lig_0>
-110.958

>  <SCORE.INTRA.VDW>
0.366345

>  <SCORE.INTRA.VDW.0>
-2.34644

>  <SCORE.INTRA.norm>
0.00860695

>  <SCORE.RESTR>
0

>  <SCORE.RESTR.CAVITY>
0

>  <SCORE.RESTR.norm>
0

>  <SCORE.SYSTEM>
0

>  <SCORE.SYSTEM.CONST>
0

>  <SCORE.SYSTEM.DIHEDRAL>
0

>  <SCORE.SYSTEM.SOLV>
0

>  <SCORE.SYSTEM.norm>
0

>  <SCORE.heavy>
42

>  <SCORE.norm>
-0.854683

>  <RMSD>
0.853

$$$$
ligand
 OpenBabel11021811513D
libRbt.so/2013.1/901 2013/11/27
 42 48  0  0  0  0  0  0  0  0999 V2000
    3.7390  -34.3982  -13.3990 P   0  0  2  0  0  0  0  0  0  0  0  0
    7.5120  -35.4937  -16.5737 P   0  0  1  0  0  0  0  0  0  0  0  0
    3.2176  -35.4849  -12.4877 O   0  5  0  0  0  0  0  0  0  0  0  0
    7.0257  -34.1759  -17.1282 O   0  5  0  0  0  0  0  0  0  0  0  0
    2.9345  -33.1370  -13.6037 O   0  0  0  0  0  0  0  0  0  0  0  0
    8.8253  -36.0711  -17.0442 O   0  0  0  0  0  0  0  0  0  0  0  0
    3.2212  -36.1141  -15.3341 C   0  0  0  0  0  0  0  0  0  0  0  0
    8.3812  -34.4014  -14.3365 C   0  0  0  0  0  0  0  0  0  0  0  0
    4.0323  -35.0489  -14.8417 O   0  0  0  0  0  0  0  0  0  0  0  0
    7.5578  -35.3789  -14.9683 O   0  0  0  0  0  0  0  0  0  0  0  0
    4.0562  -37.0112  -16.2400 C   0  0  1  0  0  0  0  0  0  0  0  0
    7.5628  -33.6334  -13.3063 C   0  0  1  0  0  0  0  0  0  0  0  0
    3.1980  -37.7308  -17.1295 O   0  0  0  0  0  0  0  0  0  0  0  0
    8.1632  -32.3583  -13.0665 O   0  0  0  0  0  0  0  0  0  0  0  0
    5.0221  -36.1961  -17.0833 C   0  0  1  0  0  0  0  0  0  0  0  0
    6.1436  -33.3937  -13.7962 C   0  0  1  0  0  0  0  0  0  0  0  0
    6.3626  -36.5958  -16.8147 O   0  0  0  0  0  0  0  0  0  0  0  0
    5.2100  -33.9820  -12.8953 O   0  0  0  0  0  0  0  0  0  0  0  0
    4.6745  -36.4830  -18.5322 C   0  0  0  0  0  0  0  0  0  0  0  0
    5.9510  -31.8901  -13.8360 C   0  0  0  0  0  0  0  0  0  0  0  0
    3.5088  -37.4601  -18.4989 C   0  0  2  0  0  0  0  0  0  0  0  0
    7.2664  -31.2857  -13.3655 C   0  0  2  0  0  0  0  0  0  0  0  0
    0.1490  -33.4262  -18.6321 N   0  0  0  0  0  0  0  0  0  0  0  0
    1.1896  -33.6621  -17.8119 C   0  0  0  0  0  0  0  0  0  0  0  0
    1.9741  -34.7525  -17.8941 N   0  0  0  0  0  0  0  0  0  0  0  0
    1.7516  -35.6995  -18.8367 C   0  0  0  0  0  0  0  0  0  0  0  0
    0.6315  -35.5134  -19.7724 C   0  0  0  0  0  0  0  0  0  0  0  0
   -0.1874  -34.2876  -19.6182 C   0  0  0  0  0  0  0  0  0  0  0  0
   -1.2368  -34.0385  -20.4382 N   0  0  0  0  0  0  0  0  0  0  0  0
    0.6340  -36.5817  -20.5916 N   0  0  0  0  0  0  0  0  0  0  0  0
    1.6639  -37.3820  -20.2146 C   0  0  0  0  0  0  0  0  0  0  0  0
    2.3303  -36.8562  -19.1688 N   0  0  0  0  0  0  0  0  0  0  0  0
    9.8785  -26.8838  -14.5368 N   0  0  0  0  0  0  0  0  0  0  0  0
    9.4979  -27.3751  -13.3430 C   0  0  0  0  0  0  0  0  0  0  0  0
    8.8254  -28.5301  -13.1901 N   0  0  0  0  0  0  0  0  0  0  0  0
    8.4856  -29.2830  -14.2642 C   0  0  0  0  0  0  0  0  0  0  0  0
    8.8670  -28.8125  -15.6048 C   0  0  0  0  0  0  0  0  0  0  0  0
    9.6063  -27.5309  -15.6904 C   0  0  0  0  0  0  0  0  0  0  0  0
    9.9958  -27.0260  -16.8868 N   0  0  0  0  0  0  0  0  0  0  0  0
    8.4155  -29.7330  -16.4775 N   0  0  0  0  0  0  0  0  0  0  0  0
    7.7990  -30.7066  -15.7591 C   0  0  0  0  0  0  0  0  0  0  0  0
    7.8406  -30.4386  -14.4410 N   0  0  0  0  0  0  0  0  0  0  0  0
  1  3  1  1  0  0  0
  1  5  2  0  0  0  0
  1  9  1  0  0  0  0
  1 18  1  0  0  0  0
  2  4  1  6  0  0  0
  2  6  2  0  0  0  0
  2 10  1  0  0  0  0
  2 17  1  0  0  0  0
  7  9  1  0  0  0  0
  8 10  1  0  0  0  0
 11  7  1  1  0  0  0
 11 13  1  0  0  0  0
 11 15  1  0  0  0  0
 12  8  1  6  0  0  0
 12 14  1  0  0  0  0
 12 16  1  0  0  0  0
 13 21  1  0  0  0  0
 14 22  1  0  0  0  0
 15 17  1  6  0  0  0
 15 19  1  0  0  0  0
 16 18  1  1  0  0  0
 16 20  1  0  0  0  0
 19 21  1  0  0  0  0
 20 22  1  0  0  0  0
 21 32  1  1  0  0  0
 22 42  1  6  0  0  0
 23 24  2  0  0  0  0
 23 28  1  0  0  0  0
 24 25  1  0  0  0  0
 25 26  2  0  0  0  0
 26 27  1  0  0  0  0
 26 32  1  0  0  0  0
 27 28  2  0  0  0  0
 27 30  1  0  0  0  0
 28 29  1  0  0  0  0
 30 31  2  0  0  0  0
 31 32  1  0  0  0  0
 33 34  2  0  0  0  0
 33 38  1  0  0  0  0
 34 35  1  0  0  0  0
 35 36  2  0  0  0  0
 36 37  1  0  0  0  0
 36 42  1  0  0  0  0
 37 38  2  0  0  0  0
 37 40  1  0  0  0  0
 38 39  1  0  0  0  0
 40 41  2  0  0  0  0
 41 42  1  0  0  0  0
M  CHG  2   3  -1   4  -1
M  END
>  <CHROM.1>
61.44621321,-99.15840330,5.31753686,-33.64592624,-16.00626416,-2.65274691
-0.69994711,-0.32713205

>  <Name>
ligand

>  <RI>
0

>  <Rbt.Current_Directory>
/home/itssahil/PROJECTS/Mol_Feturizer/New_Systems/rnas/4QLN

>  <Rbt.Executable>
rbdock ($Id: //depot/dev/client3/rdock/2013.1/src/exe/rbdock.cxx#4 $)

>  <Rbt.Library>
libRbt.so (2013.1, Build901 2013/11/27)

>  <Rbt.Parameter_File>
/export/apps/rDock/src/rDock_2013.1_src/data/scripts/dock_solv.prm

>  <Rbt.Receptor>
prm/pocket_docking_5.prm

>  <SCORE>
-35.8648

>  <SCORE.INTER>
-36.191

>  <SCORE.INTER.CONST>
1

>  <SCORE.INTER.POLAR>
0

>  <SCORE.INTER.ROT>
2

>  <SCORE.INTER.SOLV>
33.3012

>  <SCORE.INTER.VDW>
-40.1611

>  <SCORE.INTER.norm>
-0.861691

>  <SCORE.INTRA>
0.32618

>  <SCORE.INTRA.DIHEDRAL>
-0.000498245

>  <SCORE.INTRA.DIHEDRAL.0>
2.39985

>  <SCORE.INTRA.POLAR>
0

>  <SCORE.INTRA.POLAR.0>
0

>  <SCORE.INTRA.REPUL>
0

>  <SCORE.INTRA.REPUL.0>
0

>  <SCORE.INTRA.SOLV>
-0.00769784

>  <SCORE.INTRA.SOLV.lig_0>
-110.958

>  <SCORE.INTRA.VDW>
0.330278

>  <SCORE.INTRA.VDW.0>
-2.34644

>  <SCORE.INTRA.norm>
0.00776619

>  <SCORE.RESTR>
0

>  <SCORE.RESTR.CAVITY>
0

>  <SCORE.RESTR.norm>
0

>  <SCORE.SYSTEM>
0

>  <SCORE.SYSTEM.CONST>
0

>  <SCORE.SYSTEM.DIHEDRAL>
0

>  <SCORE.SYSTEM.SOLV>
0

>  <SCORE.SYSTEM.norm>
0

>  <SCORE.heavy>
42

>  <SCORE.norm>
-0.853925

>  <RMSD>
0.853

$$$$
ligand
 OpenBabel11021811513D
libRbt.so/2013.1/901 2013/11/27
 42 48  0  0  0  0  0  0  0  0999 V2000
    3.7434  -34.4114  -13.3968 P   0  0  2  0  0  0  0  0  0  0  0  0
    7.5163  -35.4827  -16.5798 P   0  0  1  0  0  0  0  0  0  0  0  0
    3.2285  -35.5023  -12.4871 O   0  5  0  0  0  0  0  0  0  0  0  0
    7.0231  -34.1661  -17.1308 O   0  5  0  0  0  0  0  0  0  0  0  0
    2.9328  -33.1534  -13.5976 O   0  0  0  0  0  0  0  0  0  0  0  0
    8.8315  -36.0531  -17.0537 O   0  0  0  0  0  0  0  0  0  0  0  0
    3.2304  -36.1255  -15.3347 C   0  0  0  0  0  0  0  0  0  0  0  0
    8.3841  -34.3912  -14.3418 C   0  0  0  0  0  0  0  0  0  0  0  0
    4.0374  -35.0576  -14.8414 O   0  0  0  0  0  0  0  0  0  0  0  0
    7.5642  -35.3711  -14.9743 O   0  0  0  0  0  0  0  0  0  0  0  0
    4.0681  -37.0168  -16.2438 C   0  0  1  0  0  0  0  0  0  0  0  0
    7.5638  -33.6291  -13.3086 C   0  0  1  0  0  0  0  0  0  0  0  0
    3.2118  -37.7385  -17.1335 O   0  0  0  0  0  0  0  0  0  0  0  0
    8.1587  -32.3518  -13.0671 O   0  0  0  0  0  0  0  0  0  0  0  0
    5.0289  -36.1956  -17.0870 C   0  0  1  0  0  0  0  0  0  0  0  0
    6.1427  -33.3950  -13.7958 C   0  0  1  0  0  0  0  0  0  0  0  0
    6.3717  -36.5897  -16.8213 O   0  0  0  0  0  0  0  0  0  0  0  0
    5.2133  -33.9894  -12.8947 O   0  0  0  0  0  0  0  0  0  0  0  0
    4.6803  -36.4809  -18.5360 C   0  0  0  0  0  0  0  0  0  0  0  0
    5.9432  -31.8921  -13.8320 C   0  0  0  0  0  0  0  0  0  0  0  0
    3.5191  -37.4635  -18.5029 C   0  0  2  0  0  0  0  0  0  0  0  0
    7.2565  -31.2827  -13.3624 C   0  0  2  0  0  0  0  0  0  0  0  0
    0.1562  -33.4323  -18.6385 N   0  0  0  0  0  0  0  0  0  0  0  0
    1.2011  -33.6636  -17.8225 C   0  0  0  0  0  0  0  0  0  0  0  0
    1.9858  -34.7538  -17.9034 N   0  0  0  0  0  0  0  0  0  0  0  0
    1.7591  -35.7056  -18.8402 C   0  0  0  0  0  0  0  0  0  0  0  0
    0.6341  -35.5248  -19.7710 C   0  0  0  0  0  0  0  0  0  0  0  0
   -0.1848  -34.2988  -19.6185 C   0  0  0  0  0  0  0  0  0  0  0  0
   -1.2386  -34.0544  -20.4343 N   0  0  0  0  0  0  0  0  0  0  0  0
    0.6330  -36.5972  -20.5849 N   0  0  0  0  0  0  0  0  0  0  0  0
    1.6653  -37.3949  -20.2094 C   0  0  0  0  0  0  0  0  0  0  0  0
    2.3368  -36.8636  -19.1696 N   0  0  0  0  0  0  0  0  0  0  0  0
    9.9328  -26.9165  -14.5227 N   0  0  0  0  0  0  0  0  0  0  0  0
    9.5675  -27.4187  -13.3286 C   0  0  0  0  0  0  0  0  0  0  0  0
    8.8749  -28.5621  -13.1788 N   0  0  0  0  0  0  0  0  0  0  0  0
    8.4972  -29.2912  -14.2566 C   0  0  0  0  0  0  0  0  0  0  0  0
    8.8597  -28.8076  -15.5978 C   0  0  0  0  0  0  0  0  0  0  0  0
    9.6232  -27.5401  -15.6798 C   0  0  0  0  0  0  0  0  0  0  0  0
    9.9976  -27.0245  -16.8765 N   0  0  0  0  0  0  0  0  0  0  0  0
    8.3711  -29.7052  -16.4744 N   0  0  0  0  0  0  0  0  0  0  0  0
    7.7502  -30.6772  -15.7578 C   0  0  0  0  0  0  0  0  0  0  0  0
    7.8251  -30.4307  -14.4370 N   0  0  0  0  0  0  0  0  0  0  0  0
  1  3  1  1  0  0  0
  1  5  2  0  0  0  0
  1  9  1  0  0  0  0
  1 18  1  0  0  0  0
  2  4  1  6  0  0  0
  2  6  2  0  0  0  0
  2 10  1  0  0  0  0
  2 17  1  0  0  0  0
  7  9  1  0  0  0  0
  8 10  1  0  0  0  0
 11  7  1  1  0  0  0
 11 13  1  0  0  0  0
 11 15  1  0  0  0  0
 12  8  1  6  0  0  0
 12 14  1  0  0  0  0
 12 16  1  0  0  0  0
 13 21  1  0  0  0  0
 14 22  1  0  0  0  0
 15 17  1  6  0  0  0
 15 19  1  0  0  0  0
 16 18  1  1  0  0  0
 16 20  1  0  0  0  0
 19 21  1  0  0  0  0
 20 22  1  0  0  0  0
 21 32  1  1  0  0  0
 22 42  1  6  0  0  0
 23 24  2  0  0  0  0
 23 28  1  0  0  0  0
 24 25  1  0  0  0  0
 25 26  2  0  0  0  0
 26 27  1  0  0  0  0
 26 32  1  0  0  0  0
 27 28  2  0  0  0  0
 27 30  1  0  0  0  0
 28 29  1  0  0  0  0
 30 31  2  0  0  0  0
 31 32  1  0  0  0  0
 33 34  2  0  0  0  0
 33 38  1  0  0  0  0
 34 35  1  0  0  0  0
 35 36  2  0  0  0  0
 36 37  1  0  0  0  0
 36 42  1  0  0  0  0
 37 38  2  0  0  0  0
 37 40  1  0  0  0  0
 38 39  1  0  0  0  0
 40 41  2  0  0  0  0
 41 42  1  0  0  0  0
M  CHG  2   3  -1   4  -1
M  END
>  <CHROM.1>
61.95246769,-97.18772786,5.32266523,-33.64939109,-16.00588743,-2.65958577
-0.70362702,-0.33643397

>  <Name>
ligand

>  <RI>
0

>  <Rbt.Current_Directory>
/home/itssahil/PROJECTS/Mol_Feturizer/New_Systems/rnas/4QLN

>  <Rbt.Executable>
rbdock ($Id: //depot/dev/client3/rdock/2013.1/src/exe/rbdock.cxx#4 $)

>  <Rbt.Library>
libRbt.so (2013.1, Build901 2013/11/27)

>  <Rbt.Parameter_File>
/export/apps/rDock/src/rDock_2013.1_src/data/scripts/dock_solv.prm

>  <Rbt.Receptor>
prm/pocket_docking_5.prm

>  <SCORE>
-35.8915

>  <SCORE.INTER>
-36.2702

>  <SCORE.INTER.CONST>
1

>  <SCORE.INTER.POLAR>
0

>  <SCORE.INTER.ROT>
2

>  <SCORE.INTER.SOLV>
33.3008

>  <SCORE.INTER.VDW>
-40.2137

>  <SCORE.INTER.norm>
-0.863576

>  <SCORE.INTRA>
0.378641

>  <SCORE.INTRA.DIHEDRAL>
-0.00052359

>  <SCORE.INTRA.DIHEDRAL.0>
2.39985

>  <SCORE.INTRA.POLAR>
0

>  <SCORE.INTRA.POLAR.0>
0

>  <SCORE.INTRA.REPUL>
0

>  <SCORE.INTRA.REPUL.0>
0

>  <SCORE.INTRA.SOLV>
-0.00969781

>  <SCORE.INTRA.SOLV.lig_0>
-110.958

>  <SCORE.INTRA.VDW>
0.383751

>  <SCORE.INTRA.VDW.0>
-2.34644

>  <SCORE.INTRA.norm>
0.00901525

>  <SCORE.RESTR>
0

>  <SCORE.RESTR.CAVITY>
0

>  <SCORE.RESTR.norm>
0

>  <SCORE.SYSTEM>
0

>  <SCORE.SYSTEM.CONST>
0

>  <SCORE.SYSTEM.DIHEDRAL>
0

>  <SCORE.SYSTEM.SOLV>
0

>  <SCORE.SYSTEM.norm>
0

>  <SCORE.heavy>
42

>  <SCORE.norm>
-0.854561

>  <RMSD>
0.853

$$$$
ligand
 OpenBabel11021811513D
libRbt.so/2013.1/901 2013/11/27
 42 48  0  0  0  0  0  0  0  0999 V2000
    3.7249  -34.3996  -13.3909 P   0  0  2  0  0  0  0  0  0  0  0  0
    7.5032  -35.4987  -16.5580 P   0  0  1  0  0  0  0  0  0  0  0  0
    3.2010  -35.4855  -12.4803 O   0  5  0  0  0  0  0  0  0  0  0  0
    7.0189  -34.1809  -17.1139 O   0  5  0  0  0  0  0  0  0  0  0  0
    2.9216  -33.1378  -13.5977 O   0  0  0  0  0  0  0  0  0  0  0  0
    8.8170  -36.0772  -17.0257 O   0  0  0  0  0  0  0  0  0  0  0  0
    3.2096  -36.1158  -15.3264 C   0  0  0  0  0  0  0  0  0  0  0  0
    8.3689  -34.4062  -14.3196 C   0  0  0  0  0  0  0  0  0  0  0  0
    4.0205  -35.0509  -14.8329 O   0  0  0  0  0  0  0  0  0  0  0  0
    7.5460  -35.3834  -14.9525 O   0  0  0  0  0  0  0  0  0  0  0  0
    4.0458  -37.0137  -16.2304 C   0  0  1  0  0  0  0  0  0  0  0  0
    7.5490  -33.6372  -13.2912 C   0  0  1  0  0  0  0  0  0  0  0  0
    3.1888  -37.7331  -17.1212 O   0  0  0  0  0  0  0  0  0  0  0  0
    8.1498  -32.3625  -13.0507 O   0  0  0  0  0  0  0  0  0  0  0  0
    5.0139  -36.1997  -17.0721 C   0  0  1  0  0  0  0  0  0  0  0  0
    6.1309  -33.3968  -13.7839 C   0  0  1  0  0  0  0  0  0  0  0  0
    6.3536  -36.6002  -16.8008 O   0  0  0  0  0  0  0  0  0  0  0  0
    5.1952  -33.9842  -12.8846 O   0  0  0  0  0  0  0  0  0  0  0  0
    4.6688  -36.4868  -18.5216 C   0  0  0  0  0  0  0  0  0  0  0  0
    5.9395  -31.8930  -13.8246 C   0  0  0  0  0  0  0  0  0  0  0  0
    3.5024  -37.4632  -18.4902 C   0  0  2  0  0  0  0  0  0  0  0  0
    7.2543  -31.2894  -13.3518 C   0  0  2  0  0  0  0  0  0  0  0  0
    0.1477  -33.4254  -18.6335 N   0  0  0  0  0  0  0  0  0  0  0  0
    1.1868  -33.6614  -17.8114 C   0  0  0  0  0  0  0  0  0  0  0  0
    1.9701  -34.7529  -17.8911 N   0  0  0  0  0  0  0  0  0  0  0  0
    1.7478  -35.7009  -18.8328 C   0  0  0  0  0  0  0  0  0  0  0  0
    0.6293  -35.5146  -19.7704 C   0  0  0  0  0  0  0  0  0  0  0  0
   -0.1883  -34.2876  -19.6189 C   0  0  0  0  0  0  0  0  0  0  0  0
   -1.2363  -34.0384  -20.4407 N   0  0  0  0  0  0  0  0  0  0  0  0
    0.6317  -36.5840  -20.5881 N   0  0  0  0  0  0  0  0  0  0  0  0
    1.6601  -37.3850  -20.2086 C   0  0  0  0  0  0  0  0  0  0  0  0
    2.3256  -36.8587  -19.1626 N   0  0  0  0  0  0  0  0  0  0  0  0
    9.8939  -26.9025  -14.5179 N   0  0  0  0  0  0  0  0  0  0  0  0
    9.5135  -27.3948  -13.3244 C   0  0  0  0  0  0  0  0  0  0  0  0
    8.8333  -28.5455  -13.1729 N   0  0  0  0  0  0  0  0  0  0  0  0
    8.4848  -29.2926  -14.2482 C   0  0  0  0  0  0  0  0  0  0  0  0
    8.8654  -28.8207  -15.5886 C   0  0  0  0  0  0  0  0  0  0  0  0
    9.6136  -27.5442  -15.6726 C   0  0  0  0  0  0  0  0  0  0  0  0
   10.0029  -27.0383  -16.8687 N   0  0  0  0  0  0  0  0  0  0  0  0
    8.4047  -29.7353  -16.4627 N   0  0  0  0  0  0  0  0  0  0  0  0
    7.7836  -30.7067  -15.7453 C   0  0  0  0  0  0  0  0  0  0  0  0
    7.8312  -30.4431  -14.4265 N   0  0  0  0  0  0  0  0  0  0  0  0
  1  3  1  1  0  0  0
  1  5  2  0  0  0  0
  1  9  1  0  0  0  0
  1 18  1  0  0  0  0
  2  4  1  6  0  0  0
  2  6  2  0  0  0  0
  2 10  1  0  0  0  0
  2 17  1  0  0  0  0
  7  9  1  0  0  0  0
  8 10  1  0  0  0  0
 11  7  1  1  0  0  0
 11 13  1  0  0  0  0
 11 15  1  0  0  0  0
 12  8  1  6  0  0  0
 12 14  1  0  0  0  0
 12 16  1  0  0  0  0
 13 21  1  0  0  0  0
 14 22  1  0  0  0  0
 15 17  1  6  0  0  0
 15 19  1  0  0  0  0
 16 18  1  1  0  0  0
 16 20  1  0  0  0  0
 19 21  1  0  0  0  0
 20 22  1  0  0  0  0
 21 32  1  1  0  0  0
 22 42  1  6  0  0  0
 23 24  2  0  0  0  0
 23 28  1  0  0  0  0
 24 25  1  0  0  0  0
 25 26  2  0  0  0  0
 26 27  1  0  0  0  0
 26 32  1  0  0  0  0
 27 28  2  0  0  0  0
 27 30  1  0  0  0  0
 28 29  1  0  0  0  0
 30 31  2  0  0  0  0
 31 32  1  0  0  0  0
 33 34  2  0  0  0  0
 33 38  1  0  0  0  0
 34 35  1  0  0  0  0
 35 36  2  0  0  0  0
 36 37  1  0  0  0  0
 36 42  1  0  0  0  0
 37 38  2  0  0  0  0
 37 40  1  0  0  0  0
 38 39  1  0  0  0  0
 40 41  2  0  0  0  0
 41 42  1  0  0  0  0
M  CHG  2   3  -1   4  -1
M  END
>  <CHROM.1>
61.51384183,-98.65145983,5.31092707,-33.65019539,-15.99548883,-2.65754946
-0.70228858,-0.33220151

>  <Name>
ligand

>  <RI>
0

>  <Rbt.Current_Directory>
/home/itssahil/PROJECTS/Mol_Feturizer/New_Systems/rnas/4QLN

>  <Rbt.Executable>
rbdock ($Id: //depot/dev/client3/rdock/2013.1/src/exe/rbdock.cxx#4 $)

>  <Rbt.Library>
libRbt.so (2013.1, Build901 2013/11/27)

>  <Rbt.Parameter_File>
/export/apps/rDock/src/rDock_2013.1_src/data/scripts/dock_solv.prm

>  <Rbt.Receptor>
prm/pocket_docking_2.prm

>  <SCORE>
-35.8455

>  <SCORE.INTER>
-36.1843

>  <SCORE.INTER.CONST>
1

>  <SCORE.INTER.POLAR>
0

>  <SCORE.INTER.ROT>
2

>  <SCORE.INTER.SOLV>
33.2631

>  <SCORE.INTER.VDW>
-40.1439

>  <SCORE.INTER.norm>
-0.861531

>  <SCORE.INTRA>
0.338759

>  <SCORE.INTRA.DIHEDRAL>
-0.000506311

>  <SCORE.INTRA.DIHEDRAL.0>
2.39985

>  <SCORE.INTRA.POLAR>
0

>  <SCORE.INTRA.POLAR.0>
0

>  <SCORE.INTRA.REPUL>
0

>  <SCORE.INTRA.REPUL.0>
0

>  <SCORE.INTRA.SOLV>
-0.00811426

>  <SCORE.INTRA.SOLV.lig_0>
-110.958

>  <SCORE.INTRA.VDW>
0.34307

>  <SCORE.INTRA.VDW.0>
-2.34644

>  <SCORE.INTRA.norm>
0.0080657

>  <SCORE.RESTR>
0

>  <SCORE.RESTR.CAVITY>
0

>  <SCORE.RESTR.norm>
0

>  <SCORE.SYSTEM>
0

>  <SCORE.SYSTEM.CONST>
0

>  <SCORE.SYSTEM.DIHEDRAL>
0

>  <SCORE.SYSTEM.SOLV>
0

>  <SCORE.SYSTEM.norm>
0

>  <SCORE.heavy>
42

>  <SCORE.norm>
-0.853465

>  <RMSD>
0.854

$$$$
ligand
 OpenBabel11021811513D
libRbt.so/2013.1/901 2013/11/27
 42 48  0  0  0  0  0  0  0  0999 V2000
    3.7361  -34.4101  -13.3893 P   0  0  2  0  0  0  0  0  0  0  0  0
    7.5063  -35.4819  -16.5754 P   0  0  1  0  0  0  0  0  0  0  0  0
    3.2201  -35.5017  -12.4809 O   0  5  0  0  0  0  0  0  0  0  0  0
    7.0146  -34.1638  -17.1243 O   0  5  0  0  0  0  0  0  0  0  0  0
    2.9271  -33.1507  -13.5880 O   0  0  0  0  0  0  0  0  0  0  0  0
    8.8205  -36.0534  -17.0506 O   0  0  0  0  0  0  0  0  0  0  0  0
    3.2200  -36.1208  -15.3295 C   0  0  0  0  0  0  0  0  0  0  0  0
    8.3764  -34.3948  -14.3362 C   0  0  0  0  0  0  0  0  0  0  0  0
    4.0286  -35.0547  -14.8350 O   0  0  0  0  0  0  0  0  0  0  0  0
    7.5549  -35.3727  -14.9697 O   0  0  0  0  0  0  0  0  0  0  0  0
    4.0561  -37.0119  -16.2403 C   0  0  1  0  0  0  0  0  0  0  0  0
    7.5576  -33.6331  -13.3016 C   0  0  1  0  0  0  0  0  0  0  0  0
    3.1985  -37.7311  -17.1306 O   0  0  0  0  0  0  0  0  0  0  0  0
    8.1543  -32.3570  -13.0584 O   0  0  0  0  0  0  0  0  0  0  0  0
    5.0177  -36.1907  -17.0826 C   0  0  1  0  0  0  0  0  0  0  0  0
    6.1366  -33.3964  -13.7878 C   0  0  1  0  0  0  0  0  0  0  0  0
    6.3600  -36.5870  -16.8181 O   0  0  0  0  0  0  0  0  0  0  0  0
    5.2068  -33.9909  -12.8872 O   0  0  0  0  0  0  0  0  0  0  0  0
    4.6681  -36.4735  -18.5319 C   0  0  0  0  0  0  0  0  0  0  0  0
    5.9391  -31.8932  -13.8218 C   0  0  0  0  0  0  0  0  0  0  0  0
    3.5056  -37.4546  -18.4997 C   0  0  2  0  0  0  0  0  0  0  0  0
    7.2534  -31.2863  -13.3518 C   0  0  2  0  0  0  0  0  0  0  0  0
    0.1381  -33.4266  -18.6177 N   0  0  0  0  0  0  0  0  0  0  0  0
    1.1818  -33.6615  -17.8011 C   0  0  0  0  0  0  0  0  0  0  0  0
    1.9680  -34.7503  -17.8870 N   0  0  0  0  0  0  0  0  0  0  0  0
    1.7442  -35.6968  -18.8299 C   0  0  0  0  0  0  0  0  0  0  0  0
    0.6207  -35.5118  -19.7617 C   0  0  0  0  0  0  0  0  0  0  0  0
   -0.2000  -34.2876  -19.6035 C   0  0  0  0  0  0  0  0  0  0  0  0
   -1.2525  -34.0397  -20.4198 N   0  0  0  0  0  0  0  0  0  0  0  0
    0.6224  -36.5793  -20.5820 N   0  0  0  0  0  0  0  0  0  0  0  0
    1.6550  -37.3780  -20.2093 C   0  0  0  0  0  0  0  0  0  0  0  0
    2.3239  -36.8521  -19.1651 N   0  0  0  0  0  0  0  0  0  0  0  0
    9.8837  -26.8917  -14.5100 N   0  0  0  0  0  0  0  0  0  0  0  0
    9.5116  -27.3911  -13.3169 C   0  0  0  0  0  0  0  0  0  0  0  0
    8.8328  -28.5429  -13.1676 N   0  0  0  0  0  0  0  0  0  0  0  0
    8.4773  -29.2838  -14.2448 C   0  0  0  0  0  0  0  0  0  0  0  0
    8.8486  -28.8039  -15.5849 C   0  0  0  0  0  0  0  0  0  0  0  0
    9.5958  -27.5267  -15.6666 C   0  0  0  0  0  0  0  0  0  0  0  0
    9.9768  -27.0137  -16.8623 N   0  0  0  0  0  0  0  0  0  0  0  0
    8.3822  -29.7136  -16.4612 N   0  0  0  0  0  0  0  0  0  0  0  0
    7.7663  -30.6894  -15.7454 C   0  0  0  0  0  0  0  0  0  0  0  0
    7.8227  -30.4335  -14.4254 N   0  0  0  0  0  0  0  0  0  0  0  0
  1  3  1  1  0  0  0
  1  5  2  0  0  0  0
  1  9  1  0  0  0  0
  1 18  1  0  0  0  0
  2  4  1  6  0  0  0
  2  6  2  0  0  0  0
  2 10  1  0  0  0  0
  2 17  1  0  0  0  0
  7  9  1  0  0  0  0
  8 10  1  0  0  0  0
 11  7  1  1  0  0  0
 11 13  1  0  0  0  0
 11 15  1  0  0  0  0
 12  8  1  6  0  0  0
 12 14  1  0  0  0  0
 12 16  1  0  0  0  0
 13 21  1  0  0  0  0
 14 22  1  0  0  0  0
 15 17  1  6  0  0  0
 15 19  1  0  0  0  0
 16 18  1  1  0  0  0
 16 20  1  0  0  0  0
 19 21  1  0  0  0  0
 20 22  1  0  0  0  0
 21 32  1  1  0  0  0
 22 42  1  6  0  0  0
 23 24  2  0  0  0  0
 23 28  1  0  0  0  0
 24 25  1  0  0  0  0
 25 26  2  0  0  0  0
 26 27  1  0  0  0  0
 26 32  1  0  0  0  0
 27 28  2  0  0  0  0
 27 30  1  0  0  0  0
 28 29  1  0  0  0  0
 30 31  2  0  0  0  0
 31 32  1  0  0  0  0
 33 34  2  0  0  0  0
 33 38  1  0  0  0  0
 34 35  1  0  0  0  0
 35 36  2  0  0  0  0
 36 37  1  0  0  0  0
 36 42  1  0  0  0  0
 37 38  2  0  0  0  0
 37 40  1  0  0  0  0
 38 39  1  0  0  0  0
 40 41  2  0  0  0  0
 41 42  1  0  0  0  0
M  CHG  2   3  -1   4  -1
M  END
>  <CHROM.1>
61.62905704,-98.36494920,5.31028138,-33.64465967,-15.99735545,-2.65308709
-0.70053445,-0.32653401

>  <Name>
ligand

>  <RI>
0

>  <Rbt.Current_Directory>
/home/itssahil/PROJECTS/Mol_Feturizer/New_Systems/rnas/4QLN

>  <Rbt.Executable>
rbdock ($Id: //depot/dev/client3/rdock/2013.1/src/exe/rbdock.cxx#4 $)

>  <Rbt.Library>
libRbt.so (2013.1, Build901 2013/11/27)

>  <Rbt.Parameter_File>
/export/apps/rDock/src/rDock_2013.1_src/data/scripts/dock_solv.prm

>  <Rbt.Receptor>
prm/pocket_docking_6.prm

>  <SCORE>
-35.9091

>  <SCORE.INTER>
-36.256

>  <SCORE.INTER.CONST>
1

>  <SCORE.INTER.POLAR>
0

>  <SCORE.INTER.ROT>
2

>  <SCORE.INTER.SOLV>
33.1866

>  <SCORE.INTER.VDW>
-40.1662

>  <SCORE.INTER.norm>
-0.863237

>  <SCORE.INTRA>
0.346853

>  <SCORE.INTRA.DIHEDRAL>
-0.000509609

>  <SCORE.INTRA.DIHEDRAL.0>
2.39985

>  <SCORE.INTRA.POLAR>
0

>  <SCORE.INTRA.POLAR.0>
0

>  <SCORE.INTRA.REPUL>
0

>  <SCORE.INTRA.REPUL.0>
0

>  <SCORE.INTRA.SOLV>
-0.00843386

>  <SCORE.INTRA.SOLV.lig_0>
-110.958

>  <SCORE.INTRA.VDW>
0.351324

>  <SCORE.INTRA.VDW.0>
-2.34644

>  <SCORE.INTRA.norm>
0.0082584

>  <SCORE.RESTR>
0

>  <SCORE.RESTR.CAVITY>
0

>  <SCORE.RESTR.norm>
0

>  <SCORE.SYSTEM>
0

>  <SCORE.SYSTEM.CONST>
0

>  <SCORE.SYSTEM.DIHEDRAL>
0

>  <SCORE.SYSTEM.SOLV>
0

>  <SCORE.SYSTEM.norm>
0

>  <SCORE.heavy>
42

>  <SCORE.norm>
-0.854979

>  <RMSD>
0.854

$$$$
ligand
 OpenBabel11021811513D
libRbt.so/2013.1/901 2013/11/27
 42 48  0  0  0  0  0  0  0  0999 V2000
    3.7319  -34.3895  -13.3909 P   0  0  2  0  0  0  0  0  0  0  0  0
    7.5099  -35.4804  -16.5612 P   0  0  1  0  0  0  0  0  0  0  0  0
    3.2124  -35.4761  -12.4786 O   0  5  0  0  0  0  0  0  0  0  0  0
    7.0210  -34.1646  -17.1179 O   0  5  0  0  0  0  0  0  0  0  0  0
    2.9246  -33.1303  -13.5979 O   0  0  0  0  0  0  0  0  0  0  0  0
    8.8249  -36.0554  -17.0299 O   0  0  0  0  0  0  0  0  0  0  0  0
    3.2196  -36.1091  -15.3241 C   0  0  0  0  0  0  0  0  0  0  0  0
    8.3749  -34.3831  -14.3249 C   0  0  0  0  0  0  0  0  0  0  0  0
    4.0279  -35.0414  -14.8325 O   0  0  0  0  0  0  0  0  0  0  0  0
    7.5542  -35.3634  -14.9559 O   0  0  0  0  0  0  0  0  0  0  0  0
    4.0574  -37.0055  -16.2281 C   0  0  1  0  0  0  0  0  0  0  0  0
    7.5539  -33.6156  -13.2963 C   0  0  1  0  0  0  0  0  0  0  0  0
    3.2016  -37.7283  -17.1173 O   0  0  0  0  0  0  0  0  0  0  0  0
    8.1511  -32.3388  -13.0578 O   0  0  0  0  0  0  0  0  0  0  0  0
    5.0221  -36.1894  -17.0718 C   0  0  1  0  0  0  0  0  0  0  0  0
    6.1345  -33.3799  -13.7877 C   0  0  1  0  0  0  0  0  0  0  0  0
    6.3633  -36.5856  -16.8016 O   0  0  0  0  0  0  0  0  0  0  0  0
    5.2016  -33.9692  -12.8867 O   0  0  0  0  0  0  0  0  0  0  0  0
    4.6762  -36.4789  -18.5206 C   0  0  0  0  0  0  0  0  0  0  0  0
    5.9385  -31.8767  -13.8296 C   0  0  0  0  0  0  0  0  0  0  0  0
    3.5128  -37.4588  -18.4869 C   0  0  2  0  0  0  0  0  0  0  0  0
    7.2520  -31.2687  -13.3589 C   0  0  2  0  0  0  0  0  0  0  0  0
    0.1508  -33.4272  -18.6355 N   0  0  0  0  0  0  0  0  0  0  0  0
    1.1922  -33.6588  -17.8150 C   0  0  0  0  0  0  0  0  0  0  0  0
    1.9772  -34.7492  -17.8930 N   0  0  0  0  0  0  0  0  0  0  0  0
    1.7544  -35.7006  -18.8311 C   0  0  0  0  0  0  0  0  0  0  0  0
    0.6334  -35.5193  -19.7667 C   0  0  0  0  0  0  0  0  0  0  0  0
   -0.1860  -34.2932  -19.6173 C   0  0  0  0  0  0  0  0  0  0  0  0
   -1.2362  -34.0484  -20.4376 N   0  0  0  0  0  0  0  0  0  0  0  0
    0.6358  -36.5913  -20.5810 N   0  0  0  0  0  0  0  0  0  0  0  0
    1.6664  -37.3893  -20.2013 C   0  0  0  0  0  0  0  0  0  0  0  0
    2.3334  -36.8584  -19.1585 N   0  0  0  0  0  0  0  0  0  0  0  0
    9.9367  -26.9101  -14.5282 N   0  0  0  0  0  0  0  0  0  0  0  0
    9.5669  -27.4069  -13.3333 C   0  0  0  0  0  0  0  0  0  0  0  0
    8.8726  -28.5490  -13.1811 N   0  0  0  0  0  0  0  0  0  0  0  0
    8.4977  -29.2822  -14.2572 C   0  0  0  0  0  0  0  0  0  0  0  0
    8.8653  -28.8045  -15.5991 C   0  0  0  0  0  0  0  0  0  0  0  0
    9.6303  -27.5381  -15.6838 C   0  0  0  0  0  0  0  0  0  0  0  0
   10.0093  -27.0278  -16.8814 N   0  0  0  0  0  0  0  0  0  0  0  0
    8.3787  -29.7052  -16.4737 N   0  0  0  0  0  0  0  0  0  0  0  0
    7.7544  -30.6736  -15.7552 C   0  0  0  0  0  0  0  0  0  0  0  0
    7.8251  -30.4217  -14.4351 N   0  0  0  0  0  0  0  0  0  0  0  0
  1  3  1  1  0  0  0
  1  5  2  0  0  0  0
  1  9  1  0  0  0  0
  1 18  1  0  0  0  0
  2  4  1  6  0  0  0
  2  6  2  0  0  0  0
  2 10  1  0  0  0  0
  2 17  1  0  0  0  0
  7  9  1  0  0  0  0
  8 10  1  0  0  0  0
 11  7  1  1  0  0  0
 11 13  1  0  0  0  0
 11 15  1  0  0  0  0
 12  8  1  6  0  0  0
 12 14  1  0  0  0  0
 12 16  1  0  0  0  0
 13 21  1  0  0  0  0
 14 22  1  0  0  0  0
 15 17  1  6  0  0  0
 15 19  1  0  0  0  0
 16 18  1  1  0  0  0
 16 20  1  0  0  0  0
 19 21  1  0  0  0  0
 20 22  1  0  0  0  0
 21 32  1  1  0  0  0
 22 42  1  6  0  0  0
 23 24  2  0  0  0  0
 23 28  1  0  0  0  0
 24 25  1  0  0  0  0
 25 26  2  0  0  0  0
 26 27  1  0  0  0  0
 26 32  1  0  0  0  0
 27 28  2  0  0  0  0
 27 30  1  0  0  0  0
 28 29  1  0  0  0  0
 30 31  2  0  0  0  0
 31 32  1  0  0  0  0
 33 34  2  0  0  0  0
 33 38  1  0  0  0  0
 34 35  1  0  0  0  0
 35 36  2  0  0  0  0
 36 37  1  0  0  0  0
 36 42  1  0  0  0  0
 37 38  2  0  0  0  0
 37 40  1  0  0  0  0
 38 39  1  0  0  0  0
 40 41  2  0  0  0  0
 41 42  1  0  0  0  0
M  CHG  2   3  -1   4  -1
M  END
>  <CHROM.1>
61.67609249,-97.28710772,5.31803589,-33.64046526,-15.99810342,-2.66183841
-0.70409381,-0.34025567

>  <Name>
ligand

>  <RI>
0

>  <Rbt.Current_Directory>
/home/itssahil/PROJECTS/Mol_Feturizer/New_Systems/rnas/4QLN

>  <Rbt.Executable>
rbdock ($Id: //depot/dev/client3/rdock/2013.1/src/exe/rbdock.cxx#4 $)

>  <Rbt.Library>
libRbt.so (2013.1, Build901 2013/11/27)

>  <Rbt.Parameter_File>
/export/apps/rDock/src/rDock_2013.1_src/data/scripts/dock_solv.prm

>  <Rbt.Receptor>
prm/pocket_docking_2.prm

>  <SCORE>
-35.9048

>  <SCORE.INTER>
-36.2775

>  <SCORE.INTER.CONST>
1

>  <SCORE.INTER.POLAR>
0

>  <SCORE.INTER.ROT>
2

>  <SCORE.INTER.SOLV>
33.324

>  <SCORE.INTER.VDW>
-40.2264

>  <SCORE.INTER.norm>
-0.86375

>  <SCORE.INTRA>
0.372738

>  <SCORE.INTRA.DIHEDRAL>
-0.000525908

>  <SCORE.INTRA.DIHEDRAL.0>
2.39985

>  <SCORE.INTRA.POLAR>
0

>  <SCORE.INTRA.POLAR.0>
0

>  <SCORE.INTRA.REPUL>
0

>  <SCORE.INTRA.REPUL.0>
0

>  <SCORE.INTRA.SOLV>
-0.00935206

>  <SCORE.INTRA.SOLV.lig_0>
-110.958

>  <SCORE.INTRA.VDW>
0.377677

>  <SCORE.INTRA.VDW.0>
-2.34644

>  <SCORE.INTRA.norm>
0.00887472

>  <SCORE.RESTR>
0

>  <SCORE.RESTR.CAVITY>
0

>  <SCORE.RESTR.norm>
0

>  <SCORE.SYSTEM>
0

>  <SCORE.SYSTEM.CONST>
0

>  <SCORE.SYSTEM.DIHEDRAL>
0

>  <SCORE.SYSTEM.SOLV>
0

>  <SCORE.SYSTEM.norm>
0

>  <SCORE.heavy>
42

>  <SCORE.norm>
-0.854875

>  <RMSD>
0.855

$$$$
ligand
 OpenBabel11021811513D
libRbt.so/2013.1/901 2013/11/27
 42 48  0  0  0  0  0  0  0  0999 V2000
    3.7325  -34.4080  -13.3947 P   0  0  2  0  0  0  0  0  0  0  0  0
    7.5085  -35.4889  -16.5708 P   0  0  1  0  0  0  0  0  0  0  0  0
    3.2137  -35.4973  -12.4853 O   0  5  0  0  0  0  0  0  0  0  0  0
    7.0190  -34.1715  -17.1233 O   0  5  0  0  0  0  0  0  0  0  0  0
    2.9249  -33.1483  -13.5975 O   0  0  0  0  0  0  0  0  0  0  0  0
    8.8232  -36.0623  -17.0421 O   0  0  0  0  0  0  0  0  0  0  0  0
    3.2191  -36.1219  -15.3327 C   0  0  0  0  0  0  0  0  0  0  0  0
    8.3748  -34.3981  -14.3318 C   0  0  0  0  0  0  0  0  0  0  0  0
    4.0276  -35.0555  -14.8385 O   0  0  0  0  0  0  0  0  0  0  0  0
    7.5539  -35.3766  -14.9652 O   0  0  0  0  0  0  0  0  0  0  0  0
    4.0565  -37.0154  -16.2399 C   0  0  1  0  0  0  0  0  0  0  0  0
    7.5544  -33.6338  -13.3004 C   0  0  1  0  0  0  0  0  0  0  0  0
    3.2002  -37.7357  -17.1307 O   0  0  0  0  0  0  0  0  0  0  0  0
    8.1516  -32.3576  -13.0585 O   0  0  0  0  0  0  0  0  0  0  0  0
    5.0204  -36.1967  -17.0818 C   0  0  1  0  0  0  0  0  0  0  0  0
    6.1346  -33.3969  -13.7901 C   0  0  1  0  0  0  0  0  0  0  0  0
    6.3619  -36.5935  -16.8137 O   0  0  0  0  0  0  0  0  0  0  0  0
    5.2025  -33.9889  -12.8903 O   0  0  0  0  0  0  0  0  0  0  0  0
    4.6737  -36.4820  -18.5313 C   0  0  0  0  0  0  0  0  0  0  0  0
    5.9384  -31.8936  -13.8274 C   0  0  0  0  0  0  0  0  0  0  0  0
    3.5104  -37.4621  -18.4997 C   0  0  2  0  0  0  0  0  0  0  0  0
    7.2522  -31.2868  -13.3558 C   0  0  2  0  0  0  0  0  0  0  0  0
    0.1516  -33.4275  -18.6380 N   0  0  0  0  0  0  0  0  0  0  0  0
    1.1940  -33.6611  -17.8195 C   0  0  0  0  0  0  0  0  0  0  0  0
    1.9780  -34.7520  -17.9000 N   0  0  0  0  0  0  0  0  0  0  0  0
    1.7529  -35.7020  -18.8390 C   0  0  0  0  0  0  0  0  0  0  0  0
    0.6307  -35.5186  -19.7726 C   0  0  0  0  0  0  0  0  0  0  0  0
   -0.1875  -34.2921  -19.6204 C   0  0  0  0  0  0  0  0  0  0  0  0
   -1.2388  -34.0454  -20.4387 N   0  0  0  0  0  0  0  0  0  0  0  0
    0.6308  -36.5897  -20.5882 N   0  0  0  0  0  0  0  0  0  0  0  0
    1.6614  -37.3890  -20.2111 C   0  0  0  0  0  0  0  0  0  0  0  0
    2.3305  -36.8600  -19.1687 N   0  0  0  0  0  0  0  0  0  0  0  0
    9.9047  -26.9061  -14.5158 N   0  0  0  0  0  0  0  0  0  0  0  0
    9.5318  -27.4041  -13.3224 C   0  0  0  0  0  0  0  0  0  0  0  0
    8.8469  -28.5522  -13.1726 N   0  0  0  0  0  0  0  0  0  0  0  0
    8.4855  -29.2906  -14.2497 C   0  0  0  0  0  0  0  0  0  0  0  0
    8.8573  -28.8119  -15.5902 C   0  0  0  0  0  0  0  0  0  0  0  0
    9.6114  -27.5388  -15.6723 C   0  0  0  0  0  0  0  0  0  0  0  0
    9.9933  -27.0272  -16.8683 N   0  0  0  0  0  0  0  0  0  0  0  0
    8.3845  -29.7185  -16.4662 N   0  0  0  0  0  0  0  0  0  0  0  0
    7.7644  -30.6913  -15.7499 C   0  0  0  0  0  0  0  0  0  0  0  0
    7.8244  -30.4365  -14.4299 N   0  0  0  0  0  0  0  0  0  0  0  0
  1  3  1  1  0  0  0
  1  5  2  0  0  0  0
  1  9  1  0  0  0  0
  1 18  1  0  0  0  0
  2  4  1  6  0  0  0
  2  6  2  0  0  0  0
  2 10  1  0  0  0  0
  2 17  1  0  0  0  0
  7  9  1  0  0  0  0
  8 10  1  0  0  0  0
 11  7  1  1  0  0  0
 11 13  1  0  0  0  0
 11 15  1  0  0  0  0
 12  8  1  6  0  0  0
 12 14  1  0  0  0  0
 12 16  1  0  0  0  0
 13 21  1  0  0  0  0
 14 22  1  0  0  0  0
 15 17  1  6  0  0  0
 15 19  1  0  0  0  0
 16 18  1  1  0  0  0
 16 20  1  0  0  0  0
 19 21  1  0  0  0  0
 20 22  1  0  0  0  0
 21 32  1  1  0  0  0
 22 42  1  6  0  0  0
 23 24  2  0  0  0  0
 23 28  1  0  0  0  0
 24 25  1  0  0  0  0
 25 26  2  0  0  0  0
 26 27  1  0  0  0  0
 26 32  1  0  0  0  0
 27 28  2  0  0  0  0
 27 30  1  0  0  0  0
 28 29  1  0  0  0  0
 30 31  2  0  0  0  0
 31 32  1  0  0  0  0
 33 34  2  0  0  0  0
 33 38  1  0  0  0  0
 34 35  1  0  0  0  0
 35 36  2  0  0  0  0
 36 37  1  0  0  0  0
 36 42  1  0  0  0  0
 37 38  2  0  0  0  0
 37 40  1  0  0  0  0
 38 39  1  0  0  0  0
 40 41  2  0  0  0  0
 41 42  1  0  0  0  0
M  CHG  2   3  -1   4  -1
M  END
>  <CHROM.1>
61.80118985,-97.99131319,5.31453555,-33.64921087,-16.00123846,-2.65773111
-0.70322291,-0.33301796

>  <Name>
ligand

>  <RI>
0

>  <Rbt.Current_Directory>
/home/itssahil/PROJECTS/Mol_Feturizer/New_Systems/rnas/4QLN

>  <Rbt.Executable>
rbdock ($Id: //depot/dev/client3/rdock/2013.1/src/exe/rbdock.cxx#4 $)

>  <Rbt.Library>
libRbt.so (2013.1, Build901 2013/11/27)

>  <Rbt.Parameter_File>
/export/apps/rDock/src/rDock_2013.1_src/data/scripts/dock_solv.prm

>  <Rbt.Receptor>
prm/pocket_docking_2.prm

>  <SCORE>
-35.8907

>  <SCORE.INTER>
-36.2485

>  <SCORE.INTER.CONST>
1

>  <SCORE.INTER.POLAR>
0

>  <SCORE.INTER.ROT>
2

>  <SCORE.INTER.SOLV>
33.2624

>  <SCORE.INTER.VDW>
-40.1865

>  <SCORE.INTER.norm>
-0.86306

>  <SCORE.INTRA>
0.357766

>  <SCORE.INTRA.DIHEDRAL>
-0.000513382

>  <SCORE.INTRA.DIHEDRAL.0>
2.39985

>  <SCORE.INTRA.POLAR>
0

>  <SCORE.INTRA.POLAR.0>
0

>  <SCORE.INTRA.REPUL>
0

>  <SCORE.INTRA.REPUL.0>
0

>  <SCORE.INTRA.SOLV>
-0.00888423

>  <SCORE.INTRA.SOLV.lig_0>
-110.958

>  <SCORE.INTRA.VDW>
0.362465

>  <SCORE.INTRA.VDW.0>
-2.34644

>  <SCORE.INTRA.norm>
0.00851824

>  <SCORE.RESTR>
0

>  <SCORE.RESTR.CAVITY>
0

>  <SCORE.RESTR.norm>
0

>  <SCORE.SYSTEM>
0

>  <SCORE.SYSTEM.CONST>
0

>  <SCORE.SYSTEM.DIHEDRAL>
0

>  <SCORE.SYSTEM.SOLV>
0

>  <SCORE.SYSTEM.norm>
0

>  <SCORE.heavy>
42

>  <SCORE.norm>
-0.854541

>  <RMSD>
0.855

$$$$
ligand
 OpenBabel11021811513D
libRbt.so/2013.1/901 2013/11/27
 42 48  0  0  0  0  0  0  0  0999 V2000
    3.7279  -34.3843  -13.3922 P   0  0  2  0  0  0  0  0  0  0  0  0
    7.5092  -35.4852  -16.5551 P   0  0  1  0  0  0  0  0  0  0  0  0
    3.2057  -35.4687  -12.4788 O   0  5  0  0  0  0  0  0  0  0  0  0
    7.0227  -34.1698  -17.1148 O   0  5  0  0  0  0  0  0  0  0  0  0
    2.9224  -33.1246  -13.6026 O   0  0  0  0  0  0  0  0  0  0  0  0
    8.8242  -36.0626  -17.0209 O   0  0  0  0  0  0  0  0  0  0  0  0
    3.2163  -36.1067  -15.3231 C   0  0  0  0  0  0  0  0  0  0  0  0
    8.3722  -34.3850  -14.3194 C   0  0  0  0  0  0  0  0  0  0  0  0
    4.0252  -35.0391  -14.8323 O   0  0  0  0  0  0  0  0  0  0  0  0
    7.5513  -35.3654  -14.9500 O   0  0  0  0  0  0  0  0  0  0  0  0
    4.0544  -37.0056  -16.2244 C   0  0  1  0  0  0  0  0  0  0  0  0
    7.5506  -33.6147  -13.2934 C   0  0  1  0  0  0  0  0  0  0  0  0
    3.1990  -37.7290  -17.1135 O   0  0  0  0  0  0  0  0  0  0  0  0
    8.1490  -32.3383  -13.0562 O   0  0  0  0  0  0  0  0  0  0  0  0
    5.0213  -36.1921  -17.0681 C   0  0  1  0  0  0  0  0  0  0  0  0
    6.1322  -33.3783  -13.7872 C   0  0  1  0  0  0  0  0  0  0  0  0
    6.3616  -36.5895  -16.7952 O   0  0  0  0  0  0  0  0  0  0  0  0
    5.1974  -33.9648  -12.8866 O   0  0  0  0  0  0  0  0  0  0  0  0
    4.6772  -36.4839  -18.5169 C   0  0  0  0  0  0  0  0  0  0  0  0
    5.9380  -31.8750  -13.8321 C   0  0  0  0  0  0  0  0  0  0  0  0
    3.5125  -37.4622  -18.4831 C   0  0  2  0  0  0  0  0  0  0  0  0
    7.2516  -31.2677  -13.3605 C   0  0  2  0  0  0  0  0  0  0  0  0
    0.1505  -33.4310  -18.6385 N   0  0  0  0  0  0  0  0  0  0  0  0
    1.1898  -33.6629  -17.8154 C   0  0  0  0  0  0  0  0  0  0  0  0
    1.9751  -34.7531  -17.8919 N   0  0  0  0  0  0  0  0  0  0  0  0
    1.7549  -35.7041  -18.8311 C   0  0  0  0  0  0  0  0  0  0  0  0
    0.6363  -35.5224  -19.7695 C   0  0  0  0  0  0  0  0  0  0  0  0
   -0.1836  -34.2965  -19.6216 C   0  0  0  0  0  0  0  0  0  0  0  0
   -1.2317  -34.0515  -20.4445 N   0  0  0  0  0  0  0  0  0  0  0  0
    0.6409  -36.5941  -20.5843 N   0  0  0  0  0  0  0  0  0  0  0  0
    1.6706  -37.3922  -20.2024 C   0  0  0  0  0  0  0  0  0  0  0  0
    2.3349  -36.8617  -19.1575 N   0  0  0  0  0  0  0  0  0  0  0  0
    9.9218  -26.9015  -14.5349 N   0  0  0  0  0  0  0  0  0  0  0  0
    9.5469  -27.3941  -13.3399 C   0  0  0  0  0  0  0  0  0  0  0  0
    8.8574  -28.5389  -13.1863 N   0  0  0  0  0  0  0  0  0  0  0  0
    8.4931  -29.2794  -14.2610 C   0  0  0  0  0  0  0  0  0  0  0  0
    8.8667  -28.8067  -15.6030 C   0  0  0  0  0  0  0  0  0  0  0  0
    9.6259  -27.5368  -15.6893 C   0  0  0  0  0  0  0  0  0  0  0  0
   10.0099  -27.0307  -16.8870 N   0  0  0  0  0  0  0  0  0  0  0  0
    8.3903  -29.7142  -16.4760 N   0  0  0  0  0  0  0  0  0  0  0  0
    7.7663  -30.6822  -15.7566 C   0  0  0  0  0  0  0  0  0  0  0  0
    7.8273  -30.4232  -14.4374 N   0  0  0  0  0  0  0  0  0  0  0  0
  1  3  1  1  0  0  0
  1  5  2  0  0  0  0
  1  9  1  0  0  0  0
  1 18  1  0  0  0  0
  2  4  1  6  0  0  0
  2  6  2  0  0  0  0
  2 10  1  0  0  0  0
  2 17  1  0  0  0  0
  7  9  1  0  0  0  0
  8 10  1  0  0  0  0
 11  7  1  6  0  0  0
 11 13  1  0  0  0  0
 11 15  1  0  0  0  0
 12  8  1  6  0  0  0
 12 14  1  0  0  0  0
 12 16  1  0  0  0  0
 13 21  1  0  0  0  0
 14 22  1  0  0  0  0
 15 17  1  1  0  0  0
 15 19  1  0  0  0  0
 16 18  1  1  0  0  0
 16 20  1  0  0  0  0
 19 21  1  0  0  0  0
 20 22  1  0  0  0  0
 21 32  1  1  0  0  0
 22 42  1  6  0  0  0
 23 24  2  0  0  0  0
 23 28  1  0  0  0  0
 24 25  1  0  0  0  0
 25 26  2  0  0  0  0
 26 27  1  0  0  0  0
 26 32  1  0  0  0  0
 27 28  2  0  0  0  0
 27 30  1  0  0  0  0
 28 29  1  0  0  0  0
 30 31  2  0  0  0  0
 31 32  1  0  0  0  0
 33 34  2  0  0  0  0
 33 38  1  0  0  0  0
 34 35  1  0  0  0  0
 35 36  2  0  0  0  0
 36 37  1  0  0  0  0
 36 42  1  0  0  0  0
 37 38  2  0  0  0  0
 37 40  1  0  0  0  0
 38 39  1  0  0  0  0
 40 41  2  0  0  0  0
 41 42  1  0  0  0  0
M  CHG  2   3  -1   4  -1
M  END
>  <CHROM.1>
61.51304069,-97.77808476,5.31651860,-33.64101972,-15.99809178,-2.66047724
-0.70404837,-0.33926094

>  <Name>
ligand

>  <RI>
0

>  <Rbt.Current_Directory>
/home/itssahil/PROJECTS/Mol_Feturizer/New_Systems/rnas/4QLN

>  <Rbt.Executable>
rbdock ($Id: //depot/dev/client3/rdock/2013.1/src/exe/rbdock.cxx#4 $)

>  <Rbt.Library>
libRbt.so (2013.1, Build901 2013/11/27)

>  <Rbt.Parameter_File>
/export/apps/rDock/src/rDock_2013.1_src/data/scripts/dock_solv.prm

>  <Rbt.Receptor>
prm/pocket_docking_2.prm

>  <SCORE>
-35.8607

>  <SCORE.INTER>
-36.2199

>  <SCORE.INTER.CONST>
1

>  <SCORE.INTER.POLAR>
0

>  <SCORE.INTER.ROT>
2

>  <SCORE.INTER.SOLV>
33.3245

>  <SCORE.INTER.VDW>
-40.1881

>  <SCORE.INTER.norm>
-0.862379

>  <SCORE.INTRA>
0.35917

>  <SCORE.INTRA.DIHEDRAL>
-0.000520689

>  <SCORE.INTRA.DIHEDRAL.0>
2.39985

>  <SCORE.INTRA.POLAR>
0

>  <SCORE.INTRA.POLAR.0>
0

>  <SCORE.INTRA.REPUL>
0

>  <SCORE.INTRA.REPUL.0>
0

>  <SCORE.INTRA.SOLV>
-0.00878583

>  <SCORE.INTRA.SOLV.lig_0>
-110.958

>  <SCORE.INTRA.VDW>
0.363823

>  <SCORE.INTRA.VDW.0>
-2.34644

>  <SCORE.INTRA.norm>
0.00855167

>  <SCORE.RESTR>
0

>  <SCORE.RESTR.CAVITY>
0

>  <SCORE.RESTR.norm>
0

>  <SCORE.SYSTEM>
0

>  <SCORE.SYSTEM.CONST>
0

>  <SCORE.SYSTEM.DIHEDRAL>
0

>  <SCORE.SYSTEM.SOLV>
0

>  <SCORE.SYSTEM.norm>
0

>  <SCORE.heavy>
42

>  <SCORE.norm>
-0.853827

>  <RMSD>
0.855

$$$$
ligand
 OpenBabel11021811513D
libRbt.so/2013.1/901 2013/11/27
 42 48  0  0  0  0  0  0  0  0999 V2000
    3.7436  -34.3821  -13.3990 P   0  0  2  0  0  0  0  0  0  0  0  0
    7.5125  -35.4760  -16.5791 P   0  0  1  0  0  0  0  0  0  0  0  0
    3.2218  -35.4699  -12.4893 O   0  5  0  0  0  0  0  0  0  0  0  0
    7.0273  -34.1566  -17.1307 O   0  5  0  0  0  0  0  0  0  0  0  0
    2.9404  -33.1195  -13.6006 O   0  0  0  0  0  0  0  0  0  0  0  0
    8.8247  -36.0541  -17.0519 O   0  0  0  0  0  0  0  0  0  0  0  0
    3.2221  -36.0937  -15.3369 C   0  0  0  0  0  0  0  0  0  0  0  0
    8.3850  -34.3890  -14.3407 C   0  0  0  0  0  0  0  0  0  0  0  0
    4.0349  -35.0304  -14.8432 O   0  0  0  0  0  0  0  0  0  0  0  0
    7.5599  -35.3643  -14.9735 O   0  0  0  0  0  0  0  0  0  0  0  0
    4.0552  -36.9900  -16.2452 C   0  0  1  0  0  0  0  0  0  0  0  0
    7.5684  -33.6220  -13.3083 C   0  0  1  0  0  0  0  0  0  0  0  0
    3.1954  -37.7069  -17.1353 O   0  0  0  0  0  0  0  0  0  0  0  0
    8.1705  -32.3481  -13.0666 O   0  0  0  0  0  0  0  0  0  0  0  0
    5.0214  -36.1746  -17.0879 C   0  0  1  0  0  0  0  0  0  0  0  0
    6.1490  -33.3797  -13.7965 C   0  0  1  0  0  0  0  0  0  0  0  0
    6.3616  -36.5764  -16.8212 O   0  0  0  0  0  0  0  0  0  0  0  0
    5.2156  -33.9686  -12.8959 O   0  0  0  0  0  0  0  0  0  0  0  0
    4.6721  -36.4582  -18.5370 C   0  0  0  0  0  0  0  0  0  0  0  0
    5.9583  -31.8758  -13.8332 C   0  0  0  0  0  0  0  0  0  0  0  0
    3.5053  -37.4341  -18.5045 C   0  0  2  0  0  0  0  0  0  0  0  0
    7.2747  -31.2739  -13.3627 C   0  0  2  0  0  0  0  0  0  0  0  0
    0.2041  -33.3539  -18.6840 N   0  0  0  0  0  0  0  0  0  0  0  0
    1.2520  -33.5871  -17.8724 C   0  0  0  0  0  0  0  0  0  0  0  0
    2.0191  -34.6908  -17.9404 N   0  0  0  0  0  0  0  0  0  0  0  0
    1.7699  -35.6551  -18.8586 C   0  0  0  0  0  0  0  0  0  0  0  0
    0.6402  -35.4729  -19.7834 C   0  0  0  0  0  0  0  0  0  0  0  0
   -0.1584  -34.2318  -19.6459 C   0  0  0  0  0  0  0  0  0  0  0  0
   -1.2149  -33.9853  -20.4574 N   0  0  0  0  0  0  0  0  0  0  0  0
    0.6158  -36.5591  -20.5783 N   0  0  0  0  0  0  0  0  0  0  0  0
    1.6387  -37.3663  -20.1971 C   0  0  0  0  0  0  0  0  0  0  0  0
    2.3269  -36.8274  -19.1722 N   0  0  0  0  0  0  0  0  0  0  0  0
    9.9074  -26.8822  -14.5267 N   0  0  0  0  0  0  0  0  0  0  0  0
    9.5293  -27.3766  -13.3334 C   0  0  0  0  0  0  0  0  0  0  0  0
    8.8507  -28.5283  -13.1824 N   0  0  0  0  0  0  0  0  0  0  0  0
    8.5016  -29.2744  -14.2583 C   0  0  0  0  0  0  0  0  0  0  0  0
    8.8796  -28.8002  -15.5985 C   0  0  0  0  0  0  0  0  0  0  0  0
    9.6261  -27.5227  -15.6819 C   0  0  0  0  0  0  0  0  0  0  0  0
   10.0131  -27.0147  -16.8779 N   0  0  0  0  0  0  0  0  0  0  0  0
    8.4186  -29.7142  -16.4732 N   0  0  0  0  0  0  0  0  0  0  0  0
    7.7998  -30.6873  -15.7562 C   0  0  0  0  0  0  0  0  0  0  0  0
    7.8490  -30.4254  -14.4372 N   0  0  0  0  0  0  0  0  0  0  0  0
  1  3  1  1  0  0  0
  1  5  2  0  0  0  0
  1  9  1  0  0  0  0
  1 18  1  0  0  0  0
  2  4  1  6  0  0  0
  2  6  2  0  0  0  0
  2 10  1  0  0  0  0
  2 17  1  0  0  0  0
  7  9  1  0  0  0  0
  8 10  1  0  0  0  0
 11  7  1  1  0  0  0
 11 13  1  0  0  0  0
 11 15  1  0  0  0  0
 12  8  1  6  0  0  0
 12 14  1  0  0  0  0
 12 16  1  0  0  0  0
 13 21  1  0  0  0  0
 14 22  1  0  0  0  0
 15 17  1  6  0  0  0
 15 19  1  0  0  0  0
 16 18  1  1  0  0  0
 16 20  1  0  0  0  0
 19 21  1  0  0  0  0
 20 22  1  0  0  0  0
 21 32  1  1  0  0  0
 22 42  1  6  0  0  0
 23 24  2  0  0  0  0
 23 28  1  0  0  0  0
 24 25  1  0  0  0  0
 25 26  2  0  0  0  0
 26 27  1  0  0  0  0
 26 32  1  0  0  0  0
 27 28  2  0  0  0  0
 27 30  1  0  0  0  0
 28 29  1  0  0  0  0
 30 31  2  0  0  0  0
 31 32  1  0  0  0  0
 33 34  2  0  0  0  0
 33 38  1  0  0  0  0
 34 35  1  0  0  0  0
 35 36  2  0  0  0  0
 36 37  1  0  0  0  0
 36 42  1  0  0  0  0
 37 38  2  0  0  0  0
 37 40  1  0  0  0  0
 38 39  1  0  0  0  0
 40 41  2  0  0  0  0
 41 42  1  0  0  0  0
M  CHG  2   3  -1   4  -1
M  END
>  <CHROM.1>
63.19607549,-98.78511595,5.32651789,-33.62406634,-16.01081587,-2.66249591
-0.70499917,-0.33785295

>  <Name>
ligand

>  <RI>
0

>  <Rbt.Current_Directory>
/home/itssahil/PROJECTS/Mol_Feturizer/New_Systems/rnas/4QLN

>  <Rbt.Executable>
rbdock ($Id: //depot/dev/client3/rdock/2013.1/src/exe/rbdock.cxx#4 $)

>  <Rbt.Library>
libRbt.so (2013.1, Build901 2013/11/27)

>  <Rbt.Parameter_File>
/export/apps/rDock/src/rDock_2013.1_src/data/scripts/dock_solv.prm

>  <Rbt.Receptor>
prm/pocket_docking_7.prm

>  <SCORE>
-35.7757

>  <SCORE.INTER>
-36.1352

>  <SCORE.INTER.CONST>
1

>  <SCORE.INTER.POLAR>
0

>  <SCORE.INTER.ROT>
2

>  <SCORE.INTER.SOLV>
33.4243

>  <SCORE.INTER.VDW>
-40.1649

>  <SCORE.INTER.norm>
-0.860362

>  <SCORE.INTRA>
0.359491

>  <SCORE.INTRA.DIHEDRAL>
-0.000481125

>  <SCORE.INTRA.DIHEDRAL.0>
2.39985

>  <SCORE.INTRA.POLAR>
0

>  <SCORE.INTRA.POLAR.0>
0

>  <SCORE.INTRA.REPUL>
0

>  <SCORE.INTRA.REPUL.0>
0

>  <SCORE.INTRA.SOLV>
-0.00959428

>  <SCORE.INTRA.SOLV.lig_0>
-110.958

>  <SCORE.INTRA.VDW>
0.364528

>  <SCORE.INTRA.VDW.0>
-2.34644

>  <SCORE.INTRA.norm>
0.0085593

>  <SCORE.RESTR>
0

>  <SCORE.RESTR.CAVITY>
0

>  <SCORE.RESTR.norm>
0

>  <SCORE.SYSTEM>
0

>  <SCORE.SYSTEM.CONST>
0

>  <SCORE.SYSTEM.DIHEDRAL>
0

>  <SCORE.SYSTEM.SOLV>
0

>  <SCORE.SYSTEM.norm>
0

>  <SCORE.heavy>
42

>  <SCORE.norm>
-0.851802

>  <RMSD>
0.857

$$$$
ligand
 OpenBabel11021811513D
libRbt.so/2013.1/901 2013/11/27
 42 48  0  0  0  0  0  0  0  0999 V2000
    3.7283  -34.3990  -13.3926 P   0  0  2  0  0  0  0  0  0  0  0  0
    7.5052  -35.4855  -16.5657 P   0  0  1  0  0  0  0  0  0  0  0  0
    3.2094  -35.4868  -12.4812 O   0  5  0  0  0  0  0  0  0  0  0  0
    7.0157  -34.1692  -17.1208 O   0  5  0  0  0  0  0  0  0  0  0  0
    2.9205  -33.1400  -13.5980 O   0  0  0  0  0  0  0  0  0  0  0  0
    8.8202  -36.0597  -17.0356 O   0  0  0  0  0  0  0  0  0  0  0  0
    3.2156  -36.1168  -15.3274 C   0  0  0  0  0  0  0  0  0  0  0  0
    8.3708  -34.3903  -14.3286 C   0  0  0  0  0  0  0  0  0  0  0  0
    4.0238  -35.0494  -14.8351 O   0  0  0  0  0  0  0  0  0  0  0  0
    7.5502  -35.3702  -14.9603 O   0  0  0  0  0  0  0  0  0  0  0  0
    4.0533  -37.0120  -16.2327 C   0  0  1  0  0  0  0  0  0  0  0  0
    7.5500  -33.6241  -13.2989 C   0  0  1  0  0  0  0  0  0  0  0  0
    3.1973  -37.7341  -17.1223 O   0  0  0  0  0  0  0  0  0  0  0  0
    8.1470  -32.3474  -13.0592 O   0  0  0  0  0  0  0  0  0  0  0  0
    5.0174  -36.1947  -17.0760 C   0  0  1  0  0  0  0  0  0  0  0  0
    6.1303  -33.3884  -13.7893 C   0  0  1  0  0  0  0  0  0  0  0  0
    6.3589  -36.5908  -16.8067 O   0  0  0  0  0  0  0  0  0  0  0  0
    5.1981  -33.9788  -12.8886 O   0  0  0  0  0  0  0  0  0  0  0  0
    4.6710  -36.4828  -18.5249 C   0  0  0  0  0  0  0  0  0  0  0  0
    5.9339  -31.8852  -13.8296 C   0  0  0  0  0  0  0  0  0  0  0  0
    3.5079  -37.4630  -18.4917 C   0  0  2  0  0  0  0  0  0  0  0  0
    7.2475  -31.2773  -13.3588 C   0  0  2  0  0  0  0  0  0  0  0  0
    0.1516  -33.4268  -18.6419 N   0  0  0  0  0  0  0  0  0  0  0  0
    1.1942  -33.6583  -17.8231 C   0  0  0  0  0  0  0  0  0  0  0  0
    1.9775  -34.7499  -17.9004 N   0  0  0  0  0  0  0  0  0  0  0  0
    1.7514  -35.7030  -18.8361 C   0  0  0  0  0  0  0  0  0  0  0  0
    0.6288  -35.5219  -19.7698 C   0  0  0  0  0  0  0  0  0  0  0  0
   -0.1885  -34.2944  -19.6213 C   0  0  0  0  0  0  0  0  0  0  0  0
   -1.2400  -34.0497  -20.4399 N   0  0  0  0  0  0  0  0  0  0  0  0
    0.6279  -36.5956  -20.5818 N   0  0  0  0  0  0  0  0  0  0  0  0
    1.6581  -37.3944  -20.2026 C   0  0  0  0  0  0  0  0  0  0  0  0
    2.3281  -36.8624  -19.1622 N   0  0  0  0  0  0  0  0  0  0  0  0
    9.9341  -26.9188  -14.5244 N   0  0  0  0  0  0  0  0  0  0  0  0
    9.5654  -27.4173  -13.3298 C   0  0  0  0  0  0  0  0  0  0  0  0
    8.8704  -28.5591  -13.1786 N   0  0  0  0  0  0  0  0  0  0  0  0
    8.4936  -29.2902  -14.2554 C   0  0  0  0  0  0  0  0  0  0  0  0
    8.8598  -28.8107  -15.5971 C   0  0  0  0  0  0  0  0  0  0  0  0
    9.6257  -27.5447  -15.6807 C   0  0  0  0  0  0  0  0  0  0  0  0
   10.0035  -27.0328  -16.8779 N   0  0  0  0  0  0  0  0  0  0  0  0
    8.3715  -29.7096  -16.4725 N   0  0  0  0  0  0  0  0  0  0  0  0
    7.7473  -30.6787  -15.7547 C   0  0  0  0  0  0  0  0  0  0  0  0
    7.8199  -30.4290  -14.4344 N   0  0  0  0  0  0  0  0  0  0  0  0
  1  3  1  1  0  0  0
  1  5  2  0  0  0  0
  1  9  1  0  0  0  0
  1 18  1  0  0  0  0
  2  4  1  6  0  0  0
  2  6  2  0  0  0  0
  2 10  1  0  0  0  0
  2 17  1  0  0  0  0
  7  9  1  0  0  0  0
  8 10  1  0  0  0  0
 11  7  1  1  0  0  0
 11 13  1  0  0  0  0
 11 15  1  0  0  0  0
 12  8  1  6  0  0  0
 12 14  1  0  0  0  0
 12 16  1  0  0  0  0
 13 21  1  0  0  0  0
 14 22  1  0  0  0  0
 15 17  1  6  0  0  0
 15 19  1  0  0  0  0
 16 18  1  1  0  0  0
 16 20  1  0  0  0  0
 19 21  1  0  0  0  0
 20 22  1  0  0  0  0
 21 32  1  1  0  0  0
 22 42  1  6  0  0  0
 23 24  2  0  0  0  0
 23 28  1  0  0  0  0
 24 25  1  0  0  0  0
 25 26  2  0  0  0  0
 26 27  1  0  0  0  0
 26 32  1  0  0  0  0
 27 28  2  0  0  0  0
 27 30  1  0  0  0  0
 28 29  1  0  0  0  0
 30 31  2  0  0  0  0
 31 32  1  0  0  0  0
 33 34  2  0  0  0  0
 33 38  1  0  0  0  0
 34 35  1  0  0  0  0
 35 36  2  0  0  0  0
 36 37  1  0  0  0  0
 36 42  1  0  0  0  0
 37 38  2  0  0  0  0
 37 40  1  0  0  0  0
 38 39  1  0  0  0  0
 40 41  2  0  0  0  0
 41 42  1  0  0  0  0
M  CHG  2   3  -1   4  -1
M  END
>  <CHROM.1>
61.90046356,-97.20238912,5.31393022,-33.64655813,-16.00026997,-2.66260763
-0.70461784,-0.34059826

>  <Name>
ligand

>  <RI>
0

>  <Rbt.Current_Directory>
/home/itssahil/PROJECTS/Mol_Feturizer/New_Systems/rnas/4QLN

>  <Rbt.Executable>
rbdock ($Id: //depot/dev/client3/rdock/2013.1/src/exe/rbdock.cxx#4 $)

>  <Rbt.Library>
libRbt.so (2013.1, Build901 2013/11/27)

>  <Rbt.Parameter_File>
/export/apps/rDock/src/rDock_2013.1_src/data/scripts/dock_solv.prm

>  <Rbt.Receptor>
prm/pocket_docking_5.prm

>  <SCORE>
-35.9053

>  <SCORE.INTER>
-36.2829

>  <SCORE.INTER.CONST>
1

>  <SCORE.INTER.POLAR>
0

>  <SCORE.INTER.ROT>
2

>  <SCORE.INTER.SOLV>
33.3219

>  <SCORE.INTER.VDW>
-40.2292

>  <SCORE.INTER.norm>
-0.863878

>  <SCORE.INTRA>
0.377611

>  <SCORE.INTRA.DIHEDRAL>
-0.000524086

>  <SCORE.INTRA.DIHEDRAL.0>
2.39985

>  <SCORE.INTRA.POLAR>
0

>  <SCORE.INTRA.POLAR.0>
0

>  <SCORE.INTRA.REPUL>
0

>  <SCORE.INTRA.REPUL.0>
0

>  <SCORE.INTRA.SOLV>
-0.00963621

>  <SCORE.INTRA.SOLV.lig_0>
-110.958

>  <SCORE.INTRA.VDW>
0.382691

>  <SCORE.INTRA.VDW.0>
-2.34644

>  <SCORE.INTRA.norm>
0.00899074

>  <SCORE.RESTR>
0

>  <SCORE.RESTR.CAVITY>
0

>  <SCORE.RESTR.norm>
0

>  <SCORE.SYSTEM>
0

>  <SCORE.SYSTEM.CONST>
0

>  <SCORE.SYSTEM.DIHEDRAL>
0

>  <SCORE.SYSTEM.SOLV>
0

>  <SCORE.SYSTEM.norm>
0

>  <SCORE.heavy>
42

>  <SCORE.norm>
-0.854888

>  <RMSD>
0.858

$$$$
ligand
 OpenBabel11021811513D
libRbt.so/2013.1/901 2013/11/27
 42 48  0  0  0  0  0  0  0  0999 V2000
    3.8236  -34.3918  -13.4470 P   0  0  2  0  0  0  0  0  0  0  0  0
    7.5671  -35.4213  -16.6781 P   0  0  1  0  0  0  0  0  0  0  0  0
    3.3212  -35.4929  -12.5424 O   0  5  0  0  0  0  0  0  0  0  0  0
    7.0644  -34.1011  -17.2116 O   0  5  0  0  0  0  0  0  0  0  0  0
    3.0071  -33.1346  -13.6276 O   0  0  0  0  0  0  0  0  0  0  0  0
    8.8791  -35.9831  -17.1706 O   0  0  0  0  0  0  0  0  0  0  0  0
    3.2961  -36.0892  -15.3957 C   0  0  0  0  0  0  0  0  0  0  0  0
    8.4543  -34.3482  -14.4387 C   0  0  0  0  0  0  0  0  0  0  0  0
    4.1048  -35.0235  -14.9005 O   0  0  0  0  0  0  0  0  0  0  0  0
    7.6310  -35.3247  -15.0721 O   0  0  0  0  0  0  0  0  0  0  0  0
    4.1272  -36.9693  -16.3217 C   0  0  1  0  0  0  0  0  0  0  0  0
    7.6422  -33.5985  -13.3902 C   0  0  1  0  0  0  0  0  0  0  0  0
    3.2641  -37.6852  -17.2094 O   0  0  0  0  0  0  0  0  0  0  0  0
    8.2357  -32.3216  -13.1426 O   0  0  0  0  0  0  0  0  0  0  0  0
    5.0769  -36.1372  -17.1667 C   0  0  1  0  0  0  0  0  0  0  0  0
    6.2156  -33.3642  -13.8606 C   0  0  1  0  0  0  0  0  0  0  0  0
    6.4234  -36.5295  -16.9184 O   0  0  0  0  0  0  0  0  0  0  0  0
    5.2972  -33.9701  -12.9558 O   0  0  0  0  0  0  0  0  0  0  0  0
    4.7144  -36.4099  -18.6147 C   0  0  0  0  0  0  0  0  0  0  0  0
    6.0111  -31.8617  -13.8807 C   0  0  0  0  0  0  0  0  0  0  0  0
    3.5566  -37.3964  -18.5791 C   0  0  2  0  0  0  0  0  0  0  0  0
    7.3273  -31.2527  -13.4186 C   0  0  2  0  0  0  0  0  0  0  0  0
    0.2058  -33.3539  -18.6701 N   0  0  0  0  0  0  0  0  0  0  0  0
    1.2629  -33.5869  -17.8705 C   0  0  0  0  0  0  0  0  0  0  0  0
    2.0425  -34.6801  -17.9615 N   0  0  0  0  0  0  0  0  0  0  0  0
    1.7974  -35.6332  -18.8922 C   0  0  0  0  0  0  0  0  0  0  0  0
    0.6582  -35.4507  -19.8052 C   0  0  0  0  0  0  0  0  0  0  0  0
   -0.1540  -34.2214  -19.6425 C   0  0  0  0  0  0  0  0  0  0  0  0
   -1.2199  -33.9753  -20.4417 N   0  0  0  0  0  0  0  0  0  0  0  0
    0.6403  -36.5249  -20.6164 N   0  0  0  0  0  0  0  0  0  0  0  0
    1.6758  -37.3254  -20.2557 C   0  0  0  0  0  0  0  0  0  0  0  0
    2.3658  -36.7939  -19.2282 N   0  0  0  0  0  0  0  0  0  0  0  0
    9.9303  -26.8393  -14.5668 N   0  0  0  0  0  0  0  0  0  0  0  0
    9.5725  -27.3501  -13.3742 C   0  0  0  0  0  0  0  0  0  0  0  0
    8.8992  -28.5055  -13.2275 N   0  0  0  0  0  0  0  0  0  0  0  0
    8.5348  -29.2385  -14.3073 C   0  0  0  0  0  0  0  0  0  0  0  0
    8.8904  -28.7459  -15.6471 C   0  0  0  0  0  0  0  0  0  0  0  0
    9.6323  -27.4654  -15.7257 C   0  0  0  0  0  0  0  0  0  0  0  0
    9.9990  -26.9409  -16.9209 N   0  0  0  0  0  0  0  0  0  0  0  0
    8.4179  -29.6497  -16.5262 N   0  0  0  0  0  0  0  0  0  0  0  0
    7.8129  -30.6337  -15.8123 C   0  0  0  0  0  0  0  0  0  0  0  0
    7.8823  -30.3888  -14.4908 N   0  0  0  0  0  0  0  0  0  0  0  0
  1  3  1  1  0  0  0
  1  5  2  0  0  0  0
  1  9  1  0  0  0  0
  1 18  1  0  0  0  0
  2  4  1  6  0  0  0
  2  6  2  0  0  0  0
  2 10  1  0  0  0  0
  2 17  1  0  0  0  0
  7  9  1  0  0  0  0
  8 10  1  0  0  0  0
 11  7  1  1  0  0  0
 11 13  1  0  0  0  0
 11 15  1  0  0  0  0
 12  8  1  6  0  0  0
 12 14  1  0  0  0  0
 12 16  1  0  0  0  0
 13 21  1  0  0  0  0
 14 22  1  0  0  0  0
 15 17  1  6  0  0  0
 15 19  1  0  0  0  0
 16 18  1  1  0  0  0
 16 20  1  0  0  0  0
 19 21  1  0  0  0  0
 20 22  1  0  0  0  0
 21 32  1  1  0  0  0
 22 42  1  6  0  0  0
 23 24  2  0  0  0  0
 23 28  1  0  0  0  0
 24 25  1  0  0  0  0
 25 26  2  0  0  0  0
 26 27  1  0  0  0  0
 26 32  1  0  0  0  0
 27 28  2  0  0  0  0
 27 30  1  0  0  0  0
 28 29  1  0  0  0  0
 30 31  2  0  0  0  0
 31 32  1  0  0  0  0
 33 34  2  0  0  0  0
 33 38  1  0  0  0  0
 34 35  1  0  0  0  0
 35 36  2  0  0  0  0
 36 37  1  0  0  0  0
 36 42  1  0  0  0  0
 37 38  2  0  0  0  0
 37 40  1  0  0  0  0
 38 39  1  0  0  0  0
 40 41  2  0  0  0  0
 41 42  1  0  0  0  0
M  CHG  2   3  -1   4  -1
M  END
>  <CHROM.1>
62.79692788,-98.28592465,5.37202674,-33.59635755,-16.06706669,-2.64829118
-0.69674711,-0.31916588

>  <Name>
ligand

>  <RI>
0

>  <Rbt.Current_Directory>
/home/itssahil/PROJECTS/Mol_Feturizer/New_Systems/rnas/4QLN

>  <Rbt.Executable>
rbdock ($Id: //depot/dev/client3/rdock/2013.1/src/exe/rbdock.cxx#4 $)

>  <Rbt.Library>
libRbt.so (2013.1, Build901 2013/11/27)

>  <Rbt.Parameter_File>
/export/apps/rDock/src/rDock_2013.1_src/data/scripts/dock_solv.prm

>  <Rbt.Receptor>
prm/pocket_docking_4.prm

>  <SCORE>
-35.8451

>  <SCORE.INTER>
-36.21

>  <SCORE.INTER.CONST>
1

>  <SCORE.INTER.POLAR>
0

>  <SCORE.INTER.ROT>
2

>  <SCORE.INTER.SOLV>
33.7064

>  <SCORE.INTER.VDW>
-40.3088

>  <SCORE.INTER.norm>
-0.862142

>  <SCORE.INTRA>
0.364852

>  <SCORE.INTRA.DIHEDRAL>
-0.000495037

>  <SCORE.INTRA.DIHEDRAL.0>
2.39985

>  <SCORE.INTRA.POLAR>
0

>  <SCORE.INTRA.POLAR.0>
0

>  <SCORE.INTRA.REPUL>
0

>  <SCORE.INTRA.REPUL.0>
0

>  <SCORE.INTRA.SOLV>
-0.00958782

>  <SCORE.INTRA.SOLV.lig_0>
-110.958

>  <SCORE.INTRA.VDW>
0.369893

>  <SCORE.INTRA.VDW.0>
-2.34644

>  <SCORE.INTRA.norm>
0.00868695

>  <SCORE.RESTR>
0

>  <SCORE.RESTR.CAVITY>
0

>  <SCORE.RESTR.norm>
0

>  <SCORE.SYSTEM>
0

>  <SCORE.SYSTEM.CONST>
0

>  <SCORE.SYSTEM.DIHEDRAL>
0

>  <SCORE.SYSTEM.SOLV>
0

>  <SCORE.SYSTEM.norm>
0

>  <SCORE.heavy>
42

>  <SCORE.norm>
-0.853455

>  <RMSD>
0.860

$$$$
ligand
 OpenBabel11021811513D
libRbt.so/2013.1/901 2013/11/27
 42 48  0  0  0  0  0  0  0  0999 V2000
    7.2992  -36.4921  -16.0849 P   0  0  2  0  0  0  0  0  0  0  0  0
    3.2107  -34.1081  -14.3200 P   0  0  1  0  0  0  0  0  0  0  0  0
    8.2667  -37.1028  -15.0980 O   0  5  0  0  0  0  0  0  0  0  0  0
    3.2268  -33.6515  -15.7594 O   0  5  0  0  0  0  0  0  0  0  0  0
    7.7149  -36.2948  -17.5230 O   0  0  0  0  0  0  0  0  0  0  0  0
    1.9909  -33.8629  -13.4649 O   0  0  0  0  0  0  0  0  0  0  0  0
    7.6989  -34.2680  -14.7245 C   0  0  0  0  0  0  0  0  0  0  0  0
    2.6992  -36.6133  -14.9648 C   0  0  0  0  0  0  0  0  0  0  0  0
    6.8134  -35.0729  -15.5012 O   0  0  0  0  0  0  0  0  0  0  0  0
    3.5413  -35.6836  -14.2872 O   0  0  0  0  0  0  0  0  0  0  0  0
    6.8939  -33.4518  -13.7203 C   0  0  1  0  0  0  0  0  0  0  0  0
    3.5492  -37.5349  -15.8304 C   0  0  1  0  0  0  0  0  0  0  0  0
    7.6451  -32.3021  -13.3210 O   0  0  0  0  0  0  0  0  0  0  0  0
    2.7508  -38.0791  -16.8841 O   0  0  0  0  0  0  0  0  0  0  0  0
    5.5876  -32.9666  -14.3258 C   0  0  1  0  0  0  0  0  0  0  0  0
    4.7071  -36.7822  -16.4663 C   0  0  1  0  0  0  0  0  0  0  0  0
    4.4855  -33.4658  -13.5741 O   0  0  0  0  0  0  0  0  0  0  0  0
    5.9451  -37.3621  -16.0660 O   0  0  0  0  0  0  0  0  0  0  0  0
    5.6196  -31.4511  -14.2578 C   0  0  0  0  0  0  0  0  0  0  0  0
    4.5324  -36.9136  -17.9669 C   0  0  0  0  0  0  0  0  0  0  0  0
    6.9493  -31.0875  -13.6139 C   0  0  2  0  0  0  0  0  0  0  0  0
    3.2732  -37.7438  -18.1720 C   0  0  2  0  0  0  0  0  0  0  0  0
    9.9832  -26.8430  -14.2118 N   0  0  0  0  0  0  0  0  0  0  0  0
    9.3701  -27.3238  -13.1144 C   0  0  0  0  0  0  0  0  0  0  0  0
    8.6134  -28.4366  -13.1080 N   0  0  0  0  0  0  0  0  0  0  0  0
    8.4234  -29.1547  -14.2407 C   0  0  0  0  0  0  0  0  0  0  0  0
    9.0619  -28.6933  -15.4834 C   0  0  0  0  0  0  0  0  0  0  0  0
    9.8793  -27.4590  -15.4106 C   0  0  0  0  0  0  0  0  0  0  0  0
   10.5020  -26.9656  -16.5081 N   0  0  0  0  0  0  0  0  0  0  0  0
    8.7165  -29.5731  -16.4420 N   0  0  0  0  0  0  0  0  0  0  0  0
    7.9267  -30.5149  -15.8656 C   0  0  0  0  0  0  0  0  0  0  0  0
    7.7520  -30.2658  -14.5535 N   0  0  0  0  0  0  0  0  0  0  0  0
    0.3196  -33.4040  -18.2936 N   0  0  0  0  0  0  0  0  0  0  0  0
    1.1930  -33.8332  -17.3639 C   0  0  0  0  0  0  0  0  0  0  0  0
    1.8890  -34.9800  -17.4650 N   0  0  0  0  0  0  0  0  0  0  0  0
    1.7424  -35.7882  -18.5426 C   0  0  0  0  0  0  0  0  0  0  0  0
    0.8052  -35.3871  -19.6032 C   0  0  0  0  0  0  0  0  0  0  0  0
    0.0760  -34.1102  -19.4186 C   0  0  0  0  0  0  0  0  0  0  0  0
   -0.8056  -33.6668  -20.3482 N   0  0  0  0  0  0  0  0  0  0  0  0
    0.8516  -36.3518  -20.5414 N   0  0  0  0  0  0  0  0  0  0  0  0
    1.7397  -37.2880  -20.1185 C   0  0  0  0  0  0  0  0  0  0  0  0
    2.2701  -36.9525  -18.9281 N   0  0  0  0  0  0  0  0  0  0  0  0
  1  3  1  1  0  0  0
  1  5  2  0  0  0  0
  1  9  1  0  0  0  0
  1 18  1  0  0  0  0
  2  4  1  6  0  0  0
  2  6  2  0  0  0  0
  2 10  1  0  0  0  0
  2 17  1  0  0  0  0
  7  9  1  0  0  0  0
  8 10  1  0  0  0  0
 11  7  1  6  0  0  0
 11 13  1  0  0  0  0
 11 15  1  0  0  0  0
 12  8  1  6  0  0  0
 12 14  1  0  0  0  0
 12 16  1  0  0  0  0
 13 21  1  0  0  0  0
 14 22  1  0  0  0  0
 15 17  1  1  0  0  0
 15 19  1  0  0  0  0
 16 18  1  1  0  0  0
 16 20  1  0  0  0  0
 19 21  1  0  0  0  0
 20 22  1  0  0  0  0
 21 32  1  6  0  0  0
 22 42  1  6  0  0  0
 23 24  2  0  0  0  0
 23 28  1  0  0  0  0
 24 25  1  0  0  0  0
 25 26  2  0  0  0  0
 26 27  1  0  0  0  0
 26 32  1  0  0  0  0
 27 28  2  0  0  0  0
 27 30  1  0  0  0  0
 28 29  1  0  0  0  0
 30 31  2  0  0  0  0
 31 32  1  0  0  0  0
 33 34  2  0  0  0  0
 33 38  1  0  0  0  0
 34 35  1  0  0  0  0
 35 36  2  0  0  0  0
 36 37  1  0  0  0  0
 36 42  1  0  0  0  0
 37 38  2  0  0  0  0
 37 40  1  0  0  0  0
 38 39  1  0  0  0  0
 40 41  2  0  0  0  0
 41 42  1  0  0  0  0
M  CHG  2   3  -1   4  -1
M  END
>  <CHROM.1>
-106.52275678,58.67949389,5.12654891,-33.74524546,-15.98426848,-2.40552178
-0.49661636,-0.02585263

>  <Name>
ligand

>  <RI>
0

>  <Rbt.Current_Directory>
/home/itssahil/PROJECTS/Mol_Feturizer/New_Systems/rnas/4QLN

>  <Rbt.Executable>
rbdock ($Id: //depot/dev/client3/rdock/2013.1/src/exe/rbdock.cxx#4 $)

>  <Rbt.Library>
libRbt.so (2013.1, Build901 2013/11/27)

>  <Rbt.Parameter_File>
/export/apps/rDock/src/rDock_2013.1_src/data/scripts/dock_solv.prm

>  <Rbt.Receptor>
prm/pocket_docking_3.prm

>  <SCORE>
-26.874

>  <SCORE.INTER>
-28.2505

>  <SCORE.INTER.CONST>
1

>  <SCORE.INTER.POLAR>
0

>  <SCORE.INTER.ROT>
2

>  <SCORE.INTER.SOLV>
36.572

>  <SCORE.INTER.VDW>
-35.9577

>  <SCORE.INTER.norm>
-0.672631

>  <SCORE.INTRA>
1.37652

>  <SCORE.INTRA.DIHEDRAL>
-7.26651e-05

>  <SCORE.INTRA.DIHEDRAL.0>
2.39985

>  <SCORE.INTRA.POLAR>
0

>  <SCORE.INTRA.POLAR.0>
0

>  <SCORE.INTRA.REPUL>
0

>  <SCORE.INTRA.REPUL.0>
0

>  <SCORE.INTRA.SOLV>
1.22476

>  <SCORE.INTRA.SOLV.lig_0>
-110.958

>  <SCORE.INTRA.VDW>
0.764179

>  <SCORE.INTRA.VDW.0>
-2.34644

>  <SCORE.INTRA.norm>
0.0327744

>  <SCORE.RESTR>
0

>  <SCORE.RESTR.CAVITY>
0

>  <SCORE.RESTR.norm>
0

>  <SCORE.SYSTEM>
0

>  <SCORE.SYSTEM.CONST>
0

>  <SCORE.SYSTEM.DIHEDRAL>
0

>  <SCORE.SYSTEM.SOLV>
0

>  <SCORE.SYSTEM.norm>
0

>  <SCORE.heavy>
42

>  <SCORE.norm>
-0.639856

>  <RMSD>
1.439

$$$$
ligand
 OpenBabel11021811513D
libRbt.so/2013.1/901 2013/11/27
 42 48  0  0  0  0  0  0  0  0999 V2000
    7.1992  -36.4978  -16.1321 P   0  0  2  0  0  0  0  0  0  0  0  0
    3.1297  -34.0797  -14.3696 P   0  0  1  0  0  0  0  0  0  0  0  0
    8.1628  -37.1134  -15.1445 O   0  5  0  0  0  0  0  0  0  0  0  0
    3.1482  -33.6263  -15.8099 O   0  5  0  0  0  0  0  0  0  0  0  0
    7.6154  -36.3066  -17.5709 O   0  0  0  0  0  0  0  0  0  0  0  0
    1.9122  -33.8236  -13.5142 O   0  0  0  0  0  0  0  0  0  0  0  0
    7.6162  -34.2738  -14.7767 C   0  0  0  0  0  0  0  0  0  0  0  0
    2.5992  -36.5824  -15.0088 C   0  0  0  0  0  0  0  0  0  0  0  0
    6.7244  -35.0737  -15.5511 O   0  0  0  0  0  0  0  0  0  0  0  0
    3.4485  -35.6575  -14.3336 O   0  0  0  0  0  0  0  0  0  0  0  0
    6.8181  -33.4495  -13.7736 C   0  0  1  0  0  0  0  0  0  0  0  0
    3.4417  -37.5121  -15.8729 C   0  0  1  0  0  0  0  0  0  0  0  0
    7.5780  -32.3046  -13.3773 O   0  0  0  0  0  0  0  0  0  0  0  0
    2.6386  -38.0527  -16.9249 O   0  0  0  0  0  0  0  0  0  0  0  0
    5.5150  -32.9559  -14.3793 C   0  0  1  0  0  0  0  0  0  0  0  0
    4.6047  -36.7694  -16.5111 C   0  0  1  0  0  0  0  0  0  0  0  0
    4.4096  -33.4453  -13.6259 O   0  0  0  0  0  0  0  0  0  0  0  0
    5.8387  -37.3576  -16.1105 O   0  0  0  0  0  0  0  0  0  0  0  0
    5.5582  -31.4405  -14.3145 C   0  0  0  0  0  0  0  0  0  0  0  0
    4.4281  -36.9027  -18.0114 C   0  0  0  0  0  0  0  0  0  0  0  0
    6.8910  -31.0855  -13.6724 C   0  0  2  0  0  0  0  0  0  0  0  0
    3.1626  -37.7239  -18.2138 C   0  0  2  0  0  0  0  0  0  0  0  0
   10.0236  -26.9123  -14.2642 N   0  0  0  0  0  0  0  0  0  0  0  0
    9.4164  -27.3923  -13.1632 C   0  0  0  0  0  0  0  0  0  0  0  0
    8.6313  -28.4854  -13.1590 N   0  0  0  0  0  0  0  0  0  0  0  0
    8.4041  -29.1827  -14.2979 C   0  0  0  0  0  0  0  0  0  0  0  0
    9.0338  -28.7206  -15.5448 C   0  0  0  0  0  0  0  0  0  0  0  0
    9.8841  -27.5089  -15.4693 C   0  0  0  0  0  0  0  0  0  0  0  0
   10.5012  -27.0165  -16.5704 N   0  0  0  0  0  0  0  0  0  0  0  0
    8.6501  -29.5779  -16.5092 N   0  0  0  0  0  0  0  0  0  0  0  0
    7.8457  -30.5070  -15.9323 C   0  0  0  0  0  0  0  0  0  0  0  0
    7.6992  -30.2718  -14.6142 N   0  0  0  0  0  0  0  0  0  0  0  0
    0.2186  -33.3775  -18.3286 N   0  0  0  0  0  0  0  0  0  0  0  0
    1.0865  -33.8131  -17.3967 C   0  0  0  0  0  0  0  0  0  0  0  0
    1.7806  -34.9608  -17.5001 N   0  0  0  0  0  0  0  0  0  0  0  0
    1.6377  -35.7634  -18.5824 C   0  0  0  0  0  0  0  0  0  0  0  0
    0.7066  -35.3551  -19.6456 C   0  0  0  0  0  0  0  0  0  0  0  0
   -0.0208  -34.0776  -19.4583 C   0  0  0  0  0  0  0  0  0  0  0  0
   -0.8970  -33.6277  -20.3900 N   0  0  0  0  0  0  0  0  0  0  0  0
    0.7557  -36.3152  -20.5883 N   0  0  0  0  0  0  0  0  0  0  0  0
    1.6397  -37.2553  -20.1657 C   0  0  0  0  0  0  0  0  0  0  0  0
    2.1649  -36.9268  -18.9710 N   0  0  0  0  0  0  0  0  0  0  0  0
  1  3  1  1  0  0  0
  1  5  2  0  0  0  0
  1  9  1  0  0  0  0
  1 18  1  0  0  0  0
  2  4  1  6  0  0  0
  2  6  2  0  0  0  0
  2 10  1  0  0  0  0
  2 17  1  0  0  0  0
  7  9  1  0  0  0  0
  8 10  1  0  0  0  0
 11  7  1  6  0  0  0
 11 13  1  0  0  0  0
 11 15  1  0  0  0  0
 12  8  1  6  0  0  0
 12 14  1  0  0  0  0
 12 16  1  0  0  0  0
 13 21  1  0  0  0  0
 14 22  1  0  0  0  0
 15 17  1  1  0  0  0
 15 19  1  0  0  0  0
 16 18  1  1  0  0  0
 16 20  1  0  0  0  0
 19 21  1  0  0  0  0
 20 22  1  0  0  0  0
 21 32  1  6  0  0  0
 22 42  1  6  0  0  0
 23 24  2  0  0  0  0
 23 28  1  0  0  0  0
 24 25  1  0  0  0  0
 25 26  2  0  0  0  0
 26 27  1  0  0  0  0
 26 32  1  0  0  0  0
 27 28  2  0  0  0  0
 27 30  1  0  0  0  0
 28 29  1  0  0  0  0
 30 31  2  0  0  0  0
 31 32  1  0  0  0  0
 33 34  2  0  0  0  0
 33 38  1  0  0  0  0
 34 35  1  0  0  0  0
 35 36  2  0  0  0  0
 36 37  1  0  0  0  0
 36 42  1  0  0  0  0
 37 38  2  0  0  0  0
 37 40  1  0  0  0  0
 38 39  1  0  0  0  0
 40 41  2  0  0  0  0
 41 42  1  0  0  0  0
M  CHG  2   3  -1   4  -1
M  END
>  <CHROM.1>
-104.86229350,58.07699271,5.05073240,-33.73973527,-16.03329296,-2.41770511
-0.49314059,-0.03088454

>  <Name>
ligand

>  <RI>
0

>  <Rbt.Current_Directory>
/home/itssahil/PROJECTS/Mol_Feturizer/New_Systems/rnas/4QLN

>  <Rbt.Executable>
rbdock ($Id: //depot/dev/client3/rdock/2013.1/src/exe/rbdock.cxx#4 $)

>  <Rbt.Library>
libRbt.so (2013.1, Build901 2013/11/27)

>  <Rbt.Parameter_File>
/export/apps/rDock/src/rDock_2013.1_src/data/scripts/dock_solv.prm

>  <Rbt.Receptor>
prm/pocket_docking_4.prm

>  <SCORE>
-26.8373

>  <SCORE.INTER>
-28.1618

>  <SCORE.INTER.CONST>
1

>  <SCORE.INTER.POLAR>
0

>  <SCORE.INTER.ROT>
2

>  <SCORE.INTER.SOLV>
37.2472

>  <SCORE.INTER.VDW>
-36.1236

>  <SCORE.INTER.norm>
-0.67052

>  <SCORE.INTRA>
1.32459

>  <SCORE.INTRA.DIHEDRAL>
-0.00011297

>  <SCORE.INTRA.DIHEDRAL.0>
2.39985

>  <SCORE.INTRA.POLAR>
0

>  <SCORE.INTRA.POLAR.0>
0

>  <SCORE.INTRA.REPUL>
0

>  <SCORE.INTRA.REPUL.0>
0

>  <SCORE.INTRA.SOLV>
1.22217

>  <SCORE.INTRA.SOLV.lig_0>
-110.958

>  <SCORE.INTRA.VDW>
0.713562

>  <SCORE.INTRA.VDW.0>
-2.34644

>  <SCORE.INTRA.norm>
0.0315378

>  <SCORE.RESTR>
0

>  <SCORE.RESTR.CAVITY>
0

>  <SCORE.RESTR.norm>
0

>  <SCORE.SYSTEM>
0

>  <SCORE.SYSTEM.CONST>
0

>  <SCORE.SYSTEM.DIHEDRAL>
0

>  <SCORE.SYSTEM.SOLV>
0

>  <SCORE.SYSTEM.norm>
0

>  <SCORE.heavy>
42

>  <SCORE.norm>
-0.638982

>  <RMSD>
1.506

$$$$
ligand
 OpenBabel11021811513D
libRbt.so/2013.1/901 2013/11/27
 42 48  0  0  0  0  0  0  0  0999 V2000
    5.0742  -34.0768  -12.1758 P   0  0  2  0  0  0  0  0  0  0  0  0
    8.1885  -35.5428  -15.8726 P   0  0  1  0  0  0  0  0  0  0  0  0
    4.5747  -35.1108  -11.1938 O   0  5  0  0  0  0  0  0  0  0  0  0
    7.7766  -34.1716  -16.3528 O   0  5  0  0  0  0  0  0  0  0  0  0
    4.3950  -32.7310  -12.2626 O   0  0  0  0  0  0  0  0  0  0  0  0
    9.3443  -36.2567  -16.5312 O   0  0  0  0  0  0  0  0  0  0  0  0
    4.0862  -35.6977  -14.0071 C   0  0  0  0  0  0  0  0  0  0  0  0
    9.4964  -34.5849  -13.7929 C   0  0  0  0  0  0  0  0  0  0  0  0
    5.0757  -34.7364  -13.6441 O   0  0  0  0  0  0  0  0  0  0  0  0
    8.4840  -35.4557  -14.2922 O   0  0  0  0  0  0  0  0  0  0  0  0
    4.6718  -36.6698  -15.0242 C   0  0  1  0  0  0  0  0  0  0  0  0
    8.9310  -33.7444  -12.6549 C   0  0  1  0  0  0  0  0  0  0  0  0
    3.6161  -37.2771  -15.7740 O   0  0  0  0  0  0  0  0  0  0  0  0
    9.6996  -32.5477  -12.5109 O   0  0  0  0  0  0  0  0  0  0  0  0
    5.5876  -35.9562  -16.0043 C   0  0  1  0  0  0  0  0  0  0  0  0
    7.4908  -33.3414  -12.9292 C   0  0  1  0  0  0  0  0  0  0  0  0
    6.8996  -36.5065  -15.9366 O   0  0  0  0  0  0  0  0  0  0  0  0
    6.6409  -33.8341  -11.8977 O   0  0  0  0  0  0  0  0  0  0  0  0
    4.9993  -36.1827  -17.3845 C   0  0  0  0  0  0  0  0  0  0  0  0
    7.4647  -31.8252  -12.9446 C   0  0  0  0  0  0  0  0  0  0  0  0
    3.7491  -37.0241  -17.1753 C   0  0  2  0  0  0  0  0  0  0  0  0
    8.8946  -31.3778  -12.6767 C   0  0  2  0  0  0  0  0  0  0  0  0
    0.1474  -36.5572  -20.9684 N   0  0  0  0  0  0  0  0  0  0  0  0
    1.1705  -37.4228  -20.8452 C   0  0  0  0  0  0  0  0  0  0  0  0
    2.0256  -37.4263  -19.8060 N   0  0  0  0  0  0  0  0  0  0  0  0
    1.8974  -36.5316  -18.7971 C   0  0  0  0  0  0  0  0  0  0  0  0
    0.8018  -35.5515  -18.8590 C   0  0  0  0  0  0  0  0  0  0  0  0
   -0.0980  -35.6102  -20.0354 C   0  0  0  0  0  0  0  0  0  0  0  0
   -1.1318  -34.7449  -20.1704 N   0  0  0  0  0  0  0  0  0  0  0  0
    0.9014  -34.7939  -17.7507 N   0  0  0  0  0  0  0  0  0  0  0  0
    1.9662  -35.2475  -17.0411 C   0  0  0  0  0  0  0  0  0  0  0  0
    2.5598  -36.2835  -17.6645 N   0  0  0  0  0  0  0  0  0  0  0  0
    9.7952  -26.5844  -14.6219 N   0  0  0  0  0  0  0  0  0  0  0  0
    9.2864  -26.9566  -13.4328 C   0  0  0  0  0  0  0  0  0  0  0  0
    9.1093  -28.2379  -13.0636 N   0  0  0  0  0  0  0  0  0  0  0  0
    9.4450  -29.2530  -13.8961 C   0  0  0  0  0  0  0  0  0  0  0  0
   10.0084  -28.9266  -15.2153 C   0  0  0  0  0  0  0  0  0  0  0  0
   10.1728  -27.4918  -15.5480 C   0  0  0  0  0  0  0  0  0  0  0  0
   10.6848  -27.1043  -16.7420 N   0  0  0  0  0  0  0  0  0  0  0  0
   10.2504  -30.0997  -15.8302 N   0  0  0  0  0  0  0  0  0  0  0  0
    9.8746  -31.0897  -14.9800 C   0  0  0  0  0  0  0  0  0  0  0  0
    9.3948  -30.5854  -13.8282 N   0  0  0  0  0  0  0  0  0  0  0  0
  1  3  1  1  0  0  0
  1  5  2  0  0  0  0
  1  9  1  0  0  0  0
  1 18  1  0  0  0  0
  2  4  1  6  0  0  0
  2  6  2  0  0  0  0
  2 10  1  0  0  0  0
  2 17  1  0  0  0  0
  7  9  1  0  0  0  0
  8 10  1  0  0  0  0
 11  7  1  1  0  0  0
 11 13  1  0  0  0  0
 11 15  1  0  0  0  0
 12  8  1  6  0  0  0
 12 14  1  0  0  0  0
 12 16  1  0  0  0  0
 13 21  1  0  0  0  0
 14 22  1  0  0  0  0
 15 17  1  6  0  0  0
 15 19  1  0  0  0  0
 16 18  1  1  0  0  0
 16 20  1  0  0  0  0
 19 21  1  0  0  0  0
 20 22  1  0  0  0  0
 21 32  1  1  0  0  0
 22 42  1  6  0  0  0
 23 24  2  0  0  0  0
 23 28  1  0  0  0  0
 24 25  1  0  0  0  0
 25 26  2  0  0  0  0
 26 27  1  0  0  0  0
 26 32  1  0  0  0  0
 27 28  2  0  0  0  0
 27 30  1  0  0  0  0
 28 29  1  0  0  0  0
 30 31  2  0  0  0  0
 31 32  1  0  0  0  0
 33 34  2  0  0  0  0
 33 38  1  0  0  0  0
 34 35  1  0  0  0  0
 35 36  2  0  0  0  0
 36 37  1  0  0  0  0
 36 42  1  0  0  0  0
 37 38  2  0  0  0  0
 37 40  1  0  0  0  0
 38 39  1  0  0  0  0
 40 41  2  0  0  0  0
 41 42  1  0  0  0  0
M  CHG  2   3  -1   4  -1
M  END
>  <CHROM.1>
-136.61324312,-142.29696428,6.10014318,-33.73459059,-15.36343122,-0.18462506
0.77644390,2.44458371

>  <Name>
ligand

>  <RI>
0

>  <Rbt.Current_Directory>
/home/itssahil/PROJECTS/Mol_Feturizer/New_Systems/rnas/4QLN

>  <Rbt.Executable>
rbdock ($Id: //depot/dev/client3/rdock/2013.1/src/exe/rbdock.cxx#4 $)

>  <Rbt.Library>
libRbt.so (2013.1, Build901 2013/11/27)

>  <Rbt.Parameter_File>
/export/apps/rDock/src/rDock_2013.1_src/data/scripts/dock_solv.prm

>  <Rbt.Receptor>
prm/pocket_docking_2.prm

>  <SCORE>
-21.3932

>  <SCORE.INTER>
-22.0895

>  <SCORE.INTER.CONST>
1

>  <SCORE.INTER.POLAR>
0

>  <SCORE.INTER.ROT>
2

>  <SCORE.INTER.SOLV>
35.9573

>  <SCORE.INTER.VDW>
-31.6454

>  <SCORE.INTER.norm>
-0.52594

>  <SCORE.INTRA>
0.38435

>  <SCORE.INTRA.DIHEDRAL>
0.0010417

>  <SCORE.INTRA.DIHEDRAL.0>
2.39985

>  <SCORE.INTRA.POLAR>
0

>  <SCORE.INTRA.POLAR.0>
0

>  <SCORE.INTRA.REPUL>
0

>  <SCORE.INTRA.REPUL.0>
0

>  <SCORE.INTRA.SOLV>
-0.100968

>  <SCORE.INTRA.SOLV.lig_0>
-110.958

>  <SCORE.INTRA.VDW>
0.434313

>  <SCORE.INTRA.VDW.0>
-2.34644

>  <SCORE.INTRA.norm>
0.0091512

>  <SCORE.RESTR>
0.311919

>  <SCORE.RESTR.CAVITY>
0.311919

>  <SCORE.RESTR.norm>
0.00742665

>  <SCORE.SYSTEM>
0

>  <SCORE.SYSTEM.CONST>
0

>  <SCORE.SYSTEM.DIHEDRAL>
0

>  <SCORE.SYSTEM.SOLV>
0

>  <SCORE.SYSTEM.norm>
0

>  <SCORE.heavy>
42

>  <SCORE.norm>
-0.509362

>  <RMSD>
1.576

$$$$
ligand
 OpenBabel11021811513D
libRbt.so/2013.1/901 2013/11/27
 42 48  0  0  0  0  0  0  0  0999 V2000
    4.6929  -35.9835  -12.7762 P   0  0  2  0  0  0  0  0  0  0  0  0
    8.2578  -35.5532  -16.3288 P   0  0  1  0  0  0  0  0  0  0  0  0
    4.3890  -37.3527  -12.2140 O   0  5  0  0  0  0  0  0  0  0  0  0
    7.5714  -34.2118  -16.4279 O   0  5  0  0  0  0  0  0  0  0  0  0
    3.7309  -34.8434  -12.5431 O   0  0  0  0  0  0  0  0  0  0  0  0
    9.5803  -35.7765  -17.0220 O   0  0  0  0  0  0  0  0  0  0  0  0
    4.2024  -37.1050  -15.1126 C   0  0  0  0  0  0  0  0  0  0  0  0
    9.1967  -35.0614  -13.9143 C   0  0  0  0  0  0  0  0  0  0  0  0
    4.9255  -36.1308  -14.3621 O   0  0  0  0  0  0  0  0  0  0  0  0
    8.4384  -35.9132  -14.7698 O   0  0  0  0  0  0  0  0  0  0  0  0
    5.0492  -37.5682  -16.2920 C   0  0  1  0  0  0  0  0  0  0  0  0
    8.3930  -34.7545  -12.6569 C   0  0  1  0  0  0  0  0  0  0  0  0
    4.2024  -38.1050  -17.3120 O   0  0  0  0  0  0  0  0  0  0  0  0
    8.8597  -33.5367  -12.0713 O   0  0  0  0  0  0  0  0  0  0  0  0
    5.8308  -36.4138  -16.8961 C   0  0  1  0  0  0  0  0  0  0  0  0
    6.9162  -34.5812  -12.9744 C   0  0  1  0  0  0  0  0  0  0  0  0
    7.2279  -36.6839  -16.8337 O   0  0  0  0  0  0  0  0  0  0  0  0
    6.1455  -35.5339  -12.2481 O   0  0  0  0  0  0  0  0  0  0  0  0
    5.3864  -36.3048  -18.3428 C   0  0  0  0  0  0  0  0  0  0  0  0
    6.5462  -33.1753  -12.5428 C   0  0  0  0  0  0  0  0  0  0  0  0
    4.3512  -37.4008  -18.5479 C   0  0  2  0  0  0  0  0  0  0  0  0
    7.8197  -32.5598  -11.9805 C   0  0  2  0  0  0  0  0  0  0  0  0
    0.9726  -33.4492  -17.8072 N   0  0  0  0  0  0  0  0  0  0  0  0
    2.1601  -33.6963  -17.2242 C   0  0  0  0  0  0  0  0  0  0  0  0
    2.9285  -34.7621  -17.5154 N   0  0  0  0  0  0  0  0  0  0  0  0
    2.5356  -35.6706  -18.4401 C   0  0  0  0  0  0  0  0  0  0  0  0
    1.2477  -35.4700  -19.1226 C   0  0  0  0  0  0  0  0  0  0  0  0
    0.4580  -34.2731  -18.7474 C   0  0  0  0  0  0  0  0  0  0  0  0
   -0.7384  -34.0131  -19.3278 N   0  0  0  0  0  0  0  0  0  0  0  0
    1.1017  -36.4997  -19.9775 N   0  0  0  0  0  0  0  0  0  0  0  0
    2.1983  -37.2905  -19.8541 C   0  0  0  0  0  0  0  0  0  0  0  0
    3.0532  -36.7964  -18.9380 N   0  0  0  0  0  0  0  0  0  0  0  0
   10.7767  -30.6334  -15.8686 N   0  0  0  0  0  0  0  0  0  0  0  0
   10.6967  -31.8839  -15.3774 C   0  0  0  0  0  0  0  0  0  0  0  0
    9.8845  -32.2389  -14.3655 N   0  0  0  0  0  0  0  0  0  0  0  0
    9.0789  -31.3270  -13.7693 C   0  0  0  0  0  0  0  0  0  0  0  0
    9.1091  -29.9373  -14.2506 C   0  0  0  0  0  0  0  0  0  0  0  0
   10.0299  -29.6252  -15.3691 C   0  0  0  0  0  0  0  0  0  0  0  0
   10.1190  -28.3698  -15.8730 N   0  0  0  0  0  0  0  0  0  0  0  0
    8.2274  -29.2515  -13.4987 N   0  0  0  0  0  0  0  0  0  0  0  0
    7.6815  -30.1250  -12.6139 C   0  0  0  0  0  0  0  0  0  0  0  0
    8.1887  -31.3610  -12.7748 N   0  0  0  0  0  0  0  0  0  0  0  0
  1  3  1  1  0  0  0
  1  5  2  0  0  0  0
  1  9  1  0  0  0  0
  1 18  1  0  0  0  0
  2  4  1  6  0  0  0
  2  6  2  0  0  0  0
  2 10  1  0  0  0  0
  2 17  1  0  0  0  0
  7  9  1  0  0  0  0
  8 10  1  0  0  0  0
 11  7  1  1  0  0  0
 11 13  1  0  0  0  0
 11 15  1  0  0  0  0
 12  8  1  6  0  0  0
 12 14  1  0  0  0  0
 12 16  1  0  0  0  0
 13 21  1  0  0  0  0
 14 22  1  0  0  0  0
 15 17  1  6  0  0  0
 15 19  1  0  0  0  0
 16 18  1  1  0  0  0
 16 20  1  0  0  0  0
 19 21  1  0  0  0  0
 20 22  1  0  0  0  0
 21 32  1  1  0  0  0
 22 42  1  6  0  0  0
 23 24  2  0  0  0  0
 23 28  1  0  0  0  0
 24 25  1  0  0  0  0
 25 26  2  0  0  0  0
 26 27  1  0  0  0  0
 26 32  1  0  0  0  0
 27 28  2  0  0  0  0
 27 30  1  0  0  0  0
 28 29  1  0  0  0  0
 30 31  2  0  0  0  0
 31 32  1  0  0  0  0
 33 34  2  0  0  0  0
 33 38  1  0  0  0  0
 34 35  1  0  0  0  0
 35 36  2  0  0  0  0
 36 37  1  0  0  0  0
 36 42  1  0  0  0  0
 37 38  2  0  0  0  0
 37 40  1  0  0  0  0
 38 39  1  0  0  0  0
 40 41  2  0  0  0  0
 41 42  1  0  0  0  0
M  CHG  2   3  -1   4  -1
M  END
>  <CHROM.1>
79.12336002,21.22991293,6.04126842,-34.47632335,-15.48052686,-3.08531302
-0.72546914,-0.70933680

>  <Name>
ligand

>  <RI>
0

>  <Rbt.Current_Directory>
/home/itssahil/PROJECTS/Mol_Feturizer/New_Systems/rnas/4QLN

>  <Rbt.Executable>
rbdock ($Id: //depot/dev/client3/rdock/2013.1/src/exe/rbdock.cxx#4 $)

>  <Rbt.Library>
libRbt.so (2013.1, Build901 2013/11/27)

>  <Rbt.Parameter_File>
/export/apps/rDock/src/rDock_2013.1_src/data/scripts/dock_solv.prm

>  <Rbt.Receptor>
prm/pocket_docking_4.prm

>  <SCORE>
-21.7561

>  <SCORE.INTER>
-21.7314

>  <SCORE.INTER.CONST>
1

>  <SCORE.INTER.POLAR>
0

>  <SCORE.INTER.ROT>
2

>  <SCORE.INTER.SOLV>
26.1364

>  <SCORE.INTER.VDW>
-28.1331

>  <SCORE.INTER.norm>
-0.517414

>  <SCORE.INTRA>
-0.0246988

>  <SCORE.INTRA.DIHEDRAL>
-0.000304611

>  <SCORE.INTRA.DIHEDRAL.0>
2.39985

>  <SCORE.INTRA.POLAR>
0

>  <SCORE.INTRA.POLAR.0>
0

>  <SCORE.INTRA.REPUL>
0

>  <SCORE.INTRA.REPUL.0>
0

>  <SCORE.INTRA.SOLV>
0.118835

>  <SCORE.INTRA.SOLV.lig_0>
-110.958

>  <SCORE.INTRA.VDW>
-0.0839639

>  <SCORE.INTRA.VDW.0>
-2.34644

>  <SCORE.INTRA.norm>
-0.000588067

>  <SCORE.RESTR>
0

>  <SCORE.RESTR.CAVITY>
0

>  <SCORE.RESTR.norm>
0

>  <SCORE.SYSTEM>
0

>  <SCORE.SYSTEM.CONST>
0

>  <SCORE.SYSTEM.DIHEDRAL>
0

>  <SCORE.SYSTEM.SOLV>
0

>  <SCORE.SYSTEM.norm>
0

>  <SCORE.heavy>
42

>  <SCORE.norm>
-0.518002

>  <RMSD>
1.697

$$$$
ligand
 OpenBabel11021811513D
libRbt.so/2013.1/901 2013/11/27
 42 48  0  0  0  0  0  0  0  0999 V2000
    4.4703  -35.5270  -12.4907 P   0  0  2  0  0  0  0  0  0  0  0  0
    8.2934  -35.5811  -15.7915 P   0  0  1  0  0  0  0  0  0  0  0  0
    4.0538  -36.8255  -11.8400 O   0  5  0  0  0  0  0  0  0  0  0  0
    7.6894  -34.2221  -16.0536 O   0  5  0  0  0  0  0  0  0  0  0  0
    3.5576  -34.3259  -12.4263 O   0  0  0  0  0  0  0  0  0  0  0  0
    9.6472  -35.9275  -16.3632 O   0  0  0  0  0  0  0  0  0  0  0  0
    4.0846  -36.8238  -14.7550 C   0  0  0  0  0  0  0  0  0  0  0  0
    9.0861  -34.9256  -13.3636 C   0  0  0  0  0  0  0  0  0  0  0  0
    4.8050  -35.8235  -14.0370 O   0  0  0  0  0  0  0  0  0  0  0  0
    8.3445  -35.8115  -14.1988 O   0  0  0  0  0  0  0  0  0  0  0  0
    4.9855  -37.4286  -15.8251 C   0  0  1  0  0  0  0  0  0  0  0  0
    8.2141  -34.4715  -12.1997 C   0  0  1  0  0  0  0  0  0  0  0  0
    4.1844  -38.0113  -16.8567 O   0  0  0  0  0  0  0  0  0  0  0  0
    8.7041  -33.2310  -11.6851 O   0  0  0  0  0  0  0  0  0  0  0  0
    5.8690  -36.3704  -16.4638 C   0  0  1  0  0  0  0  0  0  0  0  0
    6.7748  -34.2559  -12.6397 C   0  0  1  0  0  0  0  0  0  0  0  0
    7.2416  -36.7009  -16.2752 O   0  0  0  0  0  0  0  0  0  0  0  0
    5.9045  -35.1032  -11.8955 O   0  0  0  0  0  0  0  0  0  0  0  0
    5.5336  -36.3673  -17.9437 C   0  0  0  0  0  0  0  0  0  0  0  0
    6.4523  -32.8015  -12.3562 C   0  0  0  0  0  0  0  0  0  0  0  0
    4.4574  -37.4259  -18.1327 C   0  0  2  0  0  0  0  0  0  0  0  0
    7.7148  -32.2011  -11.7542 C   0  0  2  0  0  0  0  0  0  0  0  0
    1.0711  -33.4304  -17.7489 N   0  0  0  0  0  0  0  0  0  0  0  0
    2.1761  -33.7034  -17.0308 C   0  0  0  0  0  0  0  0  0  0  0  0
    2.9586  -34.7776  -17.2422 N   0  0  0  0  0  0  0  0  0  0  0  0
    2.6670  -35.6685  -18.2201 C   0  0  0  0  0  0  0  0  0  0  0  0
    1.4737  -35.4392  -19.0497 C   0  0  0  0  0  0  0  0  0  0  0  0
    0.6618  -34.2345  -18.7556 C   0  0  0  0  0  0  0  0  0  0  0  0
   -0.4521  -33.9486  -19.4719 N   0  0  0  0  0  0  0  0  0  0  0  0
    1.4171  -36.4560  -19.9301 N   0  0  0  0  0  0  0  0  0  0  0  0
    2.4794  -37.2656  -19.6868 C   0  0  0  0  0  0  0  0  0  0  0  0
    3.2246  -36.7963  -18.6677 N   0  0  0  0  0  0  0  0  0  0  0  0
    7.9306  -30.2142  -16.6100 N   0  0  0  0  0  0  0  0  0  0  0  0
    7.3475  -31.3401  -16.1584 C   0  0  0  0  0  0  0  0  0  0  0  0
    7.3722  -31.7301  -14.8712 N   0  0  0  0  0  0  0  0  0  0  0  0
    8.0052  -30.9859  -13.9323 C   0  0  0  0  0  0  0  0  0  0  0  0
    8.6671  -29.7397  -14.3481 C   0  0  0  0  0  0  0  0  0  0  0  0
    8.5954  -29.3783  -15.7836 C   0  0  0  0  0  0  0  0  0  0  0  0
    9.1779  -28.2466  -16.2506 N   0  0  0  0  0  0  0  0  0  0  0  0
    9.2088  -29.2040  -13.2380 N   0  0  0  0  0  0  0  0  0  0  0  0
    8.9198  -30.0342  -12.2030 C   0  0  0  0  0  0  0  0  0  0  0  0
    8.2031  -31.0955  -12.6165 N   0  0  0  0  0  0  0  0  0  0  0  0
  1  3  1  1  0  0  0
  1  5  2  0  0  0  0
  1  9  1  0  0  0  0
  1 18  1  0  0  0  0
  2  4  1  6  0  0  0
  2  6  2  0  0  0  0
  2 10  1  0  0  0  0
  2 17  1  0  0  0  0
  7  9  1  0  0  0  0
  8 10  1  0  0  0  0
 11  7  1  1  0  0  0
 11 13  1  0  0  0  0
 11 15  1  0  0  0  0
 12  8  1  6  0  0  0
 12 14  1  0  0  0  0
 12 16  1  0  0  0  0
 13 21  1  0  0  0  0
 14 22  1  0  0  0  0
 15 17  1  6  0  0  0
 15 19  1  0  0  0  0
 16 18  1  1  0  0  0
 16 20  1  0  0  0  0
 19 21  1  0  0  0  0
 20 22  1  0  0  0  0
 21 32  1  1  0  0  0
 22 42  1  6  0  0  0
 23 24  2  0  0  0  0
 23 28  1  0  0  0  0
 24 25  1  0  0  0  0
 25 26  2  0  0  0  0
 26 27  1  0  0  0  0
 26 32  1  0  0  0  0
 27 28  2  0  0  0  0
 27 30  1  0  0  0  0
 28 29  1  0  0  0  0
 30 31  2  0  0  0  0
 31 32  1  0  0  0  0
 33 34  2  0  0  0  0
 33 38  1  0  0  0  0
 34 35  1  0  0  0  0
 35 36  2  0  0  0  0
 36 37  1  0  0  0  0
 36 42  1  0  0  0  0
 37 38  2  0  0  0  0
 37 40  1  0  0  0  0
 38 39  1  0  0  0  0
 40 41  2  0  0  0  0
 41 42  1  0  0  0  0
M  CHG  2   3  -1   4  -1
M  END
>  <CHROM.1>
72.48829533,90.92303699,5.81430096,-34.29684527,-15.27130047,-2.99249913
-0.80054410,-0.55605769

>  <Name>
ligand

>  <RI>
0

>  <Rbt.Current_Directory>
/home/itssahil/PROJECTS/Mol_Feturizer/New_Systems/rnas/4QLN

>  <Rbt.Executable>
rbdock ($Id: //depot/dev/client3/rdock/2013.1/src/exe/rbdock.cxx#4 $)

>  <Rbt.Library>
libRbt.so (2013.1, Build901 2013/11/27)

>  <Rbt.Parameter_File>
/export/apps/rDock/src/rDock_2013.1_src/data/scripts/dock_solv.prm

>  <Rbt.Receptor>
prm/pocket_docking_4.prm

>  <SCORE>
-25.3131

>  <SCORE.INTER>
-26.1606

>  <SCORE.INTER.CONST>
1

>  <SCORE.INTER.POLAR>
0

>  <SCORE.INTER.ROT>
2

>  <SCORE.INTER.SOLV>
25.5197

>  <SCORE.INTER.VDW>
-30.8803

>  <SCORE.INTER.norm>
-0.622872

>  <SCORE.INTRA>
0.847273

>  <SCORE.INTRA.DIHEDRAL>
0.00106015

>  <SCORE.INTRA.DIHEDRAL.0>
2.39985

>  <SCORE.INTRA.POLAR>
0

>  <SCORE.INTRA.POLAR.0>
0

>  <SCORE.INTRA.REPUL>
0

>  <SCORE.INTRA.REPUL.0>
0

>  <SCORE.INTRA.SOLV>
0.684724

>  <SCORE.INTRA.SOLV.lig_0>
-110.958

>  <SCORE.INTRA.VDW>
0.504381

>  <SCORE.INTRA.VDW.0>
-2.34644

>  <SCORE.INTRA.norm>
0.0201732

>  <SCORE.RESTR>
0.000290717

>  <SCORE.RESTR.CAVITY>
0.000290717

>  <SCORE.RESTR.norm>
6.92184e-06

>  <SCORE.SYSTEM>
0

>  <SCORE.SYSTEM.CONST>
0

>  <SCORE.SYSTEM.DIHEDRAL>
0

>  <SCORE.SYSTEM.SOLV>
0

>  <SCORE.SYSTEM.norm>
0

>  <SCORE.heavy>
42

>  <SCORE.norm>
-0.602692

>  <RMSD>
1.699

$$$$
ligand
 OpenBabel11021811513D
libRbt.so/2013.1/901 2013/11/27
 42 48  0  0  0  0  0  0  0  0999 V2000
    4.4599  -35.5212  -12.4918 P   0  0  2  0  0  0  0  0  0  0  0  0
    8.2847  -35.5882  -15.7903 P   0  0  1  0  0  0  0  0  0  0  0  0
    4.0403  -36.8178  -11.8394 O   0  5  0  0  0  0  0  0  0  0  0  0
    7.6838  -34.2283  -16.0548 O   0  5  0  0  0  0  0  0  0  0  0  0
    3.5496  -34.3181  -12.4298 O   0  0  0  0  0  0  0  0  0  0  0  0
    9.6382  -35.9382  -16.3606 O   0  0  0  0  0  0  0  0  0  0  0  0
    4.0728  -36.8206  -14.7543 C   0  0  0  0  0  0  0  0  0  0  0  0
    9.0774  -34.9305  -13.3629 C   0  0  0  0  0  0  0  0  0  0  0  0
    4.7949  -35.8207  -14.0375 O   0  0  0  0  0  0  0  0  0  0  0  0
    8.3345  -35.8163  -14.1972 O   0  0  0  0  0  0  0  0  0  0  0  0
    4.9731  -37.4289  -15.8230 C   0  0  1  0  0  0  0  0  0  0  0  0
    8.2057  -34.4729  -12.2002 C   0  0  1  0  0  0  0  0  0  0  0  0
    4.1714  -38.0114  -16.8542 O   0  0  0  0  0  0  0  0  0  0  0  0
    8.6979  -33.2326  -11.6872 O   0  0  0  0  0  0  0  0  0  0  0  0
    5.8591  -36.3735  -16.4629 C   0  0  1  0  0  0  0  0  0  0  0  0
    6.7671  -34.2550  -12.6414 C   0  0  1  0  0  0  0  0  0  0  0  0
    7.2309  -36.7065  -16.2729 O   0  0  0  0  0  0  0  0  0  0  0  0
    5.8946  -35.0994  -11.8964 O   0  0  0  0  0  0  0  0  0  0  0  0
    5.5246  -36.3719  -17.9429 C   0  0  0  0  0  0  0  0  0  0  0  0
    6.4474  -32.7995  -12.3603 C   0  0  0  0  0  0  0  0  0  0  0  0
    4.4463  -37.4286  -18.1309 C   0  0  2  0  0  0  0  0  0  0  0  0
    7.7108  -32.2008  -11.7585 C   0  0  2  0  0  0  0  0  0  0  0  0
    1.0658  -33.4277  -17.7526 N   0  0  0  0  0  0  0  0  0  0  0  0
    2.1695  -33.7021  -17.0330 C   0  0  0  0  0  0  0  0  0  0  0  0
    2.9506  -34.7777  -17.2432 N   0  0  0  0  0  0  0  0  0  0  0  0
    2.6587  -35.6685  -18.2210 C   0  0  0  0  0  0  0  0  0  0  0  0
    1.4668  -35.4376  -19.0522 C   0  0  0  0  0  0  0  0  0  0  0  0
    0.6564  -34.2315  -18.7594 C   0  0  0  0  0  0  0  0  0  0  0  0
   -0.4562  -33.9441  -19.4772 N   0  0  0  0  0  0  0  0  0  0  0  0
    1.4096  -36.4546  -19.9323 N   0  0  0  0  0  0  0  0  0  0  0  0
    2.4704  -37.2658  -19.6874 C   0  0  0  0  0  0  0  0  0  0  0  0
    3.2152  -36.7972  -18.6676 N   0  0  0  0  0  0  0  0  0  0  0  0
    7.9409  -30.2263  -16.6186 N   0  0  0  0  0  0  0  0  0  0  0  0
    7.3562  -31.3508  -16.1658 C   0  0  0  0  0  0  0  0  0  0  0  0
    7.3771  -31.7376  -14.8776 N   0  0  0  0  0  0  0  0  0  0  0  0
    8.0078  -30.9912  -13.9388 C   0  0  0  0  0  0  0  0  0  0  0  0
    8.6712  -29.7462  -14.3559 C   0  0  0  0  0  0  0  0  0  0  0  0
    8.6036  -29.3884  -15.7924 C   0  0  0  0  0  0  0  0  0  0  0  0
    9.1879  -28.2581  -16.2606 N   0  0  0  0  0  0  0  0  0  0  0  0
    9.2099  -29.2079  -13.2456 N   0  0  0  0  0  0  0  0  0  0  0  0
    8.9177  -30.0354  -12.2093 C   0  0  0  0  0  0  0  0  0  0  0  0
    8.2019  -31.0976  -12.6221 N   0  0  0  0  0  0  0  0  0  0  0  0
  1  3  1  1  0  0  0
  1  5  2  0  0  0  0
  1  9  1  0  0  0  0
  1 18  1  0  0  0  0
  2  4  1  6  0  0  0
  2  6  2  0  0  0  0
  2 10  1  0  0  0  0
  2 17  1  0  0  0  0
  7  9  1  0  0  0  0
  8 10  1  0  0  0  0
 11  7  1  1  0  0  0
 11 13  1  0  0  0  0
 11 15  1  0  0  0  0
 12  8  1  6  0  0  0
 12 14  1  0  0  0  0
 12 16  1  0  0  0  0
 13 21  1  0  0  0  0
 14 22  1  0  0  0  0
 15 17  1  6  0  0  0
 15 19  1  0  0  0  0
 16 18  1  1  0  0  0
 16 20  1  0  0  0  0
 19 21  1  0  0  0  0
 20 22  1  0  0  0  0
 21 32  1  1  0  0  0
 22 42  1  6  0  0  0
 23 24  2  0  0  0  0
 23 28  1  0  0  0  0
 24 25  1  0  0  0  0
 25 26  2  0  0  0  0
 26 27  1  0  0  0  0
 26 32  1  0  0  0  0
 27 28  2  0  0  0  0
 27 30  1  0  0  0  0
 28 29  1  0  0  0  0
 30 31  2  0  0  0  0
 31 32  1  0  0  0  0
 33 34  2  0  0  0  0
 33 38  1  0  0  0  0
 34 35  1  0  0  0  0
 35 36  2  0  0  0  0
 36 37  1  0  0  0  0
 36 42  1  0  0  0  0
 37 38  2  0  0  0  0
 37 40  1  0  0  0  0
 38 39  1  0  0  0  0
 40 41  2  0  0  0  0
 41 42  1  0  0  0  0
M  CHG  2   3  -1   4  -1
M  END
>  <CHROM.1>
72.40831454,90.74978117,5.80844345,-34.29853323,-15.27339463,-2.99658178
-0.79982910,-0.56136963

>  <Name>
ligand

>  <RI>
0

>  <Rbt.Current_Directory>
/home/itssahil/PROJECTS/Mol_Feturizer/New_Systems/rnas/4QLN

>  <Rbt.Executable>
rbdock ($Id: //depot/dev/client3/rdock/2013.1/src/exe/rbdock.cxx#4 $)

>  <Rbt.Library>
libRbt.so (2013.1, Build901 2013/11/27)

>  <Rbt.Parameter_File>
/export/apps/rDock/src/rDock_2013.1_src/data/scripts/dock_solv.prm

>  <Rbt.Receptor>
prm/pocket_docking_5.prm

>  <SCORE>
-25.2832

>  <SCORE.INTER>
-26.1092

>  <SCORE.INTER.CONST>
1

>  <SCORE.INTER.POLAR>
0

>  <SCORE.INTER.ROT>
2

>  <SCORE.INTER.SOLV>
25.5449

>  <SCORE.INTER.VDW>
-30.8544

>  <SCORE.INTER.norm>
-0.621648

>  <SCORE.INTRA>
0.826006

>  <SCORE.INTRA.DIHEDRAL>
0.00105957

>  <SCORE.INTRA.DIHEDRAL.0>
2.39985

>  <SCORE.INTRA.POLAR>
0

>  <SCORE.INTRA.POLAR.0>
0

>  <SCORE.INTRA.REPUL>
0

>  <SCORE.INTRA.REPUL.0>
0

>  <SCORE.INTRA.SOLV>
0.6904

>  <SCORE.INTRA.SOLV.lig_0>
-110.958

>  <SCORE.INTRA.VDW>
0.480276

>  <SCORE.INTRA.VDW.0>
-2.34644

>  <SCORE.INTRA.norm>
0.0196668

>  <SCORE.RESTR>
0

>  <SCORE.RESTR.CAVITY>
0

>  <SCORE.RESTR.norm>
0

>  <SCORE.SYSTEM>
0

>  <SCORE.SYSTEM.CONST>
0

>  <SCORE.SYSTEM.DIHEDRAL>
0

>  <SCORE.SYSTEM.SOLV>
0

>  <SCORE.SYSTEM.norm>
0

>  <SCORE.heavy>
42

>  <SCORE.norm>
-0.601981

>  <RMSD>
1.699

$$$$
ligand
 OpenBabel11021811513D
libRbt.so/2013.1/901 2013/11/27
 42 48  0  0  0  0  0  0  0  0999 V2000
    4.4629  -35.5377  -12.4872 P   0  0  2  0  0  0  0  0  0  0  0  0
    8.2830  -35.5921  -15.7915 P   0  0  1  0  0  0  0  0  0  0  0  0
    4.0477  -36.8360  -11.8353 O   0  5  0  0  0  0  0  0  0  0  0  0
    7.6781  -34.2335  -16.0538 O   0  5  0  0  0  0  0  0  0  0  0  0
    3.5497  -34.3370  -12.4227 O   0  0  0  0  0  0  0  0  0  0  0  0
    9.6364  -35.9382  -16.3642 O   0  0  0  0  0  0  0  0  0  0  0  0
    4.0757  -36.8361  -14.7502 C   0  0  0  0  0  0  0  0  0  0  0  0
    9.0776  -34.9345  -13.3647 C   0  0  0  0  0  0  0  0  0  0  0  0
    4.7964  -35.8350  -14.0336 O   0  0  0  0  0  0  0  0  0  0  0  0
    8.3357  -35.8214  -14.1986 O   0  0  0  0  0  0  0  0  0  0  0  0
    4.9760  -37.4412  -15.8208 C   0  0  1  0  0  0  0  0  0  0  0  0
    8.2065  -34.4802  -12.2003 C   0  0  1  0  0  0  0  0  0  0  0  0
    4.1742  -38.0249  -16.8513 O   0  0  0  0  0  0  0  0  0  0  0  0
    8.6963  -33.2391  -11.6869 O   0  0  0  0  0  0  0  0  0  0  0  0
    5.8584  -36.3830  -16.4611 C   0  0  1  0  0  0  0  0  0  0  0  0
    6.7667  -34.2656  -12.6391 C   0  0  1  0  0  0  0  0  0  0  0  0
    7.2313  -36.7126  -16.2734 O   0  0  0  0  0  0  0  0  0  0  0  0
    5.8975  -35.1128  -11.8936 O   0  0  0  0  0  0  0  0  0  0  0  0
    5.5216  -36.3809  -17.9406 C   0  0  0  0  0  0  0  0  0  0  0  0
    6.4438  -32.8111  -12.3562 C   0  0  0  0  0  0  0  0  0  0  0  0
    4.4457  -37.4402  -18.1279 C   0  0  2  0  0  0  0  0  0  0  0  0
    7.7065  -32.2097  -11.7558 C   0  0  2  0  0  0  0  0  0  0  0  0
    1.0784  -33.4265  -17.7680 N   0  0  0  0  0  0  0  0  0  0  0  0
    2.1869  -33.6959  -17.0538 C   0  0  0  0  0  0  0  0  0  0  0  0
    2.9636  -34.7758  -17.2581 N   0  0  0  0  0  0  0  0  0  0  0  0
    2.6620  -35.6764  -18.2238 C   0  0  0  0  0  0  0  0  0  0  0  0
    1.4644  -35.4515  -19.0484 C   0  0  0  0  0  0  0  0  0  0  0  0
    0.6594  -34.2402  -18.7628 C   0  0  0  0  0  0  0  0  0  0  0  0
   -0.4579  -33.9577  -19.4753 N   0  0  0  0  0  0  0  0  0  0  0  0
    1.3980  -36.4780  -19.9169 N   0  0  0  0  0  0  0  0  0  0  0  0
    2.4584  -37.2892  -19.6711 C   0  0  0  0  0  0  0  0  0  0  0  0
    3.2122  -36.8115  -18.6621 N   0  0  0  0  0  0  0  0  0  0  0  0
    7.9281  -30.2326  -16.6153 N   0  0  0  0  0  0  0  0  0  0  0  0
    7.3475  -31.3594  -16.1627 C   0  0  0  0  0  0  0  0  0  0  0  0
    7.3702  -31.7465  -14.8746 N   0  0  0  0  0  0  0  0  0  0  0  0
    7.9985  -30.9983  -13.9358 C   0  0  0  0  0  0  0  0  0  0  0  0
    8.6575  -29.7509  -14.3526 C   0  0  0  0  0  0  0  0  0  0  0  0
    8.5882  -29.3928  -15.7890 C   0  0  0  0  0  0  0  0  0  0  0  0
    9.1684  -28.2603  -16.2569 N   0  0  0  0  0  0  0  0  0  0  0  0
    9.1948  -29.2111  -13.2423 N   0  0  0  0  0  0  0  0  0  0  0  0
    8.9057  -30.0400  -12.2062 C   0  0  0  0  0  0  0  0  0  0  0  0
    8.1934  -31.1045  -12.6192 N   0  0  0  0  0  0  0  0  0  0  0  0
  1  3  1  1  0  0  0
  1  5  2  0  0  0  0
  1  9  1  0  0  0  0
  1 18  1  0  0  0  0
  2  4  1  6  0  0  0
  2  6  2  0  0  0  0
  2 10  1  0  0  0  0
  2 17  1  0  0  0  0
  7  9  1  0  0  0  0
  8 10  1  0  0  0  0
 11  7  1  1  0  0  0
 11 13  1  0  0  0  0
 11 15  1  0  0  0  0
 12  8  1  6  0  0  0
 12 14  1  0  0  0  0
 12 16  1  0  0  0  0
 13 21  1  0  0  0  0
 14 22  1  0  0  0  0
 15 17  1  6  0  0  0
 15 19  1  0  0  0  0
 16 18  1  1  0  0  0
 16 20  1  0  0  0  0
 19 21  1  0  0  0  0
 20 22  1  0  0  0  0
 21 32  1  1  0  0  0
 22 42  1  6  0  0  0
 23 24  2  0  0  0  0
 23 28  1  0  0  0  0
 24 25  1  0  0  0  0
 25 26  2  0  0  0  0
 26 27  1  0  0  0  0
 26 32  1  0  0  0  0
 27 28  2  0  0  0  0
 27 30  1  0  0  0  0
 28 29  1  0  0  0  0
 30 31  2  0  0  0  0
 31 32  1  0  0  0  0
 33 34  2  0  0  0  0
 33 38  1  0  0  0  0
 34 35  1  0  0  0  0
 35 36  2  0  0  0  0
 36 37  1  0  0  0  0
 36 42  1  0  0  0  0
 37 38  2  0  0  0  0
 37 40  1  0  0  0  0
 38 39  1  0  0  0  0
 40 41  2  0  0  0  0
 41 42  1  0  0  0  0
M  CHG  2   3  -1   4  -1
M  END
>  <CHROM.1>
73.22644367,90.65939201,5.80637642,-34.30759000,-15.27196871,-2.99357074
-0.80085191,-0.55782660

>  <Name>
ligand

>  <RI>
0

>  <Rbt.Current_Directory>
/home/itssahil/PROJECTS/Mol_Feturizer/New_Systems/rnas/4QLN

>  <Rbt.Executable>
rbdock ($Id: //depot/dev/client3/rdock/2013.1/src/exe/rbdock.cxx#4 $)

>  <Rbt.Library>
libRbt.so (2013.1, Build901 2013/11/27)

>  <Rbt.Parameter_File>
/export/apps/rDock/src/rDock_2013.1_src/data/scripts/dock_solv.prm

>  <Rbt.Receptor>
prm/pocket_docking_5.prm

>  <SCORE>
-25.2905

>  <SCORE.INTER>
-26.1443

>  <SCORE.INTER.CONST>
1

>  <SCORE.INTER.POLAR>
0

>  <SCORE.INTER.ROT>
2

>  <SCORE.INTER.SOLV>
25.5408

>  <SCORE.INTER.VDW>
-30.8764

>  <SCORE.INTER.norm>
-0.622482

>  <SCORE.INTRA>
0.853747

>  <SCORE.INTRA.DIHEDRAL>
0.00106848

>  <SCORE.INTRA.DIHEDRAL.0>
2.39985

>  <SCORE.INTRA.POLAR>
0

>  <SCORE.INTRA.POLAR.0>
0

>  <SCORE.INTRA.REPUL>
0

>  <SCORE.INTRA.REPUL.0>
0

>  <SCORE.INTRA.SOLV>
0.692682

>  <SCORE.INTRA.SOLV.lig_0>
-110.958

>  <SCORE.INTRA.VDW>
0.506871

>  <SCORE.INTRA.VDW.0>
-2.34644

>  <SCORE.INTRA.norm>
0.0203273

>  <SCORE.RESTR>
0

>  <SCORE.RESTR.CAVITY>
0

>  <SCORE.RESTR.norm>
0

>  <SCORE.SYSTEM>
0

>  <SCORE.SYSTEM.CONST>
0

>  <SCORE.SYSTEM.DIHEDRAL>
0

>  <SCORE.SYSTEM.SOLV>
0

>  <SCORE.SYSTEM.norm>
0

>  <SCORE.heavy>
42

>  <SCORE.norm>
-0.602155

>  <RMSD>
1.704

$$$$
ligand
 OpenBabel11021811513D
libRbt.so/2013.1/901 2013/11/27
 42 48  0  0  0  0  0  0  0  0999 V2000
    4.4177  -35.5363  -12.5346 P   0  0  2  0  0  0  0  0  0  0  0  0
    8.2474  -35.6005  -15.8274 P   0  0  1  0  0  0  0  0  0  0  0  0
    3.9901  -36.8353  -11.8920 O   0  5  0  0  0  0  0  0  0  0  0  0
    7.6542  -34.2355  -16.0831 O   0  5  0  0  0  0  0  0  0  0  0  0
    3.5137  -34.3288  -12.4654 O   0  0  0  0  0  0  0  0  0  0  0  0
    9.5999  -35.9538  -16.3981 O   0  0  0  0  0  0  0  0  0  0  0  0
    4.0272  -36.8175  -14.8068 C   0  0  0  0  0  0  0  0  0  0  0  0
    9.0397  -34.9644  -13.3941 C   0  0  0  0  0  0  0  0  0  0  0  0
    4.7536  -35.8266  -14.0818 O   0  0  0  0  0  0  0  0  0  0  0  0
    8.2934  -35.8402  -14.2359 O   0  0  0  0  0  0  0  0  0  0  0  0
    4.9260  -37.4231  -15.8784 C   0  0  1  0  0  0  0  0  0  0  0  0
    8.1686  -34.5104  -12.2296 C   0  0  1  0  0  0  0  0  0  0  0  0
    4.1228  -37.9939  -16.9150 O   0  0  0  0  0  0  0  0  0  0  0  0
    8.6666  -33.2764  -11.7070 O   0  0  0  0  0  0  0  0  0  0  0  0
    5.8187  -36.3679  -16.5093 C   0  0  1  0  0  0  0  0  0  0  0  0
    6.7319  -34.2816  -12.6715 C   0  0  1  0  0  0  0  0  0  0  0  0
    7.1884  -36.7096  -16.3196 O   0  0  0  0  0  0  0  0  0  0  0  0
    5.8537  -35.1265  -11.9339 O   0  0  0  0  0  0  0  0  0  0  0  0
    5.4866  -36.3540  -17.9899 C   0  0  0  0  0  0  0  0  0  0  0  0
    6.4196  -32.8264  -12.3805 C   0  0  0  0  0  0  0  0  0  0  0  0
    4.4029  -37.4035  -18.1871 C   0  0  2  0  0  0  0  0  0  0  0  0
    7.6852  -32.2388  -11.7725 C   0  0  2  0  0  0  0  0  0  0  0  0
    1.0230  -33.4068  -17.7623 N   0  0  0  0  0  0  0  0  0  0  0  0
    2.1215  -33.6948  -17.0400 C   0  0  0  0  0  0  0  0  0  0  0  0
    2.9032  -34.7672  -17.2635 N   0  0  0  0  0  0  0  0  0  0  0  0
    2.6174  -35.6405  -18.2588 C   0  0  0  0  0  0  0  0  0  0  0  0
    1.4315  -35.3940  -19.0941 C   0  0  0  0  0  0  0  0  0  0  0  0
    0.6200  -34.1925  -18.7859 C   0  0  0  0  0  0  0  0  0  0  0  0
   -0.4873  -33.8916  -19.5063 N   0  0  0  0  0  0  0  0  0  0  0  0
    1.3797  -36.3954  -19.9923 N   0  0  0  0  0  0  0  0  0  0  0  0
    2.4381  -37.2117  -19.7542 C   0  0  0  0  0  0  0  0  0  0  0  0
    3.1761  -36.7618  -18.7212 N   0  0  0  0  0  0  0  0  0  0  0  0
    7.9457  -30.2382  -16.6204 N   0  0  0  0  0  0  0  0  0  0  0  0
    7.3558  -31.3637  -16.1769 C   0  0  0  0  0  0  0  0  0  0  0  0
    7.3690  -31.7576  -14.8907 N   0  0  0  0  0  0  0  0  0  0  0  0
    7.9966  -31.0181  -13.9446 C   0  0  0  0  0  0  0  0  0  0  0  0
    8.6654  -29.7725  -14.3513 C   0  0  0  0  0  0  0  0  0  0  0  0
    8.6063  -29.4067  -15.7863 C   0  0  0  0  0  0  0  0  0  0  0  0
    9.1958  -28.2753  -16.2451 N   0  0  0  0  0  0  0  0  0  0  0  0
    9.1997  -29.2417  -13.2353 N   0  0  0  0  0  0  0  0  0  0  0  0
    8.9000  -30.0741  -12.2052 C   0  0  0  0  0  0  0  0  0  0  0  0
    8.1836  -31.1321  -12.6275 N   0  0  0  0  0  0  0  0  0  0  0  0
  1  3  1  1  0  0  0
  1  5  2  0  0  0  0
  1  9  1  0  0  0  0
  1 18  1  0  0  0  0
  2  4  1  6  0  0  0
  2  6  2  0  0  0  0
  2 10  1  0  0  0  0
  2 17  1  0  0  0  0
  7  9  1  0  0  0  0
  8 10  1  0  0  0  0
 11  7  1  1  0  0  0
 11 13  1  0  0  0  0
 11 15  1  0  0  0  0
 12  8  1  6  0  0  0
 12 14  1  0  0  0  0
 12 16  1  0  0  0  0
 13 21  1  0  0  0  0
 14 22  1  0  0  0  0
 15 17  1  6  0  0  0
 15 19  1  0  0  0  0
 16 18  1  1  0  0  0
 16 20  1  0  0  0  0
 19 21  1  0  0  0  0
 20 22  1  0  0  0  0
 21 32  1  1  0  0  0
 22 42  1  6  0  0  0
 23 24  2  0  0  0  0
 23 28  1  0  0  0  0
 24 25  1  0  0  0  0
 25 26  2  0  0  0  0
 26 27  1  0  0  0  0
 26 32  1  0  0  0  0
 27 28  2  0  0  0  0
 27 30  1  0  0  0  0
 28 29  1  0  0  0  0
 30 31  2  0  0  0  0
 31 32  1  0  0  0  0
 33 34  2  0  0  0  0
 33 38  1  0  0  0  0
 34 35  1  0  0  0  0
 35 36  2  0  0  0  0
 36 37  1  0  0  0  0
 36 42  1  0  0  0  0
 37 38  2  0  0  0  0
 37 40  1  0  0  0  0
 38 39  1  0  0  0  0
 40 41  2  0  0  0  0
 41 42  1  0  0  0  0
M  CHG  2   3  -1   4  -1
M  END
>  <CHROM.1>
71.68828289,90.47172160,5.77658481,-34.30342068,-15.30351155,-3.00577172
-0.79742503,-0.56295021

>  <Name>
ligand

>  <RI>
0

>  <Rbt.Current_Directory>
/home/itssahil/PROJECTS/Mol_Feturizer/New_Systems/rnas/4QLN

>  <Rbt.Executable>
rbdock ($Id: //depot/dev/client3/rdock/2013.1/src/exe/rbdock.cxx#4 $)

>  <Rbt.Library>
libRbt.so (2013.1, Build901 2013/11/27)

>  <Rbt.Parameter_File>
/export/apps/rDock/src/rDock_2013.1_src/data/scripts/dock_solv.prm

>  <Rbt.Receptor>
prm/pocket_docking_5.prm

>  <SCORE>
-25.2464

>  <SCORE.INTER>
-26.0004

>  <SCORE.INTER.CONST>
1

>  <SCORE.INTER.POLAR>
0

>  <SCORE.INTER.ROT>
2

>  <SCORE.INTER.SOLV>
25.6066

>  <SCORE.INTER.VDW>
-30.8025

>  <SCORE.INTER.norm>
-0.619058

>  <SCORE.INTRA>
0.753996

>  <SCORE.INTRA.DIHEDRAL>
0.00105195

>  <SCORE.INTRA.DIHEDRAL.0>
2.39985

>  <SCORE.INTRA.POLAR>
0

>  <SCORE.INTRA.POLAR.0>
0

>  <SCORE.INTRA.REPUL>
0

>  <SCORE.INTRA.REPUL.0>
0

>  <SCORE.INTRA.SOLV>
0.699972

>  <SCORE.INTRA.SOLV.lig_0>
-110.958

>  <SCORE.INTRA.VDW>
0.403484

>  <SCORE.INTRA.VDW.0>
-2.34644

>  <SCORE.INTRA.norm>
0.0179523

>  <SCORE.RESTR>
0

>  <SCORE.RESTR.CAVITY>
0

>  <SCORE.RESTR.norm>
0

>  <SCORE.SYSTEM>
0

>  <SCORE.SYSTEM.CONST>
0

>  <SCORE.SYSTEM.DIHEDRAL>
0

>  <SCORE.SYSTEM.SOLV>
0

>  <SCORE.SYSTEM.norm>
0

>  <SCORE.heavy>
42

>  <SCORE.norm>
-0.601105

>  <RMSD>
1.704

$$$$
ligand
 OpenBabel11021811513D
libRbt.so/2013.1/901 2013/11/27
 42 48  0  0  0  0  0  0  0  0999 V2000
    4.3873  -35.5355  -12.5556 P   0  0  2  0  0  0  0  0  0  0  0  0
    8.2265  -35.6015  -15.8375 P   0  0  1  0  0  0  0  0  0  0  0  0
    3.9562  -36.8345  -11.9155 O   0  5  0  0  0  0  0  0  0  0  0  0
    7.6358  -34.2355  -16.0936 O   0  5  0  0  0  0  0  0  0  0  0  0
    3.4848  -34.3268  -12.4878 O   0  0  0  0  0  0  0  0  0  0  0  0
    9.5801  -35.9560  -16.4046 O   0  0  0  0  0  0  0  0  0  0  0  0
    4.0018  -36.8139  -14.8302 C   0  0  0  0  0  0  0  0  0  0  0  0
    9.0126  -34.9688  -13.4013 C   0  0  0  0  0  0  0  0  0  0  0  0
    4.7273  -35.8247  -14.1021 O   0  0  0  0  0  0  0  0  0  0  0  0
    8.2675  -35.8428  -14.2461 O   0  0  0  0  0  0  0  0  0  0  0  0
    4.9028  -37.4197  -15.8998 C   0  0  1  0  0  0  0  0  0  0  0  0
    8.1387  -34.5148  -12.2389 C   0  0  1  0  0  0  0  0  0  0  0  0
    4.1018  -37.9885  -16.9392 O   0  0  0  0  0  0  0  0  0  0  0  0
    8.6369  -33.2820  -11.7136 O   0  0  0  0  0  0  0  0  0  0  0  0
    5.7987  -36.3651  -16.5271 C   0  0  1  0  0  0  0  0  0  0  0  0
    6.7036  -34.2837  -12.6846 C   0  0  1  0  0  0  0  0  0  0  0  0
    7.1674  -36.7088  -16.3338 O   0  0  0  0  0  0  0  0  0  0  0  0
    5.8222  -35.1282  -11.9504 O   0  0  0  0  0  0  0  0  0  0  0  0
    5.4709  -36.3493  -18.0086 C   0  0  0  0  0  0  0  0  0  0  0  0
    6.3924  -32.8284  -12.3932 C   0  0  0  0  0  0  0  0  0  0  0  0
    4.3864  -37.3972  -18.2099 C   0  0  2  0  0  0  0  0  0  0  0  0
    7.6570  -32.2430  -11.7809 C   0  0  2  0  0  0  0  0  0  0  0  0
    1.0005  -33.4061  -17.7797 N   0  0  0  0  0  0  0  0  0  0  0  0
    2.0952  -33.6974  -17.0531 C   0  0  0  0  0  0  0  0  0  0  0  0
    2.8791  -34.7678  -17.2787 N   0  0  0  0  0  0  0  0  0  0  0  0
    2.5997  -35.6353  -18.2809 C   0  0  0  0  0  0  0  0  0  0  0  0
    1.4182  -35.3848  -19.1212 C   0  0  0  0  0  0  0  0  0  0  0  0
    0.6039  -34.1859  -18.8103 C   0  0  0  0  0  0  0  0  0  0  0  0
   -0.4997  -33.8816  -19.5349 N   0  0  0  0  0  0  0  0  0  0  0  0
    1.3722  -36.3808  -20.0257 N   0  0  0  0  0  0  0  0  0  0  0  0
    2.4300  -37.1976  -19.7867 C   0  0  0  0  0  0  0  0  0  0  0  0
    3.1619  -36.7533  -18.7469 N   0  0  0  0  0  0  0  0  0  0  0  0
    7.9210  -30.2302  -16.6236 N   0  0  0  0  0  0  0  0  0  0  0  0
    7.3267  -31.3543  -16.1825 C   0  0  0  0  0  0  0  0  0  0  0  0
    7.3395  -31.7518  -14.8974 N   0  0  0  0  0  0  0  0  0  0  0  0
    7.9714  -31.0177  -13.9500 C   0  0  0  0  0  0  0  0  0  0  0  0
    8.6452  -29.7739  -14.3540 C   0  0  0  0  0  0  0  0  0  0  0  0
    8.5861  -29.4039  -15.7878 C   0  0  0  0  0  0  0  0  0  0  0  0
    9.1801  -28.2738  -16.2442 N   0  0  0  0  0  0  0  0  0  0  0  0
    9.1831  -29.2485  -13.2371 N   0  0  0  0  0  0  0  0  0  0  0  0
    8.8808  -30.0825  -12.2089 C   0  0  0  0  0  0  0  0  0  0  0  0
    8.1593  -31.1362  -12.6334 N   0  0  0  0  0  0  0  0  0  0  0  0
  1  3  1  1  0  0  0
  1  5  2  0  0  0  0
  1  9  1  0  0  0  0
  1 18  1  0  0  0  0
  2  4  1  6  0  0  0
  2  6  2  0  0  0  0
  2 10  1  0  0  0  0
  2 17  1  0  0  0  0
  7  9  1  0  0  0  0
  8 10  1  0  0  0  0
 11  7  1  1  0  0  0
 11 13  1  0  0  0  0
 11 15  1  0  0  0  0
 12  8  1  6  0  0  0
 12 14  1  0  0  0  0
 12 16  1  0  0  0  0
 13 21  1  0  0  0  0
 14 22  1  0  0  0  0
 15 17  1  6  0  0  0
 15 19  1  0  0  0  0
 16 18  1  1  0  0  0
 16 20  1  0  0  0  0
 19 21  1  0  0  0  0
 20 22  1  0  0  0  0
 21 32  1  1  0  0  0
 22 42  1  6  0  0  0
 23 24  2  0  0  0  0
 23 28  1  0  0  0  0
 24 25  1  0  0  0  0
 25 26  2  0  0  0  0
 26 27  1  0  0  0  0
 26 32  1  0  0  0  0
 27 28  2  0  0  0  0
 27 30  1  0  0  0  0
 28 29  1  0  0  0  0
 30 31  2  0  0  0  0
 31 32  1  0  0  0  0
 33 34  2  0  0  0  0
 33 38  1  0  0  0  0
 34 35  1  0  0  0  0
 35 36  2  0  0  0  0
 36 37  1  0  0  0  0
 36 42  1  0  0  0  0
 37 38  2  0  0  0  0
 37 40  1  0  0  0  0
 38 39  1  0  0  0  0
 40 41  2  0  0  0  0
 41 42  1  0  0  0  0
M  CHG  2   3  -1   4  -1
M  END
>  <CHROM.1>
71.33662939,90.77622040,5.75393291,-34.30184529,-15.31827043,-3.00727201
-0.79880545,-0.56210375

>  <Name>
ligand

>  <RI>
0

>  <Rbt.Current_Directory>
/home/itssahil/PROJECTS/Mol_Feturizer/New_Systems/rnas/4QLN

>  <Rbt.Executable>
rbdock ($Id: //depot/dev/client3/rdock/2013.1/src/exe/rbdock.cxx#4 $)

>  <Rbt.Library>
libRbt.so (2013.1, Build901 2013/11/27)

>  <Rbt.Parameter_File>
/export/apps/rDock/src/rDock_2013.1_src/data/scripts/dock_solv.prm

>  <Rbt.Receptor>
prm/pocket_docking_5.prm

>  <SCORE>
-25.2364

>  <SCORE.INTER>
-25.9794

>  <SCORE.INTER.CONST>
1

>  <SCORE.INTER.POLAR>
0

>  <SCORE.INTER.ROT>
2

>  <SCORE.INTER.SOLV>
25.682

>  <SCORE.INTER.VDW>
-30.8136

>  <SCORE.INTER.norm>
-0.618557

>  <SCORE.INTRA>
0.743003

>  <SCORE.INTRA.DIHEDRAL>
0.0010476

>  <SCORE.INTRA.DIHEDRAL.0>
2.39985

>  <SCORE.INTRA.POLAR>
0

>  <SCORE.INTRA.POLAR.0>
0

>  <SCORE.INTRA.REPUL>
0

>  <SCORE.INTRA.REPUL.0>
0

>  <SCORE.INTRA.SOLV>
0.690503

>  <SCORE.INTRA.SOLV.lig_0>
-110.958

>  <SCORE.INTRA.VDW>
0.397228

>  <SCORE.INTRA.VDW.0>
-2.34644

>  <SCORE.INTRA.norm>
0.0176905

>  <SCORE.RESTR>
0

>  <SCORE.RESTR.CAVITY>
0

>  <SCORE.RESTR.norm>
0

>  <SCORE.SYSTEM>
0

>  <SCORE.SYSTEM.CONST>
0

>  <SCORE.SYSTEM.DIHEDRAL>
0

>  <SCORE.SYSTEM.SOLV>
0

>  <SCORE.SYSTEM.norm>
0

>  <SCORE.heavy>
42

>  <SCORE.norm>
-0.600866

>  <RMSD>
1.706

$$$$
ligand
 OpenBabel11021811513D
libRbt.so/2013.1/901 2013/11/27
 42 48  0  0  0  0  0  0  0  0999 V2000
    4.4553  -35.5400  -12.4846 P   0  0  2  0  0  0  0  0  0  0  0  0
    8.2923  -35.6057  -15.7690 P   0  0  1  0  0  0  0  0  0  0  0  0
    4.0321  -36.8372  -11.8357 O   0  5  0  0  0  0  0  0  0  0  0  0
    7.6937  -34.2448  -16.0336 O   0  5  0  0  0  0  0  0  0  0  0  0
    3.5460  -34.3360  -12.4240 O   0  0  0  0  0  0  0  0  0  0  0  0
    9.6475  -35.9562  -16.3349 O   0  0  0  0  0  0  0  0  0  0  0  0
    4.0753  -36.8355  -14.7505 C   0  0  0  0  0  0  0  0  0  0  0  0
    9.0767  -34.9526  -13.3376 C   0  0  0  0  0  0  0  0  0  0  0  0
    4.7958  -35.8374  -14.0295 O   0  0  0  0  0  0  0  0  0  0  0  0
    8.3359  -35.8363  -14.1761 O   0  0  0  0  0  0  0  0  0  0  0  0
    4.9790  -37.4431  -15.8168 C   0  0  1  0  0  0  0  0  0  0  0  0
    8.2011  -34.4959  -12.1775 C   0  0  1  0  0  0  0  0  0  0  0  0
    4.1805  -38.0232  -16.8519 O   0  0  0  0  0  0  0  0  0  0  0  0
    8.6926  -33.2569  -11.6608 O   0  0  0  0  0  0  0  0  0  0  0  0
    5.8684  -36.3876  -16.4517 C   0  0  1  0  0  0  0  0  0  0  0  0
    6.7644  -34.2759  -12.6237 C   0  0  1  0  0  0  0  0  0  0  0  0
    7.2392  -36.7222  -16.2572 O   0  0  0  0  0  0  0  0  0  0  0  0
    5.8883  -35.1206  -11.8833 O   0  0  0  0  0  0  0  0  0  0  0  0
    5.5394  -36.3833  -17.9330 C   0  0  0  0  0  0  0  0  0  0  0  0
    6.4451  -32.8205  -12.3415 C   0  0  0  0  0  0  0  0  0  0  0  0
    4.4607  -37.4387  -18.1266 C   0  0  2  0  0  0  0  0  0  0  0  0
    7.7068  -32.2240  -11.7341 C   0  0  2  0  0  0  0  0  0  0  0  0
    1.0499  -33.4667  -17.7169 N   0  0  0  0  0  0  0  0  0  0  0  0
    2.1464  -33.7474  -16.9889 C   0  0  0  0  0  0  0  0  0  0  0  0
    2.9370  -34.8140  -17.2090 N   0  0  0  0  0  0  0  0  0  0  0  0
    2.6630  -35.6884  -18.2066 C   0  0  0  0  0  0  0  0  0  0  0  0
    1.4799  -35.4497  -19.0481 C   0  0  0  0  0  0  0  0  0  0  0  0
    0.6582  -34.2544  -18.7434 C   0  0  0  0  0  0  0  0  0  0  0  0
   -0.4474  -33.9608  -19.4695 N   0  0  0  0  0  0  0  0  0  0  0  0
    1.4402  -36.4507  -19.9474 N   0  0  0  0  0  0  0  0  0  0  0  0
    2.5031  -37.2596  -19.7043 C   0  0  0  0  0  0  0  0  0  0  0  0
    3.2322  -36.8053  -18.6668 N   0  0  0  0  0  0  0  0  0  0  0  0
    7.9176  -30.2184  -16.5824 N   0  0  0  0  0  0  0  0  0  0  0  0
    7.3251  -31.3400  -16.1325 C   0  0  0  0  0  0  0  0  0  0  0  0
    7.3525  -31.7358  -14.8471 N   0  0  0  0  0  0  0  0  0  0  0  0
    7.9985  -31.0025  -13.9085 C   0  0  0  0  0  0  0  0  0  0  0  0
    8.6713  -29.7615  -14.3225 C   0  0  0  0  0  0  0  0  0  0  0  0
    8.5957  -29.3932  -15.7560 C   0  0  0  0  0  0  0  0  0  0  0  0
    9.1877  -28.2657  -16.2212 N   0  0  0  0  0  0  0  0  0  0  0  0
    9.2246  -29.2365  -13.2130 N   0  0  0  0  0  0  0  0  0  0  0  0
    8.9323  -30.0680  -12.1801 C   0  0  0  0  0  0  0  0  0  0  0  0
    8.2022  -31.1199  -12.5942 N   0  0  0  0  0  0  0  0  0  0  0  0
  1  3  1  1  0  0  0
  1  5  2  0  0  0  0
  1  9  1  0  0  0  0
  1 18  1  0  0  0  0
  2  4  1  6  0  0  0
  2  6  2  0  0  0  0
  2 10  1  0  0  0  0
  2 17  1  0  0  0  0
  7  9  1  0  0  0  0
  8 10  1  0  0  0  0
 11  7  1  1  0  0  0
 11 13  1  0  0  0  0
 11 15  1  0  0  0  0
 12  8  1  6  0  0  0
 12 14  1  0  0  0  0
 12 16  1  0  0  0  0
 13 21  1  0  0  0  0
 14 22  1  0  0  0  0
 15 17  1  6  0  0  0
 15 19  1  0  0  0  0
 16 18  1  1  0  0  0
 16 20  1  0  0  0  0
 19 21  1  0  0  0  0
 20 22  1  0  0  0  0
 21 32  1  1  0  0  0
 22 42  1  6  0  0  0
 23 24  2  0  0  0  0
 23 28  1  0  0  0  0
 24 25  1  0  0  0  0
 25 26  2  0  0  0  0
 26 27  1  0  0  0  0
 26 32  1  0  0  0  0
 27 28  2  0  0  0  0
 27 30  1  0  0  0  0
 28 29  1  0  0  0  0
 30 31  2  0  0  0  0
 31 32  1  0  0  0  0
 33 34  2  0  0  0  0
 33 38  1  0  0  0  0
 34 35  1  0  0  0  0
 35 36  2  0  0  0  0
 36 37  1  0  0  0  0
 36 42  1  0  0  0  0
 37 38  2  0  0  0  0
 37 40  1  0  0  0  0
 38 39  1  0  0  0  0
 40 41  2  0  0  0  0
 41 42  1  0  0  0  0
M  CHG  2   3  -1   4  -1
M  END
>  <CHROM.1>
71.24198065,91.66637620,5.80948182,-34.31503948,-15.25551290,-2.99352935
-0.80120131,-0.55488535

>  <Name>
ligand

>  <RI>
0

>  <Rbt.Current_Directory>
/home/itssahil/PROJECTS/Mol_Feturizer/New_Systems/rnas/4QLN

>  <Rbt.Executable>
rbdock ($Id: //depot/dev/client3/rdock/2013.1/src/exe/rbdock.cxx#4 $)

>  <Rbt.Library>
libRbt.so (2013.1, Build901 2013/11/27)

>  <Rbt.Parameter_File>
/export/apps/rDock/src/rDock_2013.1_src/data/scripts/dock_solv.prm

>  <Rbt.Receptor>
prm/pocket_docking_5.prm

>  <SCORE>
-25.1652

>  <SCORE.INTER>
-25.9288

>  <SCORE.INTER.CONST>
1

>  <SCORE.INTER.POLAR>
0

>  <SCORE.INTER.ROT>
2

>  <SCORE.INTER.SOLV>
25.3295

>  <SCORE.INTER.VDW>
-30.6624

>  <SCORE.INTER.norm>
-0.617353

>  <SCORE.INTRA>
0.763578

>  <SCORE.INTRA.DIHEDRAL>
0.0010443

>  <SCORE.INTRA.DIHEDRAL.0>
2.39985

>  <SCORE.INTRA.POLAR>
0

>  <SCORE.INTRA.POLAR.0>
0

>  <SCORE.INTRA.REPUL>
0

>  <SCORE.INTRA.REPUL.0>
0

>  <SCORE.INTRA.SOLV>
0.661366

>  <SCORE.INTRA.SOLV.lig_0>
-110.958

>  <SCORE.INTRA.VDW>
0.432373

>  <SCORE.INTRA.VDW.0>
-2.34644

>  <SCORE.INTRA.norm>
0.0181804

>  <SCORE.RESTR>
0

>  <SCORE.RESTR.CAVITY>
0

>  <SCORE.RESTR.norm>
0

>  <SCORE.SYSTEM>
0

>  <SCORE.SYSTEM.CONST>
0

>  <SCORE.SYSTEM.DIHEDRAL>
0

>  <SCORE.SYSTEM.SOLV>
0

>  <SCORE.SYSTEM.norm>
0

>  <SCORE.heavy>
42

>  <SCORE.norm>
-0.599172

>  <RMSD>
1.706

$$$$
ligand
 OpenBabel11021811513D
libRbt.so/2013.1/901 2013/11/27
 42 48  0  0  0  0  0  0  0  0999 V2000
    4.3603  -35.5274  -12.5434 P   0  0  2  0  0  0  0  0  0  0  0  0
    8.2012  -35.6319  -15.8223 P   0  0  1  0  0  0  0  0  0  0  0  0
    3.9218  -36.8206  -11.8967 O   0  5  0  0  0  0  0  0  0  0  0  0
    7.6180  -34.2642  -16.0861 O   0  5  0  0  0  0  0  0  0  0  0  0
    3.4643  -34.3135  -12.4827 O   0  0  0  0  0  0  0  0  0  0  0  0
    9.5532  -35.9968  -16.3866 O   0  0  0  0  0  0  0  0  0  0  0  0
    3.9693  -36.8160  -14.8114 C   0  0  0  0  0  0  0  0  0  0  0  0
    8.9891  -34.9904  -13.3890 C   0  0  0  0  0  0  0  0  0  0  0  0
    4.6997  -35.8268  -14.0881 O   0  0  0  0  0  0  0  0  0  0  0  0
    8.2398  -35.8648  -14.2296 O   0  0  0  0  0  0  0  0  0  0  0  0
    4.8677  -37.4323  -15.8770 C   0  0  1  0  0  0  0  0  0  0  0  0
    8.1170  -34.5254  -12.2296 C   0  0  1  0  0  0  0  0  0  0  0  0
    4.0644  -38.0024  -16.9140 O   0  0  0  0  0  0  0  0  0  0  0  0
    8.6214  -33.2925  -11.7107 O   0  0  0  0  0  0  0  0  0  0  0  0
    5.7697  -36.3860  -16.5094 C   0  0  1  0  0  0  0  0  0  0  0  0
    6.6834  -34.2889  -12.6776 C   0  0  1  0  0  0  0  0  0  0  0  0
    7.1364  -36.7361  -16.3133 O   0  0  0  0  0  0  0  0  0  0  0  0
    5.7969  -35.1246  -11.9394 O   0  0  0  0  0  0  0  0  0  0  0  0
    5.4430  -36.3764  -17.9912 C   0  0  0  0  0  0  0  0  0  0  0  0
    6.3799  -32.8304  -12.3942 C   0  0  0  0  0  0  0  0  0  0  0  0
    4.3529  -37.4195  -18.1876 C   0  0  2  0  0  0  0  0  0  0  0  0
    7.6473  -32.2486  -11.7842 C   0  0  2  0  0  0  0  0  0  0  0  0
    0.9964  -33.4003  -17.7901 N   0  0  0  0  0  0  0  0  0  0  0  0
    2.0901  -33.6927  -17.0624 C   0  0  0  0  0  0  0  0  0  0  0  0
    2.8660  -34.7707  -17.2791 N   0  0  0  0  0  0  0  0  0  0  0  0
    2.5788  -35.6456  -18.2726 C   0  0  0  0  0  0  0  0  0  0  0  0
    1.3979  -35.3945  -19.1135 C   0  0  0  0  0  0  0  0  0  0  0  0
    0.5928  -34.1869  -18.8128 C   0  0  0  0  0  0  0  0  0  0  0  0
   -0.5097  -33.8814  -19.5387 N   0  0  0  0  0  0  0  0  0  0  0  0
    1.3435  -36.3986  -20.0086 N   0  0  0  0  0  0  0  0  0  0  0  0
    2.3957  -37.2207  -19.7634 C   0  0  0  0  0  0  0  0  0  0  0  0
    3.1323  -36.7719  -18.7289 N   0  0  0  0  0  0  0  0  0  0  0  0
    7.9383  -30.2713  -16.6400 N   0  0  0  0  0  0  0  0  0  0  0  0
    7.3393  -31.3908  -16.1936 C   0  0  0  0  0  0  0  0  0  0  0  0
    7.3453  -31.7791  -14.9056 N   0  0  0  0  0  0  0  0  0  0  0  0
    7.9746  -31.0396  -13.9605 C   0  0  0  0  0  0  0  0  0  0  0  0
    8.6532  -29.8004  -14.3704 C   0  0  0  0  0  0  0  0  0  0  0  0
    8.6015  -29.4405  -15.8071 C   0  0  0  0  0  0  0  0  0  0  0  0
    9.2003  -28.3152  -16.2689 N   0  0  0  0  0  0  0  0  0  0  0  0
    9.1872  -29.2683  -13.2548 N   0  0  0  0  0  0  0  0  0  0  0  0
    8.8782  -30.0941  -12.2221 C   0  0  0  0  0  0  0  0  0  0  0  0
    8.1561  -31.1491  -12.6423 N   0  0  0  0  0  0  0  0  0  0  0  0
  1  3  1  1  0  0  0
  1  5  2  0  0  0  0
  1  9  1  0  0  0  0
  1 18  1  0  0  0  0
  2  4  1  6  0  0  0
  2  6  2  0  0  0  0
  2 10  1  0  0  0  0
  2 17  1  0  0  0  0
  7  9  1  0  0  0  0
  8 10  1  0  0  0  0
 11  7  1  1  0  0  0
 11 13  1  0  0  0  0
 11 15  1  0  0  0  0
 12  8  1  6  0  0  0
 12 14  1  0  0  0  0
 12 16  1  0  0  0  0
 13 21  1  0  0  0  0
 14 22  1  0  0  0  0
 15 17  1  6  0  0  0
 15 19  1  0  0  0  0
 16 18  1  1  0  0  0
 16 20  1  0  0  0  0
 19 21  1  0  0  0  0
 20 22  1  0  0  0  0
 21 32  1  1  0  0  0
 22 42  1  6  0  0  0
 23 24  2  0  0  0  0
 23 28  1  0  0  0  0
 24 25  1  0  0  0  0
 25 26  2  0  0  0  0
 26 27  1  0  0  0  0
 26 32  1  0  0  0  0
 27 28  2  0  0  0  0
 27 30  1  0  0  0  0
 28 29  1  0  0  0  0
 30 31  2  0  0  0  0
 31 32  1  0  0  0  0
 33 34  2  0  0  0  0
 33 38  1  0  0  0  0
 34 35  1  0  0  0  0
 35 36  2  0  0  0  0
 36 37  1  0  0  0  0
 36 42  1  0  0  0  0
 37 38  2  0  0  0  0
 37 40  1  0  0  0  0
 38 39  1  0  0  0  0
 40 41  2  0  0  0  0
 41 42  1  0  0  0  0
M  CHG  2   3  -1   4  -1
M  END
>  <CHROM.1>
71.61528810,90.47311073,5.73709357,-34.31612881,-15.31268532,-3.01656686
-0.79669740,-0.57516868

>  <Name>
ligand

>  <RI>
0

>  <Rbt.Current_Directory>
/home/itssahil/PROJECTS/Mol_Feturizer/New_Systems/rnas/4QLN

>  <Rbt.Executable>
rbdock ($Id: //depot/dev/client3/rdock/2013.1/src/exe/rbdock.cxx#4 $)

>  <Rbt.Library>
libRbt.so (2013.1, Build901 2013/11/27)

>  <Rbt.Parameter_File>
/export/apps/rDock/src/rDock_2013.1_src/data/scripts/dock_solv.prm

>  <Rbt.Receptor>
prm/pocket_docking_5.prm

>  <SCORE>
-25.1967

>  <SCORE.INTER>
-25.9483

>  <SCORE.INTER.CONST>
1

>  <SCORE.INTER.POLAR>
0

>  <SCORE.INTER.ROT>
2

>  <SCORE.INTER.SOLV>
25.7002

>  <SCORE.INTER.VDW>
-30.7989

>  <SCORE.INTER.norm>
-0.617817

>  <SCORE.INTRA>
0.75156

>  <SCORE.INTRA.DIHEDRAL>
0.00105113

>  <SCORE.INTRA.DIHEDRAL.0>
2.39985

>  <SCORE.INTRA.POLAR>
0

>  <SCORE.INTRA.POLAR.0>
0

>  <SCORE.INTRA.REPUL>
0

>  <SCORE.INTRA.REPUL.0>
0

>  <SCORE.INTRA.SOLV>
0.699995

>  <SCORE.INTRA.SOLV.lig_0>
-110.958

>  <SCORE.INTRA.VDW>
0.401037

>  <SCORE.INTRA.VDW.0>
-2.34644

>  <SCORE.INTRA.norm>
0.0178943

>  <SCORE.RESTR>
0

>  <SCORE.RESTR.CAVITY>
0

>  <SCORE.RESTR.norm>
0

>  <SCORE.SYSTEM>
0

>  <SCORE.SYSTEM.CONST>
0

>  <SCORE.SYSTEM.DIHEDRAL>
0

>  <SCORE.SYSTEM.SOLV>
0

>  <SCORE.SYSTEM.norm>
0

>  <SCORE.heavy>
42

>  <SCORE.norm>
-0.599922

>  <RMSD>
1.711

$$$$
ligand
 OpenBabel11021811513D
libRbt.so/2013.1/901 2013/11/27
 42 48  0  0  0  0  0  0  0  0999 V2000
    4.2157  -35.5887  -12.6018 P   0  0  2  0  0  0  0  0  0  0  0  0
    8.0751  -35.6851  -15.8590 P   0  0  1  0  0  0  0  0  0  0  0  0
    3.7650  -36.8855  -11.9707 O   0  5  0  0  0  0  0  0  0  0  0  0
    7.5023  -34.3111  -16.1125 O   0  5  0  0  0  0  0  0  0  0  0  0
    3.3271  -34.3697  -12.5341 O   0  0  0  0  0  0  0  0  0  0  0  0
    9.4281  -36.0531  -16.4190 O   0  0  0  0  0  0  0  0  0  0  0  0
    3.8298  -36.8519  -14.8849 C   0  0  0  0  0  0  0  0  0  0  0  0
    8.8527  -35.0732  -13.4148 C   0  0  0  0  0  0  0  0  0  0  0  0
    4.5623  -35.8748  -14.1474 O   0  0  0  0  0  0  0  0  0  0  0  0
    8.1029  -35.9343  -14.2685 O   0  0  0  0  0  0  0  0  0  0  0  0
    4.7305  -37.4633  -15.9514 C   0  0  1  0  0  0  0  0  0  0  0  0
    7.9767  -34.6142  -12.2560 C   0  0  1  0  0  0  0  0  0  0  0  0
    3.9297  -38.0177  -16.9987 O   0  0  0  0  0  0  0  0  0  0  0  0
    8.4860  -33.3898  -11.7217 O   0  0  0  0  0  0  0  0  0  0  0  0
    5.6430  -36.4166  -16.5680 C   0  0  1  0  0  0  0  0  0  0  0  0
    6.5474  -34.3639  -12.7099 C   0  0  1  0  0  0  0  0  0  0  0  0
    7.0062  -36.7774  -16.3674 O   0  0  0  0  0  0  0  0  0  0  0  0
    5.6512  -35.2013  -11.9854 O   0  0  0  0  0  0  0  0  0  0  0  0
    5.3251  -36.3900  -18.0514 C   0  0  0  0  0  0  0  0  0  0  0  0
    6.2516  -32.9064  -12.4136 C   0  0  0  0  0  0  0  0  0  0  0  0
    4.2296  -37.4240  -18.2647 C   0  0  2  0  0  0  0  0  0  0  0  0
    7.5190  -32.3390  -11.7904 C   0  0  2  0  0  0  0  0  0  0  0  0
    0.9266  -33.3594  -17.8797 N   0  0  0  0  0  0  0  0  0  0  0  0
    2.0179  -33.6626  -17.1528 C   0  0  0  0  0  0  0  0  0  0  0  0
    2.7792  -34.7517  -17.3659 N   0  0  0  0  0  0  0  0  0  0  0  0
    2.4786  -35.6275  -18.3546 C   0  0  0  0  0  0  0  0  0  0  0  0
    1.2992  -35.3650  -19.1943 C   0  0  0  0  0  0  0  0  0  0  0  0
    0.5105  -34.1456  -18.8976 C   0  0  0  0  0  0  0  0  0  0  0  0
   -0.5894  -33.8293  -19.6227 N   0  0  0  0  0  0  0  0  0  0  0  0
    1.2298  -36.3726  -20.0843 N   0  0  0  0  0  0  0  0  0  0  0  0
    2.2717  -37.2072  -19.8374 C   0  0  0  0  0  0  0  0  0  0  0  0
    3.0163  -36.7631  -18.8066 N   0  0  0  0  0  0  0  0  0  0  0  0
    7.8882  -30.3374  -16.6309 N   0  0  0  0  0  0  0  0  0  0  0  0
    7.2841  -31.4604  -16.2002 C   0  0  0  0  0  0  0  0  0  0  0  0
    7.2691  -31.8549  -14.9142 N   0  0  0  0  0  0  0  0  0  0  0  0
    7.8806  -31.1187  -13.9550 C   0  0  0  0  0  0  0  0  0  0  0  0
    8.5634  -29.8761  -14.3472 C   0  0  0  0  0  0  0  0  0  0  0  0
    8.5354  -29.5093  -15.7829 C   0  0  0  0  0  0  0  0  0  0  0  0
    9.1394  -28.3805  -16.2289 N   0  0  0  0  0  0  0  0  0  0  0  0
    9.0771  -29.3483  -13.2202 N   0  0  0  0  0  0  0  0  0  0  0  0
    8.7524  -30.1798  -12.1969 C   0  0  0  0  0  0  0  0  0  0  0  0
    8.0400  -31.2342  -12.6344 N   0  0  0  0  0  0  0  0  0  0  0  0
  1  3  1  1  0  0  0
  1  5  2  0  0  0  0
  1  9  1  0  0  0  0
  1 18  1  0  0  0  0
  2  4  1  6  0  0  0
  2  6  2  0  0  0  0
  2 10  1  0  0  0  0
  2 17  1  0  0  0  0
  7  9  1  0  0  0  0
  8 10  1  0  0  0  0
 11  7  1  1  0  0  0
 11 13  1  0  0  0  0
 11 15  1  0  0  0  0
 12  8  1  6  0  0  0
 12 14  1  0  0  0  0
 12 16  1  0  0  0  0
 13 21  1  0  0  0  0
 14 22  1  0  0  0  0
 15 17  1  6  0  0  0
 15 19  1  0  0  0  0
 16 18  1  1  0  0  0
 16 20  1  0  0  0  0
 19 21  1  0  0  0  0
 20 22  1  0  0  0  0
 21 32  1  1  0  0  0
 22 42  1  6  0  0  0
 23 24  2  0  0  0  0
 23 28  1  0  0  0  0
 24 25  1  0  0  0  0
 25 26  2  0  0  0  0
 26 27  1  0  0  0  0
 26 32  1  0  0  0  0
 27 28  2  0  0  0  0
 27 30  1  0  0  0  0
 28 29  1  0  0  0  0
 30 31  2  0  0  0  0
 31 32  1  0  0  0  0
 33 34  2  0  0  0  0
 33 38  1  0  0  0  0
 34 35  1  0  0  0  0
 35 36  2  0  0  0  0
 36 37  1  0  0  0  0
 36 42  1  0  0  0  0
 37 38  2  0  0  0  0
 37 40  1  0  0  0  0
 38 39  1  0  0  0  0
 40 41  2  0  0  0  0
 41 42  1  0  0  0  0
M  CHG  2   3  -1   4  -1
M  END
>  <CHROM.1>
72.65367556,89.61408904,5.62201986,-34.35816764,-15.35391503,-3.03538176
-0.79901703,-0.58120999

>  <Name>
ligand

>  <RI>
0

>  <Rbt.Current_Directory>
/home/itssahil/PROJECTS/Mol_Feturizer/New_Systems/rnas/4QLN

>  <Rbt.Executable>
rbdock ($Id: //depot/dev/client3/rdock/2013.1/src/exe/rbdock.cxx#4 $)

>  <Rbt.Library>
libRbt.so (2013.1, Build901 2013/11/27)

>  <Rbt.Parameter_File>
/export/apps/rDock/src/rDock_2013.1_src/data/scripts/dock_solv.prm

>  <Rbt.Receptor>
prm/pocket_docking_4.prm

>  <SCORE>
-25.2463

>  <SCORE.INTER>
-26.0823

>  <SCORE.INTER.CONST>
1

>  <SCORE.INTER.POLAR>
0

>  <SCORE.INTER.ROT>
2

>  <SCORE.INTER.SOLV>
25.8242

>  <SCORE.INTER.VDW>
-30.9296

>  <SCORE.INTER.norm>
-0.621007

>  <SCORE.INTRA>
0.835943

>  <SCORE.INTRA.DIHEDRAL>
0.00106263

>  <SCORE.INTRA.DIHEDRAL.0>
2.39985

>  <SCORE.INTRA.POLAR>
0

>  <SCORE.INTRA.POLAR.0>
0

>  <SCORE.INTRA.REPUL>
0

>  <SCORE.INTRA.REPUL.0>
0

>  <SCORE.INTRA.SOLV>
0.726167

>  <SCORE.INTRA.SOLV.lig_0>
-110.958

>  <SCORE.INTRA.VDW>
0.472329

>  <SCORE.INTRA.VDW.0>
-2.34644

>  <SCORE.INTRA.norm>
0.0199034

>  <SCORE.RESTR>
0

>  <SCORE.RESTR.CAVITY>
0

>  <SCORE.RESTR.norm>
0

>  <SCORE.SYSTEM>
0

>  <SCORE.SYSTEM.CONST>
0

>  <SCORE.SYSTEM.DIHEDRAL>
0

>  <SCORE.SYSTEM.SOLV>
0

>  <SCORE.SYSTEM.norm>
0

>  <SCORE.heavy>
42

>  <SCORE.norm>
-0.601103

>  <RMSD>
1.753

$$$$
ligand
 OpenBabel11021811513D
libRbt.so/2013.1/901 2013/11/27
 42 48  0  0  0  0  0  0  0  0999 V2000
    4.5422  -35.8182  -12.7283 P   0  0  2  0  0  0  0  0  0  0  0  0
    8.2429  -35.5755  -16.1576 P   0  0  1  0  0  0  0  0  0  0  0  0
    4.1677  -37.1662  -12.1577 O   0  5  0  0  0  0  0  0  0  0  0  0
    7.6111  -34.2113  -16.3003 O   0  5  0  0  0  0  0  0  0  0  0  0
    3.6159  -34.6397  -12.5459 O   0  0  0  0  0  0  0  0  0  0  0  0
    9.5796  -35.8582  -16.8000 O   0  0  0  0  0  0  0  0  0  0  0  0
    4.0922  -36.9572  -15.0643 C   0  0  0  0  0  0  0  0  0  0  0  0
    9.1144  -35.0808  -13.7185 C   0  0  0  0  0  0  0  0  0  0  0  0
    4.8244  -35.9987  -14.3027 O   0  0  0  0  0  0  0  0  0  0  0  0
    8.3552  -35.9174  -14.5882 O   0  0  0  0  0  0  0  0  0  0  0  0
    4.9618  -37.4698  -16.2061 C   0  0  1  0  0  0  0  0  0  0  0  0
    8.2792  -34.7248  -12.4951 C   0  0  1  0  0  0  0  0  0  0  0  0
    4.1318  -37.9909  -17.2478 O   0  0  0  0  0  0  0  0  0  0  0  0
    8.7704  -33.5161  -11.9108 O   0  0  0  0  0  0  0  0  0  0  0  0
    5.8067  -36.3547  -16.7985 C   0  0  1  0  0  0  0  0  0  0  0  0
    6.8220  -34.5021  -12.8674 C   0  0  1  0  0  0  0  0  0  0  0  0
    7.1897  -36.6751  -16.6825 O   0  0  0  0  0  0  0  0  0  0  0  0
    5.9912  -35.4142  -12.1554 O   0  0  0  0  0  0  0  0  0  0  0  0
    5.4177  -36.2520  -18.2615 C   0  0  0  0  0  0  0  0  0  0  0  0
    6.4900  -33.0770  -12.4695 C   0  0  0  0  0  0  0  0  0  0  0  0
    4.3499  -37.3121  -18.4875 C   0  0  2  0  0  0  0  0  0  0  0  0
    7.7652  -32.5002  -11.8711 C   0  0  2  0  0  0  0  0  0  0  0  0
    0.9855  -33.3434  -17.7745 N   0  0  0  0  0  0  0  0  0  0  0  0
    2.1273  -33.6400  -17.1269 C   0  0  0  0  0  0  0  0  0  0  0  0
    2.8984  -34.7033  -17.4198 N   0  0  0  0  0  0  0  0  0  0  0  0
    2.5559  -35.5578  -18.4135 C   0  0  0  0  0  0  0  0  0  0  0  0
    1.3200  -35.3009  -19.1694 C   0  0  0  0  0  0  0  0  0  0  0  0
    0.5239  -34.1104  -18.7875 C   0  0  0  0  0  0  0  0  0  0  0  0
   -0.6268  -33.8010  -19.4324 N   0  0  0  0  0  0  0  0  0  0  0  0
    1.2175  -36.2842  -20.0832 N   0  0  0  0  0  0  0  0  0  0  0  0
    2.2919  -37.0993  -19.9272 C   0  0  0  0  0  0  0  0  0  0  0  0
    3.0900  -36.6664  -18.9322 N   0  0  0  0  0  0  0  0  0  0  0  0
    8.0061  -30.2929  -16.6295 N   0  0  0  0  0  0  0  0  0  0  0  0
    7.4851  -31.4731  -16.2460 C   0  0  0  0  0  0  0  0  0  0  0  0
    7.4937  -31.9167  -14.9760 N   0  0  0  0  0  0  0  0  0  0  0  0
    8.0447  -31.1745  -13.9853 C   0  0  0  0  0  0  0  0  0  0  0  0
    8.6351  -29.8707  -14.3252 C   0  0  0  0  0  0  0  0  0  0  0  0
    8.5863  -29.4523  -15.7461 C   0  0  0  0  0  0  0  0  0  0  0  0
    9.1069  -28.2656  -16.1447 N   0  0  0  0  0  0  0  0  0  0  0  0
    9.1033  -29.3498  -13.1753 N   0  0  0  0  0  0  0  0  0  0  0  0
    8.8367  -30.2416  -12.1866 C   0  0  0  0  0  0  0  0  0  0  0  0
    8.2064  -31.3284  -12.6689 N   0  0  0  0  0  0  0  0  0  0  0  0
  1  3  1  1  0  0  0
  1  5  2  0  0  0  0
  1  9  1  0  0  0  0
  1 18  1  0  0  0  0
  2  4  1  6  0  0  0
  2  6  2  0  0  0  0
  2 10  1  0  0  0  0
  2 17  1  0  0  0  0
  7  9  1  0  0  0  0
  8 10  1  0  0  0  0
 11  7  1  1  0  0  0
 11 13  1  0  0  0  0
 11 15  1  0  0  0  0
 12  8  1  6  0  0  0
 12 14  1  0  0  0  0
 12 16  1  0  0  0  0
 13 21  1  0  0  0  0
 14 22  1  0  0  0  0
 15 17  1  6  0  0  0
 15 19  1  0  0  0  0
 16 18  1  1  0  0  0
 16 20  1  0  0  0  0
 19 21  1  0  0  0  0
 20 22  1  0  0  0  0
 21 32  1  1  0  0  0
 22 42  1  6  0  0  0
 23 24  2  0  0  0  0
 23 28  1  0  0  0  0
 24 25  1  0  0  0  0
 25 26  2  0  0  0  0
 26 27  1  0  0  0  0
 26 32  1  0  0  0  0
 27 28  2  0  0  0  0
 27 30  1  0  0  0  0
 28 29  1  0  0  0  0
 30 31  2  0  0  0  0
 31 32  1  0  0  0  0
 33 34  2  0  0  0  0
 33 38  1  0  0  0  0
 34 35  1  0  0  0  0
 35 36  2  0  0  0  0
 36 37  1  0  0  0  0
 36 42  1  0  0  0  0
 37 38  2  0  0  0  0
 37 40  1  0  0  0  0
 38 39  1  0  0  0  0
 40 41  2  0  0  0  0
 41 42  1  0  0  0  0
M  CHG  2   3  -1   4  -1
M  END
>  <CHROM.1>
74.78811210,85.69565509,5.79073116,-34.37663990,-15.47004775,-2.98379769
-0.77903996,-0.49920693

>  <Name>
ligand

>  <RI>
0

>  <Rbt.Current_Directory>
/home/itssahil/PROJECTS/Mol_Feturizer/New_Systems/rnas/4QLN

>  <Rbt.Executable>
rbdock ($Id: //depot/dev/client3/rdock/2013.1/src/exe/rbdock.cxx#4 $)

>  <Rbt.Library>
libRbt.so (2013.1, Build901 2013/11/27)

>  <Rbt.Parameter_File>
/export/apps/rDock/src/rDock_2013.1_src/data/scripts/dock_solv.prm

>  <Rbt.Receptor>
prm/pocket_docking_2.prm

>  <SCORE>
-24.3446

>  <SCORE.INTER>
-25.5055

>  <SCORE.INTER.CONST>
1

>  <SCORE.INTER.POLAR>
0

>  <SCORE.INTER.ROT>
2

>  <SCORE.INTER.SOLV>
25.8927

>  <SCORE.INTER.VDW>
-30.5679

>  <SCORE.INTER.norm>
-0.607273

>  <SCORE.INTRA>
0.975401

>  <SCORE.INTRA.DIHEDRAL>
0.00106567

>  <SCORE.INTRA.DIHEDRAL.0>
2.39985

>  <SCORE.INTRA.POLAR>
0

>  <SCORE.INTRA.POLAR.0>
0

>  <SCORE.INTRA.REPUL>
0

>  <SCORE.INTRA.REPUL.0>
0

>  <SCORE.INTRA.SOLV>
0.84535

>  <SCORE.INTRA.SOLV.lig_0>
-110.958

>  <SCORE.INTRA.VDW>
0.552193

>  <SCORE.INTRA.VDW.0>
-2.34644

>  <SCORE.INTRA.norm>
0.0232238

>  <SCORE.RESTR>
0.185463

>  <SCORE.RESTR.CAVITY>
0.185463

>  <SCORE.RESTR.norm>
0.00441578

>  <SCORE.SYSTEM>
0

>  <SCORE.SYSTEM.CONST>
0

>  <SCORE.SYSTEM.DIHEDRAL>
0

>  <SCORE.SYSTEM.SOLV>
0

>  <SCORE.SYSTEM.norm>
0

>  <SCORE.heavy>
42

>  <SCORE.norm>
-0.579633

>  <RMSD>
1.757

$$$$
ligand
 OpenBabel11021811513D
libRbt.so/2013.1/901 2013/11/27
 42 48  0  0  0  0  0  0  0  0999 V2000
    4.5365  -35.8217  -12.7265 P   0  0  2  0  0  0  0  0  0  0  0  0
    8.2393  -35.5735  -16.1532 P   0  0  1  0  0  0  0  0  0  0  0  0
    4.1617  -37.1706  -12.1584 O   0  5  0  0  0  0  0  0  0  0  0  0
    7.6076  -34.2092  -16.2941 O   0  5  0  0  0  0  0  0  0  0  0  0
    3.6101  -34.6436  -12.5429 O   0  0  0  0  0  0  0  0  0  0  0  0
    9.5764  -35.8553  -16.7953 O   0  0  0  0  0  0  0  0  0  0  0  0
    4.0879  -36.9570  -15.0647 C   0  0  0  0  0  0  0  0  0  0  0  0
    9.1093  -35.0828  -13.7128 C   0  0  0  0  0  0  0  0  0  0  0  0
    4.8197  -35.9997  -14.3010 O   0  0  0  0  0  0  0  0  0  0  0  0
    8.3506  -35.9180  -14.5843 O   0  0  0  0  0  0  0  0  0  0  0  0
    4.9582  -37.4678  -16.2067 C   0  0  1  0  0  0  0  0  0  0  0  0
    8.2734  -34.7288  -12.4893 C   0  0  1  0  0  0  0  0  0  0  0  0
    4.1289  -37.9872  -17.2498 O   0  0  0  0  0  0  0  0  0  0  0  0
    8.7642  -33.5209  -11.9028 O   0  0  0  0  0  0  0  0  0  0  0  0
    5.8036  -36.3517  -16.7968 C   0  0  1  0  0  0  0  0  0  0  0  0
    6.8164  -34.5055  -12.8621 C   0  0  1  0  0  0  0  0  0  0  0  0
    7.1865  -36.6724  -16.6805 O   0  0  0  0  0  0  0  0  0  0  0  0
    5.9851  -35.4187  -12.1521 O   0  0  0  0  0  0  0  0  0  0  0  0
    5.4154  -36.2467  -18.2599 C   0  0  0  0  0  0  0  0  0  0  0  0
    6.4842  -33.0809  -12.4621 C   0  0  0  0  0  0  0  0  0  0  0  0
    4.3478  -37.3064  -18.4883 C   0  0  2  0  0  0  0  0  0  0  0  0
    7.7589  -32.5051  -11.8621 C   0  0  2  0  0  0  0  0  0  0  0  0
    0.9748  -33.3477  -17.7608 N   0  0  0  0  0  0  0  0  0  0  0  0
    2.1152  -33.6464  -17.1116 C   0  0  0  0  0  0  0  0  0  0  0  0
    2.8889  -34.7067  -17.4088 N   0  0  0  0  0  0  0  0  0  0  0  0
    2.5507  -35.5555  -18.4088 C   0  0  0  0  0  0  0  0  0  0  0  0
    1.3167  -35.2960  -19.1667 C   0  0  0  0  0  0  0  0  0  0  0  0
    0.5174  -34.1091  -18.7799 C   0  0  0  0  0  0  0  0  0  0  0  0
   -0.6318  -33.7976  -19.4263 N   0  0  0  0  0  0  0  0  0  0  0  0
    1.2184  -36.2737  -20.0869 N   0  0  0  0  0  0  0  0  0  0  0  0
    2.2937  -37.0881  -19.9327 C   0  0  0  0  0  0  0  0  0  0  0  0
    3.0881  -36.6600  -18.9327 N   0  0  0  0  0  0  0  0  0  0  0  0
    8.0054  -30.2915  -16.6173 N   0  0  0  0  0  0  0  0  0  0  0  0
    7.4846  -31.4726  -16.2360 C   0  0  0  0  0  0  0  0  0  0  0  0
    7.4916  -31.9177  -14.9666 N   0  0  0  0  0  0  0  0  0  0  0  0
    8.0408  -31.1765  -13.9741 C   0  0  0  0  0  0  0  0  0  0  0  0
    8.6309  -29.8720  -14.3116 C   0  0  0  0  0  0  0  0  0  0  0  0
    8.5839  -29.4517  -15.7320 C   0  0  0  0  0  0  0  0  0  0  0  0
    9.1044  -28.2643  -16.1283 N   0  0  0  0  0  0  0  0  0  0  0  0
    9.0972  -29.3523  -13.1603 N   0  0  0  0  0  0  0  0  0  0  0  0
    8.8297  -30.2456  -12.1731 C   0  0  0  0  0  0  0  0  0  0  0  0
    8.2007  -31.3321  -12.6577 N   0  0  0  0  0  0  0  0  0  0  0  0
  1  3  1  1  0  0  0
  1  5  2  0  0  0  0
  1  9  1  0  0  0  0
  1 18  1  0  0  0  0
  2  4  1  6  0  0  0
  2  6  2  0  0  0  0
  2 10  1  0  0  0  0
  2 17  1  0  0  0  0
  7  9  1  0  0  0  0
  8 10  1  0  0  0  0
 11  7  1  1  0  0  0
 11 13  1  0  0  0  0
 11 15  1  0  0  0  0
 12  8  1  6  0  0  0
 12 14  1  0  0  0  0
 12 16  1  0  0  0  0
 13 21  1  0  0  0  0
 14 22  1  0  0  0  0
 15 17  1  6  0  0  0
 15 19  1  0  0  0  0
 16 18  1  1  0  0  0
 16 20  1  0  0  0  0
 19 21  1  0  0  0  0
 20 22  1  0  0  0  0
 21 32  1  1  0  0  0
 22 42  1  6  0  0  0
 23 24  2  0  0  0  0
 23 28  1  0  0  0  0
 24 25  1  0  0  0  0
 25 26  2  0  0  0  0
 26 27  1  0  0  0  0
 26 32  1  0  0  0  0
 27 28  2  0  0  0  0
 27 30  1  0  0  0  0
 28 29  1  0  0  0  0
 30 31  2  0  0  0  0
 31 32  1  0  0  0  0
 33 34  2  0  0  0  0
 33 38  1  0  0  0  0
 34 35  1  0  0  0  0
 35 36  2  0  0  0  0
 36 37  1  0  0  0  0
 36 42  1  0  0  0  0
 37 38  2  0  0  0  0
 37 40  1  0  0  0  0
 38 39  1  0  0  0  0
 40 41  2  0  0  0  0
 41 42  1  0  0  0  0
M  CHG  2   3  -1   4  -1
M  END
>  <CHROM.1>
74.47882092,85.63718893,5.78628486,-34.37663102,-15.46443643,-2.98436369
-0.77922779,-0.49864762

>  <Name>
ligand

>  <RI>
0

>  <Rbt.Current_Directory>
/home/itssahil/PROJECTS/Mol_Feturizer/New_Systems/rnas/4QLN

>  <Rbt.Executable>
rbdock ($Id: //depot/dev/client3/rdock/2013.1/src/exe/rbdock.cxx#4 $)

>  <Rbt.Library>
libRbt.so (2013.1, Build901 2013/11/27)

>  <Rbt.Parameter_File>
/export/apps/rDock/src/rDock_2013.1_src/data/scripts/dock_solv.prm

>  <Rbt.Receptor>
prm/pocket_docking_2.prm

>  <SCORE>
-24.3693

>  <SCORE.INTER>
-25.5211

>  <SCORE.INTER.CONST>
1

>  <SCORE.INTER.POLAR>
0

>  <SCORE.INTER.ROT>
2

>  <SCORE.INTER.SOLV>
25.8356

>  <SCORE.INTER.VDW>
-30.5593

>  <SCORE.INTER.norm>
-0.607646

>  <SCORE.INTRA>
0.966713

>  <SCORE.INTRA.DIHEDRAL>
0.00106209

>  <SCORE.INTRA.DIHEDRAL.0>
2.39985

>  <SCORE.INTRA.POLAR>
0

>  <SCORE.INTRA.POLAR.0>
0

>  <SCORE.INTRA.REPUL>
0

>  <SCORE.INTRA.REPUL.0>
0

>  <SCORE.INTRA.SOLV>
0.847725

>  <SCORE.INTRA.SOLV.lig_0>
-110.958

>  <SCORE.INTRA.VDW>
0.542319

>  <SCORE.INTRA.VDW.0>
-2.34644

>  <SCORE.INTRA.norm>
0.023017

>  <SCORE.RESTR>
0.185099

>  <SCORE.RESTR.CAVITY>
0.185099

>  <SCORE.RESTR.norm>
0.00440712

>  <SCORE.SYSTEM>
0

>  <SCORE.SYSTEM.CONST>
0

>  <SCORE.SYSTEM.DIHEDRAL>
0

>  <SCORE.SYSTEM.SOLV>
0

>  <SCORE.SYSTEM.norm>
0

>  <SCORE.heavy>
42

>  <SCORE.norm>
-0.580222

>  <RMSD>
1.759

$$$$
ligand
 OpenBabel11021811513D
libRbt.so/2013.1/901 2013/11/27
 42 48  0  0  0  0  0  0  0  0999 V2000
    8.0088  -36.6656  -15.5859 P   0  0  2  0  0  0  0  0  0  0  0  0
    4.6515  -34.1771  -12.7486 P   0  0  1  0  0  0  0  0  0  0  0  0
    9.1663  -37.3566  -14.9036 O   0  5  0  0  0  0  0  0  0  0  0  0
    4.3165  -33.6649  -14.1291 O   0  5  0  0  0  0  0  0  0  0  0  0
    8.0457  -36.4296  -17.0769 O   0  0  0  0  0  0  0  0  0  0  0  0
    3.7108  -33.9130  -11.5976 O   0  0  0  0  0  0  0  0  0  0  0  0
    8.8649  -34.5168  -14.3183 C   0  0  0  0  0  0  0  0  0  0  0  0
    3.8589  -36.6300  -13.3041 C   0  0  0  0  0  0  0  0  0  0  0  0
    7.7669  -35.2507  -14.8575 O   0  0  0  0  0  0  0  0  0  0  0  0
    4.8959  -35.7656  -12.8458 O   0  0  0  0  0  0  0  0  0  0  0  0
    8.3931  -33.7067  -13.1168 C   0  0  1  0  0  0  0  0  0  0  0  0
    4.4047  -37.5528  -14.3865 C   0  0  1  0  0  0  0  0  0  0  0  0
    9.2816  -32.6077  -12.8973 O   0  0  0  0  0  0  0  0  0  0  0  0
    3.3322  -38.0194  -15.2086 O   0  0  0  0  0  0  0  0  0  0  0  0
    7.0016  -33.1413  -13.3458 C   0  0  1  0  0  0  0  0  0  0  0  0
    5.3952  -36.8268  -15.2829 C   0  0  1  0  0  0  0  0  0  0  0  0
    6.1083  -33.6213  -12.3455 O   0  0  0  0  0  0  0  0  0  0  0  0
    6.6625  -37.4756  -15.2366 O   0  0  0  0  0  0  0  0  0  0  0  0
    7.1297  -31.6325  -13.2478 C   0  0  0  0  0  0  0  0  0  0  0  0
    4.8294  -36.8908  -16.6884 C   0  0  0  0  0  0  0  0  0  0  0  0
    8.5983  -31.3532  -12.9651 C   0  0  2  0  0  0  0  0  0  0  0  0
    3.5184  -37.6563  -16.5789 C   0  0  2  0  0  0  0  0  0  0  0  0
    9.7372  -26.5142  -14.6578 N   0  0  0  0  0  0  0  0  0  0  0  0
    9.1679  -26.9196  -13.5076 C   0  0  0  0  0  0  0  0  0  0  0  0
    8.9330  -28.2094  -13.2038 N   0  0  0  0  0  0  0  0  0  0  0  0
    9.2684  -29.1989  -14.0659 C   0  0  0  0  0  0  0  0  0  0  0  0
    9.8962  -28.8359  -15.3460 C   0  0  0  0  0  0  0  0  0  0  0  0
   10.1218  -27.3947  -15.6087 C   0  0  0  0  0  0  0  0  0  0  0  0
   10.6947  -26.9743  -16.7623 N   0  0  0  0  0  0  0  0  0  0  0  0
   10.1233  -29.9889  -16.0028 N   0  0  0  0  0  0  0  0  0  0  0  0
    9.6804  -31.0013  -15.2142 C   0  0  0  0  0  0  0  0  0  0  0  0
    9.1709  -30.5307  -14.0595 N   0  0  0  0  0  0  0  0  0  0  0  0
    0.5651  -36.0651  -20.6185 N   0  0  0  0  0  0  0  0  0  0  0  0
    1.5872  -36.9401  -20.5826 C   0  0  0  0  0  0  0  0  0  0  0  0
    2.2615  -37.2563  -19.4624 N   0  0  0  0  0  0  0  0  0  0  0  0
    1.9364  -36.6925  -18.2740 C   0  0  0  0  0  0  0  0  0  0  0  0
    0.8288  -35.7252  -18.2313 C   0  0  0  0  0  0  0  0  0  0  0  0
    0.1351  -35.4297  -19.5072 C   0  0  0  0  0  0  0  0  0  0  0  0
   -0.8961  -34.5509  -19.5561 N   0  0  0  0  0  0  0  0  0  0  0  0
    0.7176  -35.3254  -16.9505 N   0  0  0  0  0  0  0  0  0  0  0  0
    1.6701  -35.9785  -16.2363 C   0  0  0  0  0  0  0  0  0  0  0  0
    2.3961  -36.7926  -17.0244 N   0  0  0  0  0  0  0  0  0  0  0  0
  1  3  1  1  0  0  0
  1  5  2  0  0  0  0
  1  9  1  0  0  0  0
  1 18  1  0  0  0  0
  2  4  1  6  0  0  0
  2  6  2  0  0  0  0
  2 10  1  0  0  0  0
  2 17  1  0  0  0  0
  7  9  1  0  0  0  0
  8 10  1  0  0  0  0
 11  7  1  6  0  0  0
 11 13  1  0  0  0  0
 11 15  1  0  0  0  0
 12  8  1  1  0  0  0
 12 14  1  0  0  0  0
 12 16  1  0  0  0  0
 13 21  1  0  0  0  0
 14 22  1  0  0  0  0
 15 17  1  1  0  0  0
 15 19  1  0  0  0  0
 16 18  1  6  0  0  0
 16 20  1  0  0  0  0
 19 21  1  0  0  0  0
 20 22  1  0  0  0  0
 21 32  1  6  0  0  0
 22 42  1  1  0  0  0
 23 24  2  0  0  0  0
 23 28  1  0  0  0  0
 24 25  1  0  0  0  0
 25 26  2  0  0  0  0
 26 27  1  0  0  0  0
 26 32  1  0  0  0  0
 27 28  2  0  0  0  0
 27 30  1  0  0  0  0
 28 29  1  0  0  0  0
 30 31  2  0  0  0  0
 31 32  1  0  0  0  0
 33 34  2  0  0  0  0
 33 38  1  0  0  0  0
 34 35  1  0  0  0  0
 35 36  2  0  0  0  0
 36 37  1  0  0  0  0
 36 42  1  0  0  0  0
 37 38  2  0  0  0  0
 37 40  1  0  0  0  0
 38 39  1  0  0  0  0
 40 41  2  0  0  0  0
 41 42  1  0  0  0  0
M  CHG  2   3  -1   4  -1
M  END
>  <CHROM.1>
-147.36285900,-151.95962293,5.90742391,-34.01039755,-15.27714657,-2.61444615
-0.66782632,-0.39014279

>  <Name>
ligand

>  <RI>
0

>  <Rbt.Current_Directory>
/home/itssahil/PROJECTS/Mol_Feturizer/New_Systems/rnas/4QLN

>  <Rbt.Executable>
rbdock ($Id: //depot/dev/client3/rdock/2013.1/src/exe/rbdock.cxx#4 $)

>  <Rbt.Library>
libRbt.so (2013.1, Build901 2013/11/27)

>  <Rbt.Parameter_File>
/export/apps/rDock/src/rDock_2013.1_src/data/scripts/dock_solv.prm

>  <Rbt.Receptor>
prm/pocket_docking_3.prm

>  <SCORE>
-21.0282

>  <SCORE.INTER>
-21.4437

>  <SCORE.INTER.CONST>
1

>  <SCORE.INTER.POLAR>
0

>  <SCORE.INTER.ROT>
2

>  <SCORE.INTER.SOLV>
33.0813

>  <SCORE.INTER.VDW>
-30.2562

>  <SCORE.INTER.norm>
-0.510564

>  <SCORE.INTRA>
0.415512

>  <SCORE.INTRA.DIHEDRAL>
0.00115705

>  <SCORE.INTRA.DIHEDRAL.0>
2.39985

>  <SCORE.INTRA.POLAR>
0

>  <SCORE.INTRA.POLAR.0>
0

>  <SCORE.INTRA.REPUL>
0

>  <SCORE.INTRA.REPUL.0>
0

>  <SCORE.INTRA.SOLV>
-0.1377

>  <SCORE.INTRA.SOLV.lig_0>
-110.958

>  <SCORE.INTRA.VDW>
0.483784

>  <SCORE.INTRA.VDW.0>
-2.34644

>  <SCORE.INTRA.norm>
0.00989315

>  <SCORE.RESTR>
0

>  <SCORE.RESTR.CAVITY>
0

>  <SCORE.RESTR.norm>
0

>  <SCORE.SYSTEM>
0

>  <SCORE.SYSTEM.CONST>
0

>  <SCORE.SYSTEM.DIHEDRAL>
0

>  <SCORE.SYSTEM.SOLV>
0

>  <SCORE.SYSTEM.norm>
0

>  <SCORE.heavy>
42

>  <SCORE.norm>
-0.500671

>  <RMSD>
1.761

$$$$
ligand
 OpenBabel11021811513D
libRbt.so/2013.1/901 2013/11/27
 42 48  0  0  0  0  0  0  0  0999 V2000
    4.2006  -35.5890  -12.5523 P   0  0  2  0  0  0  0  0  0  0  0  0
    8.1041  -35.7601  -15.7536 P   0  0  1  0  0  0  0  0  0  0  0  0
    3.7401  -36.8712  -11.8990 O   0  5  0  0  0  0  0  0  0  0  0  0
    7.5362  -34.3915  -16.0450 O   0  5  0  0  0  0  0  0  0  0  0  0
    3.3125  -34.3681  -12.5237 O   0  0  0  0  0  0  0  0  0  0  0  0
    9.4642  -36.1413  -16.2868 O   0  0  0  0  0  0  0  0  0  0  0  0
    3.8447  -36.9019  -14.8120 C   0  0  0  0  0  0  0  0  0  0  0  0
    8.8489  -35.0949  -13.3130 C   0  0  0  0  0  0  0  0  0  0  0  0
    4.5680  -35.9093  -14.0864 O   0  0  0  0  0  0  0  0  0  0  0  0
    8.1099  -35.9741  -14.1577 O   0  0  0  0  0  0  0  0  0  0  0  0
    4.7592  -37.5374  -15.8524 C   0  0  1  0  0  0  0  0  0  0  0  0
    7.9577  -34.6098  -12.1766 C   0  0  1  0  0  0  0  0  0  0  0  0
    3.9722  -38.1141  -16.8981 O   0  0  0  0  0  0  0  0  0  0  0  0
    8.4609  -33.3744  -11.6626 O   0  0  0  0  0  0  0  0  0  0  0  0
    5.6811  -36.5051  -16.4794 C   0  0  1  0  0  0  0  0  0  0  0  0
    6.5349  -34.3686  -12.6555 C   0  0  1  0  0  0  0  0  0  0  0  0
    7.0411  -36.8625  -16.2523 O   0  0  0  0  0  0  0  0  0  0  0  0
    5.6281  -35.1891  -11.9250 O   0  0  0  0  0  0  0  0  0  0  0  0
    5.3835  -36.5111  -17.9673 C   0  0  0  0  0  0  0  0  0  0  0  0
    6.2366  -32.9047  -12.3955 C   0  0  0  0  0  0  0  0  0  0  0  0
    4.2899  -37.5487  -18.1727 C   0  0  2  0  0  0  0  0  0  0  0  0
    7.4960  -32.3246  -11.7677 C   0  0  2  0  0  0  0  0  0  0  0  0
    0.8841  -33.5675  -17.8134 N   0  0  0  0  0  0  0  0  0  0  0  0
    1.9519  -33.8674  -17.0512 C   0  0  0  0  0  0  0  0  0  0  0  0
    2.7453  -34.9338  -17.2622 N   0  0  0  0  0  0  0  0  0  0  0  0
    2.5042  -35.7880  -18.2855 C   0  0  0  0  0  0  0  0  0  0  0  0
    1.3539  -35.5276  -19.1651 C   0  0  0  0  0  0  0  0  0  0  0  0
    0.5268  -34.3339  -18.8682 C   0  0  0  0  0  0  0  0  0  0  0  0
   -0.5500  -34.0211  -19.6287 N   0  0  0  0  0  0  0  0  0  0  0  0
    1.3427  -36.5114  -20.0839 N   0  0  0  0  0  0  0  0  0  0  0  0
    2.3923  -37.3301  -19.8173 C   0  0  0  0  0  0  0  0  0  0  0  0
    3.0849  -36.8990  -18.7455 N   0  0  0  0  0  0  0  0  0  0  0  0
    7.8726  -30.3930  -16.6359 N   0  0  0  0  0  0  0  0  0  0  0  0
    7.2537  -31.5009  -16.1876 C   0  0  0  0  0  0  0  0  0  0  0  0
    7.2387  -31.8781  -14.8964 N   0  0  0  0  0  0  0  0  0  0  0  0
    7.8658  -31.1387  -13.9499 C   0  0  0  0  0  0  0  0  0  0  0  0
    8.5653  -29.9118  -14.3617 C   0  0  0  0  0  0  0  0  0  0  0  0
    8.5361  -29.5637  -15.8019 C   0  0  0  0  0  0  0  0  0  0  0  0
    9.1550  -28.4501  -16.2656 N   0  0  0  0  0  0  0  0  0  0  0  0
    9.0923  -29.3770  -13.2440 N   0  0  0  0  0  0  0  0  0  0  0  0
    8.7599  -30.1898  -12.2083 C   0  0  0  0  0  0  0  0  0  0  0  0
    8.0296  -31.2391  -12.6286 N   0  0  0  0  0  0  0  0  0  0  0  0
  1  3  1  1  0  0  0
  1  5  2  0  0  0  0
  1  9  1  0  0  0  0
  1 18  1  0  0  0  0
  2  4  1  6  0  0  0
  2  6  2  0  0  0  0
  2 10  1  0  0  0  0
  2 17  1  0  0  0  0
  7  9  1  0  0  0  0
  8 10  1  0  0  0  0
 11  7  1  1  0  0  0
 11 13  1  0  0  0  0
 11 15  1  0  0  0  0
 12  8  1  6  0  0  0
 12 14  1  0  0  0  0
 12 16  1  0  0  0  0
 13 21  1  0  0  0  0
 14 22  1  0  0  0  0
 15 17  1  6  0  0  0
 15 19  1  0  0  0  0
 16 18  1  1  0  0  0
 16 20  1  0  0  0  0
 19 21  1  0  0  0  0
 20 22  1  0  0  0  0
 21 32  1  1  0  0  0
 22 42  1  6  0  0  0
 23 24  2  0  0  0  0
 23 28  1  0  0  0  0
 24 25  1  0  0  0  0
 25 26  2  0  0  0  0
 26 27  1  0  0  0  0
 26 32  1  0  0  0  0
 27 28  2  0  0  0  0
 27 30  1  0  0  0  0
 28 29  1  0  0  0  0
 30 31  2  0  0  0  0
 31 32  1  0  0  0  0
 33 34  2  0  0  0  0
 33 38  1  0  0  0  0
 34 35  1  0  0  0  0
 35 36  2  0  0  0  0
 36 37  1  0  0  0  0
 36 42  1  0  0  0  0
 37 38  2  0  0  0  0
 37 40  1  0  0  0  0
 38 39  1  0  0  0  0
 40 41  2  0  0  0  0
 41 42  1  0  0  0  0
M  CHG  2   3  -1   4  -1
M  END
>  <CHROM.1>
69.18686494,91.03304279,5.63233889,-34.42503991,-15.30163546,-3.03596310
-0.80643275,-0.60174541

>  <Name>
ligand

>  <RI>
0

>  <Rbt.Current_Directory>
/home/itssahil/PROJECTS/Mol_Feturizer/New_Systems/rnas/4QLN

>  <Rbt.Executable>
rbdock ($Id: //depot/dev/client3/rdock/2013.1/src/exe/rbdock.cxx#4 $)

>  <Rbt.Library>
libRbt.so (2013.1, Build901 2013/11/27)

>  <Rbt.Parameter_File>
/export/apps/rDock/src/rDock_2013.1_src/data/scripts/dock_solv.prm

>  <Rbt.Receptor>
prm/pocket_docking_3.prm

>  <SCORE>
-24.6591

>  <SCORE.INTER>
-25.3864

>  <SCORE.INTER.CONST>
1

>  <SCORE.INTER.POLAR>
0

>  <SCORE.INTER.ROT>
2

>  <SCORE.INTER.SOLV>
25.4528

>  <SCORE.INTER.VDW>
-30.3418

>  <SCORE.INTER.norm>
-0.604437

>  <SCORE.INTRA>
0.695991

>  <SCORE.INTRA.DIHEDRAL>
0.00102184

>  <SCORE.INTRA.DIHEDRAL.0>
2.39985

>  <SCORE.INTRA.POLAR>
0

>  <SCORE.INTRA.POLAR.0>
0

>  <SCORE.INTRA.REPUL>
0

>  <SCORE.INTRA.REPUL.0>
0

>  <SCORE.INTRA.SOLV>
0.684151

>  <SCORE.INTRA.SOLV.lig_0>
-110.958

>  <SCORE.INTRA.VDW>
0.353405

>  <SCORE.INTRA.VDW.0>
-2.34644

>  <SCORE.INTRA.norm>
0.0165712

>  <SCORE.RESTR>
0.0312901

>  <SCORE.RESTR.CAVITY>
0.0312901

>  <SCORE.RESTR.norm>
0.000745002

>  <SCORE.SYSTEM>
0

>  <SCORE.SYSTEM.CONST>
0

>  <SCORE.SYSTEM.DIHEDRAL>
0

>  <SCORE.SYSTEM.SOLV>
0

>  <SCORE.SYSTEM.norm>
0

>  <SCORE.heavy>
42

>  <SCORE.norm>
-0.587121

>  <RMSD>
1.766

$$$$
ligand
 OpenBabel11021811513D
libRbt.so/2013.1/901 2013/11/27
 42 48  0  0  0  0  0  0  0  0999 V2000
    8.8731  -36.0285  -15.9939 P   0  0  2  0  0  0  0  0  0  0  0  0
    4.7916  -35.0517  -13.1830 P   0  0  1  0  0  0  0  0  0  0  0  0
   10.0756  -36.6614  -15.3334 O   0  5  0  0  0  0  0  0  0  0  0  0
    4.4975  -34.2500  -14.4284 O   0  5  0  0  0  0  0  0  0  0  0  0
    9.0105  -35.3914  -17.3560 O   0  0  0  0  0  0  0  0  0  0  0  0
    3.7041  -35.2847  -12.1619 O   0  0  0  0  0  0  0  0  0  0  0  0
    9.1181  -34.1910  -14.1176 C   0  0  0  0  0  0  0  0  0  0  0  0
    4.6007  -37.3598  -14.4437 C   0  0  0  0  0  0  0  0  0  0  0  0
    8.2624  -34.9335  -14.9845 O   0  0  0  0  0  0  0  0  0  0  0  0
    5.3775  -36.4829  -13.6312 O   0  0  0  0  0  0  0  0  0  0  0  0
    8.3646  -33.8381  -12.8407 C   0  0  1  0  0  0  0  0  0  0  0  0
    5.4379  -37.8387  -15.6230 C   0  0  1  0  0  0  0  0  0  0  0  0
    8.9716  -32.7006  -12.2216 O   0  0  0  0  0  0  0  0  0  0  0  0
    4.5788  -38.2465  -16.6905 O   0  0  0  0  0  0  0  0  0  0  0  0
    6.9153  -33.4896  -13.1348 C   0  0  1  0  0  0  0  0  0  0  0  0
    6.3369  -36.7305  -16.1478 C   0  0  1  0  0  0  0  0  0  0  0  0
    6.0478  -34.3762  -12.4348 O   0  0  0  0  0  0  0  0  0  0  0  0
    7.7019  -37.1301  -16.0682 O   0  0  0  0  0  0  0  0  0  0  0  0
    6.7084  -32.0674  -12.6480 C   0  0  0  0  0  0  0  0  0  0  0  0
    5.9438  -36.5079  -17.5954 C   0  0  0  0  0  0  0  0  0  0  0  0
    8.0472  -31.6184  -12.0816 C   0  0  2  0  0  0  0  0  0  0  0  0
    4.8219  -37.4956  -17.8825 C   0  0  2  0  0  0  0  0  0  0  0  0
    8.4655  -29.2968  -16.7734 N   0  0  0  0  0  0  0  0  0  0  0  0
    7.9037  -30.4716  -16.4336 C   0  0  0  0  0  0  0  0  0  0  0  0
    7.8695  -30.9476  -15.1753 N   0  0  0  0  0  0  0  0  0  0  0  0
    8.4149  -30.2474  -14.1520 C   0  0  0  0  0  0  0  0  0  0  0  0
    9.0484  -28.9517  -14.4431 C   0  0  0  0  0  0  0  0  0  0  0  0
    9.0470  -28.4952  -15.8532 C   0  0  0  0  0  0  0  0  0  0  0  0
    9.6086  -27.3142  -16.2076 N   0  0  0  0  0  0  0  0  0  0  0  0
    9.5024  -28.4741  -13.2692 N   0  0  0  0  0  0  0  0  0  0  0  0
    9.1883  -29.3826  -12.3105 C   0  0  0  0  0  0  0  0  0  0  0  0
    8.5398  -30.4395  -12.8365 N   0  0  0  0  0  0  0  0  0  0  0  0
    1.7737  -33.3135  -16.9927 N   0  0  0  0  0  0  0  0  0  0  0  0
    2.9177  -33.6961  -16.3956 C   0  0  0  0  0  0  0  0  0  0  0  0
    3.6006  -34.8057  -16.7302 N   0  0  0  0  0  0  0  0  0  0  0  0
    3.1586  -35.6218  -17.7174 C   0  0  0  0  0  0  0  0  0  0  0  0
    1.9140  -35.2707  -18.4187 C   0  0  0  0  0  0  0  0  0  0  0  0
    1.2197  -34.0327  -17.9924 C   0  0  0  0  0  0  0  0  0  0  0  0
    0.0673  -33.6363  -18.5866 N   0  0  0  0  0  0  0  0  0  0  0  0
    1.7067  -36.2328  -19.3375 N   0  0  0  0  0  0  0  0  0  0  0  0
    2.7280  -37.1216  -19.2333 C   0  0  0  0  0  0  0  0  0  0  0  0
    3.5927  -36.7578  -18.2684 N   0  0  0  0  0  0  0  0  0  0  0  0
  1  3  1  1  0  0  0
  1  5  2  0  0  0  0
  1  9  1  0  0  0  0
  1 18  1  0  0  0  0
  2  4  1  6  0  0  0
  2  6  2  0  0  0  0
  2 10  1  0  0  0  0
  2 17  1  0  0  0  0
  7  9  1  0  0  0  0
  8 10  1  0  0  0  0
 11  7  1  6  0  0  0
 11 13  1  0  0  0  0
 11 15  1  0  0  0  0
 12  8  1  1  0  0  0
 12 14  1  0  0  0  0
 12 16  1  0  0  0  0
 13 21  1  0  0  0  0
 14 22  1  0  0  0  0
 15 17  1  1  0  0  0
 15 19  1  0  0  0  0
 16 18  1  6  0  0  0
 16 20  1  0  0  0  0
 19 21  1  0  0  0  0
 20 22  1  0  0  0  0
 21 32  1  6  0  0  0
 22 42  1  1  0  0  0
 23 24  2  0  0  0  0
 23 28  1  0  0  0  0
 24 25  1  0  0  0  0
 25 26  2  0  0  0  0
 26 27  1  0  0  0  0
 26 32  1  0  0  0  0
 27 28  2  0  0  0  0
 27 30  1  0  0  0  0
 28 29  1  0  0  0  0
 30 31  2  0  0  0  0
 31 32  1  0  0  0  0
 33 34  2  0  0  0  0
 33 38  1  0  0  0  0
 34 35  1  0  0  0  0
 35 36  2  0  0  0  0
 36 37  1  0  0  0  0
 36 42  1  0  0  0  0
 37 38  2  0  0  0  0
 37 40  1  0  0  0  0
 38 39  1  0  0  0  0
 40 41  2  0  0  0  0
 41 42  1  0  0  0  0
M  CHG  2   3  -1   4  -1
M  END
>  <CHROM.1>
80.66535746,78.71569197,6.22732771,-34.04560457,-15.33587558,-0.72163959
0.56333887,3.10273003

>  <Name>
ligand

>  <RI>
0

>  <Rbt.Current_Directory>
/home/itssahil/PROJECTS/Mol_Feturizer/New_Systems/rnas/4QLN

>  <Rbt.Executable>
rbdock ($Id: //depot/dev/client3/rdock/2013.1/src/exe/rbdock.cxx#4 $)

>  <Rbt.Library>
libRbt.so (2013.1, Build901 2013/11/27)

>  <Rbt.Parameter_File>
/export/apps/rDock/src/rDock_2013.1_src/data/scripts/dock_solv.prm

>  <Rbt.Receptor>
prm/pocket_docking_2.prm

>  <SCORE>
-20.0132

>  <SCORE.INTER>
-22.8524

>  <SCORE.INTER.CONST>
1

>  <SCORE.INTER.POLAR>
0

>  <SCORE.INTER.ROT>
2

>  <SCORE.INTER.SOLV>
27.2773

>  <SCORE.INTER.VDW>
-29.2607

>  <SCORE.INTER.norm>
-0.544104

>  <SCORE.INTRA>
1.74713

>  <SCORE.INTRA.DIHEDRAL>
0.00100504

>  <SCORE.INTRA.DIHEDRAL.0>
2.39985

>  <SCORE.INTRA.POLAR>
0

>  <SCORE.INTRA.POLAR.0>
0

>  <SCORE.INTRA.REPUL>
0

>  <SCORE.INTRA.REPUL.0>
0

>  <SCORE.INTRA.SOLV>
1.05553

>  <SCORE.INTRA.SOLV.lig_0>
-110.958

>  <SCORE.INTRA.VDW>
1.21887

>  <SCORE.INTRA.VDW.0>
-2.34644

>  <SCORE.INTRA.norm>
0.0415984

>  <SCORE.RESTR>
1.09203

>  <SCORE.RESTR.CAVITY>
1.09203

>  <SCORE.RESTR.norm>
0.0260007

>  <SCORE.SYSTEM>
0

>  <SCORE.SYSTEM.CONST>
0

>  <SCORE.SYSTEM.DIHEDRAL>
0

>  <SCORE.SYSTEM.SOLV>
0

>  <SCORE.SYSTEM.norm>
0

>  <SCORE.heavy>
42

>  <SCORE.norm>
-0.476505

>  <RMSD>
1.770

$$$$
ligand
 OpenBabel11021811513D
libRbt.so/2013.1/901 2013/11/27
 42 48  0  0  0  0  0  0  0  0999 V2000
    8.8692  -36.0248  -16.0039 P   0  0  2  0  0  0  0  0  0  0  0  0
    4.7897  -35.0707  -13.1823 P   0  0  1  0  0  0  0  0  0  0  0  0
   10.0756  -36.6546  -15.3474 O   0  5  0  0  0  0  0  0  0  0  0  0
    4.4899  -34.2672  -14.4252 O   0  5  0  0  0  0  0  0  0  0  0  0
    9.0014  -35.3838  -17.3647 O   0  0  0  0  0  0  0  0  0  0  0  0
    3.7052  -35.3104  -12.1596 O   0  0  0  0  0  0  0  0  0  0  0  0
    9.1109  -34.1909  -14.1235 C   0  0  0  0  0  0  0  0  0  0  0  0
    4.6052  -37.3765  -14.4482 C   0  0  0  0  0  0  0  0  0  0  0  0
    8.2563  -34.9347  -14.9905 O   0  0  0  0  0  0  0  0  0  0  0  0
    5.3803  -36.4985  -13.6352 O   0  0  0  0  0  0  0  0  0  0  0  0
    8.3587  -33.8440  -12.8443 C   0  0  1  0  0  0  0  0  0  0  0  0
    5.4419  -37.8493  -15.6304 C   0  0  1  0  0  0  0  0  0  0  0  0
    8.9624  -32.7057  -12.2237 O   0  0  0  0  0  0  0  0  0  0  0  0
    4.5822  -38.2579  -16.6971 O   0  0  0  0  0  0  0  0  0  0  0  0
    6.9074  -33.5005  -13.1346 C   0  0  1  0  0  0  0  0  0  0  0  0
    6.3355  -36.7363  -16.1543 C   0  0  1  0  0  0  0  0  0  0  0  0
    6.0448  -34.3922  -12.4350 O   0  0  0  0  0  0  0  0  0  0  0  0
    7.7022  -37.1308  -16.0784 O   0  0  0  0  0  0  0  0  0  0  0  0
    6.6959  -32.0803  -12.6439 C   0  0  0  0  0  0  0  0  0  0  0  0
    5.9386  -36.5117  -17.6005 C   0  0  0  0  0  0  0  0  0  0  0  0
    8.0341  -31.6274  -12.0791 C   0  0  2  0  0  0  0  0  0  0  0  0
    4.8199  -37.5031  -17.8878 C   0  0  2  0  0  0  0  0  0  0  0  0
    8.4522  -29.3024  -16.7693 N   0  0  0  0  0  0  0  0  0  0  0  0
    7.8981  -30.4815  -16.4316 C   0  0  0  0  0  0  0  0  0  0  0  0
    7.8628  -30.9578  -15.1735 N   0  0  0  0  0  0  0  0  0  0  0  0
    8.3991  -30.2536  -14.1481 C   0  0  0  0  0  0  0  0  0  0  0  0
    9.0239  -28.9531  -14.4368 C   0  0  0  0  0  0  0  0  0  0  0  0
    9.0242  -28.4965  -15.8470 C   0  0  0  0  0  0  0  0  0  0  0  0
    9.5781  -27.3113  -16.1993 N   0  0  0  0  0  0  0  0  0  0  0  0
    9.4699  -28.4721  -13.2612 N   0  0  0  0  0  0  0  0  0  0  0  0
    9.1591  -29.3830  -12.3038 C   0  0  0  0  0  0  0  0  0  0  0  0
    8.5206  -30.4448  -12.8322 N   0  0  0  0  0  0  0  0  0  0  0  0
    1.8088  -33.2838  -17.0492 N   0  0  0  0  0  0  0  0  0  0  0  0
    2.9621  -33.6568  -16.4641 C   0  0  0  0  0  0  0  0  0  0  0  0
    3.6334  -34.7781  -16.7827 N   0  0  0  0  0  0  0  0  0  0  0  0
    3.1688  -35.6171  -17.7399 C   0  0  0  0  0  0  0  0  0  0  0  0
    1.9128  -35.2778  -18.4264 C   0  0  0  0  0  0  0  0  0  0  0  0
    1.2325  -34.0257  -18.0194 C   0  0  0  0  0  0  0  0  0  0  0  0
    0.0709  -33.6388  -18.6017 N   0  0  0  0  0  0  0  0  0  0  0  0
    1.6836  -36.2623  -19.3159 N   0  0  0  0  0  0  0  0  0  0  0  0
    2.7026  -37.1533  -19.2080 C   0  0  0  0  0  0  0  0  0  0  0  0
    3.5871  -36.7692  -18.2694 N   0  0  0  0  0  0  0  0  0  0  0  0
  1  3  1  1  0  0  0
  1  5  2  0  0  0  0
  1  9  1  0  0  0  0
  1 18  1  0  0  0  0
  2  4  1  6  0  0  0
  2  6  2  0  0  0  0
  2 10  1  0  0  0  0
  2 17  1  0  0  0  0
  7  9  1  0  0  0  0
  8 10  1  0  0  0  0
 11  7  1  6  0  0  0
 11 13  1  0  0  0  0
 11 15  1  0  0  0  0
 12  8  1  1  0  0  0
 12 14  1  0  0  0  0
 12 16  1  0  0  0  0
 13 21  1  0  0  0  0
 14 22  1  0  0  0  0
 15 17  1  1  0  0  0
 15 19  1  0  0  0  0
 16 18  1  6  0  0  0
 16 20  1  0  0  0  0
 19 21  1  0  0  0  0
 20 22  1  0  0  0  0
 21 32  1  6  0  0  0
 22 42  1  1  0  0  0
 23 24  2  0  0  0  0
 23 28  1  0  0  0  0
 24 25  1  0  0  0  0
 25 26  2  0  0  0  0
 26 27  1  0  0  0  0
 26 32  1  0  0  0  0
 27 28  2  0  0  0  0
 27 30  1  0  0  0  0
 28 29  1  0  0  0  0
 30 31  2  0  0  0  0
 31 32  1  0  0  0  0
 33 34  2  0  0  0  0
 33 38  1  0  0  0  0
 34 35  1  0  0  0  0
 35 36  2  0  0  0  0
 36 37  1  0  0  0  0
 36 42  1  0  0  0  0
 37 38  2  0  0  0  0
 37 40  1  0  0  0  0
 38 39  1  0  0  0  0
 40 41  2  0  0  0  0
 41 42  1  0  0  0  0
M  CHG  2   3  -1   4  -1
M  END
>  <CHROM.1>
80.25192776,80.67056235,6.22286213,-34.05042419,-15.34144907,-0.72178512
0.56990081,3.09953149

>  <Name>
ligand

>  <RI>
0

>  <Rbt.Current_Directory>
/home/itssahil/PROJECTS/Mol_Feturizer/New_Systems/rnas/4QLN

>  <Rbt.Executable>
rbdock ($Id: //depot/dev/client3/rdock/2013.1/src/exe/rbdock.cxx#4 $)

>  <Rbt.Library>
libRbt.so (2013.1, Build901 2013/11/27)

>  <Rbt.Parameter_File>
/export/apps/rDock/src/rDock_2013.1_src/data/scripts/dock_solv.prm

>  <Rbt.Receptor>
prm/pocket_docking_2.prm

>  <SCORE>
-20.0472

>  <SCORE.INTER>
-22.684

>  <SCORE.INTER.CONST>
1

>  <SCORE.INTER.POLAR>
0

>  <SCORE.INTER.ROT>
2

>  <SCORE.INTER.SOLV>
27.2679

>  <SCORE.INTER.VDW>
-29.1453

>  <SCORE.INTER.norm>
-0.540094

>  <SCORE.INTRA>
1.56147

>  <SCORE.INTRA.DIHEDRAL>
0.00104193

>  <SCORE.INTRA.DIHEDRAL.0>
2.39985

>  <SCORE.INTRA.POLAR>
0

>  <SCORE.INTRA.POLAR.0>
0

>  <SCORE.INTRA.REPUL>
0

>  <SCORE.INTRA.REPUL.0>
0

>  <SCORE.INTRA.SOLV>
1.00309

>  <SCORE.INTRA.SOLV.lig_0>
-110.958

>  <SCORE.INTRA.VDW>
1.0594

>  <SCORE.INTRA.VDW.0>
-2.34644

>  <SCORE.INTRA.norm>
0.0371778

>  <SCORE.RESTR>
1.07527

>  <SCORE.RESTR.CAVITY>
1.07527

>  <SCORE.RESTR.norm>
0.0256018

>  <SCORE.SYSTEM>
0

>  <SCORE.SYSTEM.CONST>
0

>  <SCORE.SYSTEM.DIHEDRAL>
0

>  <SCORE.SYSTEM.SOLV>
0

>  <SCORE.SYSTEM.norm>
0

>  <SCORE.heavy>
42

>  <SCORE.norm>
-0.477315

>  <RMSD>
1.772

$$$$
ligand
 OpenBabel11021811513D
libRbt.so/2013.1/901 2013/11/27
 42 48  0  0  0  0  0  0  0  0999 V2000
    8.8766  -36.0295  -15.9904 P   0  0  2  0  0  0  0  0  0  0  0  0
    4.8066  -35.0594  -13.1605 P   0  0  1  0  0  0  0  0  0  0  0  0
   10.0837  -36.6593  -15.3352 O   0  5  0  0  0  0  0  0  0  0  0  0
    4.5048  -34.2593  -14.4052 O   0  5  0  0  0  0  0  0  0  0  0  0
    9.0061  -35.3931  -17.3536 O   0  0  0  0  0  0  0  0  0  0  0  0
    3.7245  -35.2940  -12.1341 O   0  0  0  0  0  0  0  0  0  0  0  0
    9.1267  -34.1901  -14.1166 C   0  0  0  0  0  0  0  0  0  0  0  0
    4.6146  -37.3689  -14.4186 C   0  0  0  0  0  0  0  0  0  0  0  0
    8.2684  -34.9351  -14.9788 O   0  0  0  0  0  0  0  0  0  0  0  0
    5.3935  -36.4896  -13.6106 O   0  0  0  0  0  0  0  0  0  0  0  0
    8.3786  -33.8378  -12.8364 C   0  0  1  0  0  0  0  0  0  0  0  0
    5.4472  -37.8468  -15.6016 C   0  0  1  0  0  0  0  0  0  0  0  0
    8.9861  -32.6986  -12.2211 O   0  0  0  0  0  0  0  0  0  0  0  0
    4.5839  -38.2573  -16.6646 O   0  0  0  0  0  0  0  0  0  0  0  0
    6.9272  -33.4927  -13.1238 C   0  0  1  0  0  0  0  0  0  0  0  0
    6.3412  -36.7371  -16.1315 C   0  0  1  0  0  0  0  0  0  0  0  0
    6.0649  -34.3807  -12.4189 O   0  0  0  0  0  0  0  0  0  0  0  0
    7.7074  -37.1337  -16.0582 O   0  0  0  0  0  0  0  0  0  0  0  0
    6.7195  -32.0706  -12.6370 C   0  0  0  0  0  0  0  0  0  0  0  0
    5.9407  -36.5164  -17.5774 C   0  0  0  0  0  0  0  0  0  0  0  0
    8.0600  -31.6182  -12.0774 C   0  0  2  0  0  0  0  0  0  0  0  0
    4.8195  -37.5067  -17.8584 C   0  0  2  0  0  0  0  0  0  0  0  0
    8.4518  -29.2998  -16.7731 N   0  0  0  0  0  0  0  0  0  0  0  0
    7.8943  -30.4757  -16.4297 C   0  0  0  0  0  0  0  0  0  0  0  0
    7.8669  -30.9507  -15.1709 N   0  0  0  0  0  0  0  0  0  0  0  0
    8.4152  -30.2482  -14.1506 C   0  0  0  0  0  0  0  0  0  0  0  0
    9.0443  -28.9513  -14.4457 C   0  0  0  0  0  0  0  0  0  0  0  0
    9.0355  -28.4960  -15.8562 C   0  0  0  0  0  0  0  0  0  0  0  0
    9.5927  -27.3140  -16.2142 N   0  0  0  0  0  0  0  0  0  0  0  0
    9.5024  -28.4715  -13.2743 N   0  0  0  0  0  0  0  0  0  0  0  0
    9.1947  -29.3799  -12.3134 C   0  0  0  0  0  0  0  0  0  0  0  0
    8.5464  -30.4389  -12.8355 N   0  0  0  0  0  0  0  0  0  0  0  0
    1.7969  -33.3004  -16.9965 N   0  0  0  0  0  0  0  0  0  0  0  0
    2.9484  -33.6762  -16.4097 C   0  0  0  0  0  0  0  0  0  0  0  0
    3.6232  -34.7935  -16.7350 N   0  0  0  0  0  0  0  0  0  0  0  0
    3.1642  -35.6252  -17.7013 C   0  0  0  0  0  0  0  0  0  0  0  0
    1.9104  -35.2824  -18.3902 C   0  0  0  0  0  0  0  0  0  0  0  0
    1.2261  -34.0350  -17.9754 C   0  0  0  0  0  0  0  0  0  0  0  0
    0.0662  -33.6454  -18.5593 N   0  0  0  0  0  0  0  0  0  0  0  0
    1.6868  -36.2596  -19.2891 N   0  0  0  0  0  0  0  0  0  0  0  0
    2.7071  -37.1496  -19.1845 C   0  0  0  0  0  0  0  0  0  0  0  0
    3.5869  -36.7719  -18.2388 N   0  0  0  0  0  0  0  0  0  0  0  0
  1  3  1  1  0  0  0
  1  5  2  0  0  0  0
  1  9  1  0  0  0  0
  1 18  1  0  0  0  0
  2  4  1  6  0  0  0
  2  6  2  0  0  0  0
  2 10  1  0  0  0  0
  2 17  1  0  0  0  0
  7  9  1  0  0  0  0
  8 10  1  0  0  0  0
 11  7  1  6  0  0  0
 11 13  1  0  0  0  0
 11 15  1  0  0  0  0
 12  8  1  1  0  0  0
 12 14  1  0  0  0  0
 12 16  1  0  0  0  0
 13 21  1  0  0  0  0
 14 22  1  0  0  0  0
 15 17  1  1  0  0  0
 15 19  1  0  0  0  0
 16 18  1  6  0  0  0
 16 20  1  0  0  0  0
 19 21  1  0  0  0  0
 20 22  1  0  0  0  0
 21 32  1  6  0  0  0
 22 42  1  1  0  0  0
 23 24  2  0  0  0  0
 23 28  1  0  0  0  0
 24 25  1  0  0  0  0
 25 26  2  0  0  0  0
 26 27  1  0  0  0  0
 26 32  1  0  0  0  0
 27 28  2  0  0  0  0
 27 30  1  0  0  0  0
 28 29  1  0  0  0  0
 30 31  2  0  0  0  0
 31 32  1  0  0  0  0
 33 34  2  0  0  0  0
 33 38  1  0  0  0  0
 34 35  1  0  0  0  0
 35 36  2  0  0  0  0
 36 37  1  0  0  0  0
 36 42  1  0  0  0  0
 37 38  2  0  0  0  0
 37 40  1  0  0  0  0
 38 39  1  0  0  0  0
 40 41  2  0  0  0  0
 41 42  1  0  0  0  0
M  CHG  2   3  -1   4  -1
M  END
>  <CHROM.1>
80.64024828,79.86171927,6.23234675,-34.04940341,-15.32434692,-0.72218918
0.56371384,3.09895186

>  <Name>
ligand

>  <RI>
0

>  <Rbt.Current_Directory>
/home/itssahil/PROJECTS/Mol_Feturizer/New_Systems/rnas/4QLN

>  <Rbt.Executable>
rbdock ($Id: //depot/dev/client3/rdock/2013.1/src/exe/rbdock.cxx#4 $)

>  <Rbt.Library>
libRbt.so (2013.1, Build901 2013/11/27)

>  <Rbt.Parameter_File>
/export/apps/rDock/src/rDock_2013.1_src/data/scripts/dock_solv.prm

>  <Rbt.Receptor>
prm/pocket_docking_2.prm

>  <SCORE>
-20.1161

>  <SCORE.INTER>
-22.877

>  <SCORE.INTER.CONST>
1

>  <SCORE.INTER.POLAR>
0

>  <SCORE.INTER.ROT>
2

>  <SCORE.INTER.SOLV>
27.1765

>  <SCORE.INTER.VDW>
-29.2435

>  <SCORE.INTER.norm>
-0.54469

>  <SCORE.INTRA>
1.65402

>  <SCORE.INTRA.DIHEDRAL>
0.00102892

>  <SCORE.INTRA.DIHEDRAL.0>
2.39985

>  <SCORE.INTRA.POLAR>
0

>  <SCORE.INTRA.POLAR.0>
0

>  <SCORE.INTRA.REPUL>
0

>  <SCORE.INTRA.REPUL.0>
0

>  <SCORE.INTRA.SOLV>
1.02522

>  <SCORE.INTRA.SOLV.lig_0>
-110.958

>  <SCORE.INTRA.VDW>
1.1409

>  <SCORE.INTRA.VDW.0>
-2.34644

>  <SCORE.INTRA.norm>
0.0393815

>  <SCORE.RESTR>
1.10687

>  <SCORE.RESTR.CAVITY>
1.10687

>  <SCORE.RESTR.norm>
0.026354

>  <SCORE.SYSTEM>
0

>  <SCORE.SYSTEM.CONST>
0

>  <SCORE.SYSTEM.DIHEDRAL>
0

>  <SCORE.SYSTEM.SOLV>
0

>  <SCORE.SYSTEM.norm>
0

>  <SCORE.heavy>
42

>  <SCORE.norm>
-0.478954

>  <RMSD>
1.774

$$$$
ligand
 OpenBabel11021811513D
libRbt.so/2013.1/901 2013/11/27
 42 48  0  0  0  0  0  0  0  0999 V2000
    4.1485  -35.5982  -12.5913 P   0  0  2  0  0  0  0  0  0  0  0  0
    8.0317  -35.7152  -15.8194 P   0  0  1  0  0  0  0  0  0  0  0  0
    3.6834  -36.8931  -11.9670 O   0  5  0  0  0  0  0  0  0  0  0  0
    7.4711  -34.3362  -16.0736 O   0  5  0  0  0  0  0  0  0  0  0  0
    3.2686  -34.3728  -12.5272 O   0  0  0  0  0  0  0  0  0  0  0  0
    9.3861  -36.0918  -16.3701 O   0  0  0  0  0  0  0  0  0  0  0  0
    3.7706  -36.8527  -14.8805 C   0  0  0  0  0  0  0  0  0  0  0  0
    8.7953  -35.1152  -13.3678 C   0  0  0  0  0  0  0  0  0  0  0  0
    4.5047  -35.8829  -14.1350 O   0  0  0  0  0  0  0  0  0  0  0  0
    8.0456  -35.9685  -14.2294 O   0  0  0  0  0  0  0  0  0  0  0  0
    4.6748  -37.4681  -15.9417 C   0  0  1  0  0  0  0  0  0  0  0  0
    7.9140  -34.6526  -12.2144 C   0  0  1  0  0  0  0  0  0  0  0  0
    3.8779  -38.0138  -16.9965 O   0  0  0  0  0  0  0  0  0  0  0  0
    8.4283  -33.4335  -11.6731 O   0  0  0  0  0  0  0  0  0  0  0  0
    5.5997  -36.4266  -16.5486 C   0  0  1  0  0  0  0  0  0  0  0  0
    6.4901  -34.3906  -12.6785 C   0  0  1  0  0  0  0  0  0  0  0  0
    6.9587  -36.7981  -16.3387 O   0  0  0  0  0  0  0  0  0  0  0  0
    5.5822  -35.2231  -11.9630 O   0  0  0  0  0  0  0  0  0  0  0  0
    5.2933  -36.3939  -18.0344 C   0  0  0  0  0  0  0  0  0  0  0  0
    6.2029  -32.9317  -12.3807 C   0  0  0  0  0  0  0  0  0  0  0  0
    4.1917  -37.4191  -18.2587 C   0  0  2  0  0  0  0  0  0  0  0  0
    7.4697  -32.3753  -11.7465 C   0  0  2  0  0  0  0  0  0  0  0  0
    0.9136  -33.3335  -17.8851 N   0  0  0  0  0  0  0  0  0  0  0  0
    1.9967  -33.6470  -17.1503 C   0  0  0  0  0  0  0  0  0  0  0  0
    2.7522  -34.7405  -17.3614 N   0  0  0  0  0  0  0  0  0  0  0  0
    2.4539  -35.6103  -18.3560 C   0  0  0  0  0  0  0  0  0  0  0  0
    1.2834  -35.3365  -19.2044 C   0  0  0  0  0  0  0  0  0  0  0  0
    0.5006  -34.1129  -18.9096 C   0  0  0  0  0  0  0  0  0  0  0  0
   -0.5910  -33.7862  -19.6425 N   0  0  0  0  0  0  0  0  0  0  0  0
    1.2145  -36.3401  -20.0990 N   0  0  0  0  0  0  0  0  0  0  0  0
    2.2486  -37.1828  -19.8467 C   0  0  0  0  0  0  0  0  0  0  0  0
    2.9876  -36.7478  -18.8080 N   0  0  0  0  0  0  0  0  0  0  0  0
    7.8553  -30.3424  -16.5726 N   0  0  0  0  0  0  0  0  0  0  0  0
    7.2351  -31.4591  -16.1486 C   0  0  0  0  0  0  0  0  0  0  0  0
    7.2178  -31.8633  -14.8656 N   0  0  0  0  0  0  0  0  0  0  0  0
    7.8437  -31.1441  -13.9027 C   0  0  0  0  0  0  0  0  0  0  0  0
    8.5445  -29.9093  -14.2876 C   0  0  0  0  0  0  0  0  0  0  0  0
    8.5179  -29.5311  -15.7203 C   0  0  0  0  0  0  0  0  0  0  0  0
    9.1381  -28.4084  -16.1596 N   0  0  0  0  0  0  0  0  0  0  0  0
    9.0700  -29.3983  -13.1582 N   0  0  0  0  0  0  0  0  0  0  0  0
    8.7354  -30.2325  -12.1403 C   0  0  0  0  0  0  0  0  0  0  0  0
    8.0053  -31.2723  -12.5836 N   0  0  0  0  0  0  0  0  0  0  0  0
  1  3  1  1  0  0  0
  1  5  2  0  0  0  0
  1  9  1  0  0  0  0
  1 18  1  0  0  0  0
  2  4  1  6  0  0  0
  2  6  2  0  0  0  0
  2 10  1  0  0  0  0
  2 17  1  0  0  0  0
  7  9  1  0  0  0  0
  8 10  1  0  0  0  0
 11  7  1  1  0  0  0
 11 13  1  0  0  0  0
 11 15  1  0  0  0  0
 12  8  1  6  0  0  0
 12 14  1  0  0  0  0
 12 16  1  0  0  0  0
 13 21  1  0  0  0  0
 14 22  1  0  0  0  0
 15 17  1  6  0  0  0
 15 19  1  0  0  0  0
 16 18  1  1  0  0  0
 16 20  1  0  0  0  0
 19 21  1  0  0  0  0
 20 22  1  0  0  0  0
 21 32  1  1  0  0  0
 22 42  1  6  0  0  0
 23 24  2  0  0  0  0
 23 28  1  0  0  0  0
 24 25  1  0  0  0  0
 25 26  2  0  0  0  0
 26 27  1  0  0  0  0
 26 32  1  0  0  0  0
 27 28  2  0  0  0  0
 27 30  1  0  0  0  0
 28 29  1  0  0  0  0
 30 31  2  0  0  0  0
 31 32  1  0  0  0  0
 33 34  2  0  0  0  0
 33 38  1  0  0  0  0
 34 35  1  0  0  0  0
 35 36  2  0  0  0  0
 36 37  1  0  0  0  0
 36 42  1  0  0  0  0
 37 38  2  0  0  0  0
 37 40  1  0  0  0  0
 38 39  1  0  0  0  0
 40 41  2  0  0  0  0
 41 42  1  0  0  0  0
M  CHG  2   3  -1   4  -1
M  END
>  <CHROM.1>
72.55921044,90.43998537,5.58172138,-34.36960608,-15.32869298,-3.04464397
-0.80151521,-0.58172138

>  <Name>
ligand

>  <RI>
0

>  <Rbt.Current_Directory>
/home/itssahil/PROJECTS/Mol_Feturizer/New_Systems/rnas/4QLN

>  <Rbt.Executable>
rbdock ($Id: //depot/dev/client3/rdock/2013.1/src/exe/rbdock.cxx#4 $)

>  <Rbt.Library>
libRbt.so (2013.1, Build901 2013/11/27)

>  <Rbt.Parameter_File>
/export/apps/rDock/src/rDock_2013.1_src/data/scripts/dock_solv.prm

>  <Rbt.Receptor>
prm/pocket_docking_7.prm

>  <SCORE>
-25.2031

>  <SCORE.INTER>
-26.0336

>  <SCORE.INTER.CONST>
1

>  <SCORE.INTER.POLAR>
0

>  <SCORE.INTER.ROT>
2

>  <SCORE.INTER.SOLV>
25.6374

>  <SCORE.INTER.VDW>
-30.8349

>  <SCORE.INTER.norm>
-0.619848

>  <SCORE.INTRA>
0.830484

>  <SCORE.INTRA.DIHEDRAL>
0.00106159

>  <SCORE.INTRA.DIHEDRAL.0>
2.39985

>  <SCORE.INTRA.POLAR>
0

>  <SCORE.INTRA.POLAR.0>
0

>  <SCORE.INTRA.REPUL>
0

>  <SCORE.INTRA.REPUL.0>
0

>  <SCORE.INTRA.SOLV>
0.700236

>  <SCORE.INTRA.SOLV.lig_0>
-110.958

>  <SCORE.INTRA.VDW>
0.479835

>  <SCORE.INTRA.VDW.0>
-2.34644

>  <SCORE.INTRA.norm>
0.0197734

>  <SCORE.RESTR>
0

>  <SCORE.RESTR.CAVITY>
0

>  <SCORE.RESTR.norm>
0

>  <SCORE.SYSTEM>
0

>  <SCORE.SYSTEM.CONST>
0

>  <SCORE.SYSTEM.DIHEDRAL>
0

>  <SCORE.SYSTEM.SOLV>
0

>  <SCORE.SYSTEM.norm>
0

>  <SCORE.heavy>
42

>  <SCORE.norm>
-0.600075

>  <RMSD>
1.774

$$$$
ligand
 OpenBabel11021811513D
libRbt.so/2013.1/901 2013/11/27
 42 48  0  0  0  0  0  0  0  0999 V2000
    4.2955  -35.6897  -12.5767 P   0  0  2  0  0  0  0  0  0  0  0  0
    8.1544  -35.7745  -15.8350 P   0  0  1  0  0  0  0  0  0  0  0  0
    3.8535  -36.9868  -11.9402 O   0  5  0  0  0  0  0  0  0  0  0  0
    7.5726  -34.4052  -16.0938 O   0  5  0  0  0  0  0  0  0  0  0  0
    3.3992  -34.4763  -12.5137 O   0  0  0  0  0  0  0  0  0  0  0  0
    9.5095  -36.1360  -16.3940 O   0  0  0  0  0  0  0  0  0  0  0  0
    3.9171  -36.9647  -14.8545 C   0  0  0  0  0  0  0  0  0  0  0  0
    8.9289  -35.1476  -13.3936 C   0  0  0  0  0  0  0  0  0  0  0  0
    4.6434  -35.9799  -14.1213 O   0  0  0  0  0  0  0  0  0  0  0  0
    8.1843  -36.0170  -14.2435 O   0  0  0  0  0  0  0  0  0  0  0  0
    4.8213  -37.5747  -15.9189 C   0  0  1  0  0  0  0  0  0  0  0  0
    8.0504  -34.6895  -12.2363 C   0  0  1  0  0  0  0  0  0  0  0  0
    4.0238  -38.1385  -16.9636 O   0  0  0  0  0  0  0  0  0  0  0  0
    8.5519  -33.4598  -11.7072 O   0  0  0  0  0  0  0  0  0  0  0  0
    5.7268  -36.5246  -16.5400 C   0  0  1  0  0  0  0  0  0  0  0  0
    6.6193  -34.4504  -12.6907 C   0  0  1  0  0  0  0  0  0  0  0  0
    7.0924  -36.8758  -16.3385 O   0  0  0  0  0  0  0  0  0  0  0  0
    5.7288  -35.2906  -11.9625 O   0  0  0  0  0  0  0  0  0  0  0  0
    5.4082  -36.5061  -18.0235 C   0  0  0  0  0  0  0  0  0  0  0  0
    6.3142  -32.9936  -12.4002 C   0  0  0  0  0  0  0  0  0  0  0  0
    4.3193  -37.5480  -18.2322 C   0  0  2  0  0  0  0  0  0  0  0  0
    7.5781  -32.4155  -11.7799 C   0  0  2  0  0  0  0  0  0  0  0  0
    0.9132  -33.5768  -17.7778 N   0  0  0  0  0  0  0  0  0  0  0  0
    1.9968  -33.8794  -17.0392 C   0  0  0  0  0  0  0  0  0  0  0  0
    2.7880  -34.9426  -17.2733 N   0  0  0  0  0  0  0  0  0  0  0  0
    2.5280  -35.7905  -18.2972 C   0  0  0  0  0  0  0  0  0  0  0  0
    1.3597  -35.5268  -19.1517 C   0  0  0  0  0  0  0  0  0  0  0  0
    0.5363  -34.3369  -18.8302 C   0  0  0  0  0  0  0  0  0  0  0  0
   -0.5562  -34.0214  -19.5667 N   0  0  0  0  0  0  0  0  0  0  0  0
    1.3320  -36.5045  -20.0767 N   0  0  0  0  0  0  0  0  0  0  0  0
    2.3885  -37.3227  -19.8367 C   0  0  0  0  0  0  0  0  0  0  0  0
    3.1017  -36.8972  -18.7762 N   0  0  0  0  0  0  0  0  0  0  0  0
    7.9113  -30.4185  -16.6248 N   0  0  0  0  0  0  0  0  0  0  0  0
    7.3119  -31.5419  -16.1888 C   0  0  0  0  0  0  0  0  0  0  0  0
    7.3062  -31.9351  -14.9024 N   0  0  0  0  0  0  0  0  0  0  0  0
    7.9231  -31.1970  -13.9481 C   0  0  0  0  0  0  0  0  0  0  0  0
    8.6013  -29.9537  -14.3463 C   0  0  0  0  0  0  0  0  0  0  0  0
    8.5629  -29.5885  -15.7821 C   0  0  0  0  0  0  0  0  0  0  0  0
    9.1622  -28.4593  -16.2335 N   0  0  0  0  0  0  0  0  0  0  0  0
    9.1219  -29.4239  -13.2234 N   0  0  0  0  0  0  0  0  0  0  0  0
    8.8054  -30.2548  -12.1970 C   0  0  0  0  0  0  0  0  0  0  0  0
    8.0916  -31.3108  -12.6286 N   0  0  0  0  0  0  0  0  0  0  0  0
  1  3  1  1  0  0  0
  1  5  2  0  0  0  0
  1  9  1  0  0  0  0
  1 18  1  0  0  0  0
  2  4  1  6  0  0  0
  2  6  2  0  0  0  0
  2 10  1  0  0  0  0
  2 17  1  0  0  0  0
  7  9  1  0  0  0  0
  8 10  1  0  0  0  0
 11  7  1  1  0  0  0
 11 13  1  0  0  0  0
 11 15  1  0  0  0  0
 12  8  1  6  0  0  0
 12 14  1  0  0  0  0
 12 16  1  0  0  0  0
 13 21  1  0  0  0  0
 14 22  1  0  0  0  0
 15 17  1  6  0  0  0
 15 19  1  0  0  0  0
 16 18  1  1  0  0  0
 16 20  1  0  0  0  0
 19 21  1  0  0  0  0
 20 22  1  0  0  0  0
 21 32  1  1  0  0  0
 22 42  1  6  0  0  0
 23 24  2  0  0  0  0
 23 28  1  0  0  0  0
 24 25  1  0  0  0  0
 25 26  2  0  0  0  0
 26 27  1  0  0  0  0
 26 32  1  0  0  0  0
 27 28  2  0  0  0  0
 27 30  1  0  0  0  0
 28 29  1  0  0  0  0
 30 31  2  0  0  0  0
 31 32  1  0  0  0  0
 33 34  2  0  0  0  0
 33 38  1  0  0  0  0
 34 35  1  0  0  0  0
 35 36  2  0  0  0  0
 36 37  1  0  0  0  0
 36 42  1  0  0  0  0
 37 38  2  0  0  0  0
 37 40  1  0  0  0  0
 38 39  1  0  0  0  0
 40 41  2  0  0  0  0
 41 42  1  0  0  0  0
M  CHG  2   3  -1   4  -1
M  END
>  <CHROM.1>
69.97802534,90.11096136,5.68486972,-34.46637167,-15.32711818,-3.02265621
-0.79935825,-0.57737529

>  <Name>
ligand

>  <RI>
0

>  <Rbt.Current_Directory>
/home/itssahil/PROJECTS/Mol_Feturizer/New_Systems/rnas/4QLN

>  <Rbt.Executable>
rbdock ($Id: //depot/dev/client3/rdock/2013.1/src/exe/rbdock.cxx#4 $)

>  <Rbt.Library>
libRbt.so (2013.1, Build901 2013/11/27)

>  <Rbt.Parameter_File>
/export/apps/rDock/src/rDock_2013.1_src/data/scripts/dock_solv.prm

>  <Rbt.Receptor>
prm/pocket_docking_3.prm

>  <SCORE>
-24.6379

>  <SCORE.INTER>
-25.3582

>  <SCORE.INTER.CONST>
1

>  <SCORE.INTER.POLAR>
0

>  <SCORE.INTER.ROT>
2

>  <SCORE.INTER.SOLV>
25.3944

>  <SCORE.INTER.VDW>
-30.3036

>  <SCORE.INTER.norm>
-0.603766

>  <SCORE.INTRA>
0.699763

>  <SCORE.INTRA.DIHEDRAL>
0.0010324

>  <SCORE.INTRA.DIHEDRAL.0>
2.39985

>  <SCORE.INTRA.POLAR>
0

>  <SCORE.INTRA.POLAR.0>
0

>  <SCORE.INTRA.REPUL>
0

>  <SCORE.INTRA.REPUL.0>
0

>  <SCORE.INTRA.SOLV>
0.713019

>  <SCORE.INTRA.SOLV.lig_0>
-110.958

>  <SCORE.INTRA.VDW>
0.342738

>  <SCORE.INTRA.VDW.0>
-2.34644

>  <SCORE.INTRA.norm>
0.016661

>  <SCORE.RESTR>
0.0205583

>  <SCORE.RESTR.CAVITY>
0.0205583

>  <SCORE.RESTR.norm>
0.000489484

>  <SCORE.SYSTEM>
0

>  <SCORE.SYSTEM.CONST>
0

>  <SCORE.SYSTEM.DIHEDRAL>
0

>  <SCORE.SYSTEM.SOLV>
0

>  <SCORE.SYSTEM.norm>
0

>  <SCORE.heavy>
42

>  <SCORE.norm>
-0.586616

>  <RMSD>
1.775

$$$$
ligand
 OpenBabel11021811513D
libRbt.so/2013.1/901 2013/11/27
 42 48  0  0  0  0  0  0  0  0999 V2000
    4.1454  -35.5874  -12.5599 P   0  0  2  0  0  0  0  0  0  0  0  0
    8.0563  -35.7578  -15.7522 P   0  0  1  0  0  0  0  0  0  0  0  0
    3.6733  -36.8722  -11.9202 O   0  5  0  0  0  0  0  0  0  0  0  0
    7.4997  -34.3822  -16.0321 O   0  5  0  0  0  0  0  0  0  0  0  0
    3.2666  -34.3602  -12.5221 O   0  0  0  0  0  0  0  0  0  0  0  0
    9.4149  -36.1443  -16.2854 O   0  0  0  0  0  0  0  0  0  0  0  0
    3.7857  -36.8761  -14.8331 C   0  0  0  0  0  0  0  0  0  0  0  0
    8.7994  -35.1216  -13.3035 C   0  0  0  0  0  0  0  0  0  0  0  0
    4.5146  -35.8960  -14.0960 O   0  0  0  0  0  0  0  0  0  0  0  0
    8.0560  -35.9870  -14.1585 O   0  0  0  0  0  0  0  0  0  0  0  0
    4.6983  -37.5085  -15.8770 C   0  0  1  0  0  0  0  0  0  0  0  0
    7.9087  -34.6406  -12.1649 C   0  0  1  0  0  0  0  0  0  0  0  0
    3.9098  -38.0693  -16.9303 O   0  0  0  0  0  0  0  0  0  0  0  0
    8.4199  -33.4140  -11.6377 O   0  0  0  0  0  0  0  0  0  0  0  0
    5.6297  -36.4774  -16.4916 C   0  0  1  0  0  0  0  0  0  0  0  0
    6.4892  -34.3840  -12.6452 C   0  0  1  0  0  0  0  0  0  0  0  0
    6.9864  -36.8473  -16.2643 O   0  0  0  0  0  0  0  0  0  0  0  0
    5.5741  -35.2045  -11.9251 O   0  0  0  0  0  0  0  0  0  0  0  0
    5.3362  -36.4669  -17.9803 C   0  0  0  0  0  0  0  0  0  0  0  0
    6.2013  -32.9204  -12.3720 C   0  0  0  0  0  0  0  0  0  0  0  0
    4.2353  -37.4942  -18.1986 C   0  0  2  0  0  0  0  0  0  0  0  0
    7.4633  -32.3559  -11.7354 C   0  0  2  0  0  0  0  0  0  0  0  0
    0.9288  -33.4266  -17.8827 N   0  0  0  0  0  0  0  0  0  0  0  0
    2.0012  -33.7336  -17.1297 C   0  0  0  0  0  0  0  0  0  0  0  0
    2.7663  -34.8230  -17.3273 N   0  0  0  0  0  0  0  0  0  0  0  0
    2.4894  -35.6951  -18.3262 C   0  0  0  0  0  0  0  0  0  0  0  0
    1.3317  -35.4283  -19.1942 C   0  0  0  0  0  0  0  0  0  0  0  0
    0.5374  -34.2088  -18.9134 C   0  0  0  0  0  0  0  0  0  0  0  0
   -0.5437  -33.8887  -19.6647 N   0  0  0  0  0  0  0  0  0  0  0  0
    1.2833  -36.4329  -20.0891 N   0  0  0  0  0  0  0  0  0  0  0  0
    2.3178  -37.2696  -19.8190 C   0  0  0  0  0  0  0  0  0  0  0  0
    3.0369  -36.8299  -18.7684 N   0  0  0  0  0  0  0  0  0  0  0  0
    7.8899  -30.3949  -16.5877 N   0  0  0  0  0  0  0  0  0  0  0  0
    7.2642  -31.5040  -16.1521 C   0  0  0  0  0  0  0  0  0  0  0  0
    7.2363  -31.8892  -14.8635 N   0  0  0  0  0  0  0  0  0  0  0  0
    7.8563  -31.1572  -13.9066 C   0  0  0  0  0  0  0  0  0  0  0  0
    8.5626  -29.9296  -14.3041 C   0  0  0  0  0  0  0  0  0  0  0  0
    8.5476  -29.5724  -15.7423 C   0  0  0  0  0  0  0  0  0  0  0  0
    9.1735  -28.4575  -16.1933 N   0  0  0  0  0  0  0  0  0  0  0  0
    9.0804  -29.4030  -13.1783 N   0  0  0  0  0  0  0  0  0  0  0  0
    8.7364  -30.2215  -12.1508 C   0  0  0  0  0  0  0  0  0  0  0  0
    8.0075  -31.2664  -12.5845 N   0  0  0  0  0  0  0  0  0  0  0  0
  1  3  1  1  0  0  0
  1  5  2  0  0  0  0
  1  9  1  0  0  0  0
  1 18  1  0  0  0  0
  2  4  1  6  0  0  0
  2  6  2  0  0  0  0
  2 10  1  0  0  0  0
  2 17  1  0  0  0  0
  7  9  1  0  0  0  0
  8 10  1  0  0  0  0
 11  7  1  1  0  0  0
 11 13  1  0  0  0  0
 11 15  1  0  0  0  0
 12  8  1  6  0  0  0
 12 14  1  0  0  0  0
 12 16  1  0  0  0  0
 13 21  1  0  0  0  0
 14 22  1  0  0  0  0
 15 17  1  6  0  0  0
 15 19  1  0  0  0  0
 16 18  1  1  0  0  0
 16 20  1  0  0  0  0
 19 21  1  0  0  0  0
 20 22  1  0  0  0  0
 21 32  1  1  0  0  0
 22 42  1  6  0  0  0
 23 24  2  0  0  0  0
 23 28  1  0  0  0  0
 24 25  1  0  0  0  0
 25 26  2  0  0  0  0
 26 27  1  0  0  0  0
 26 32  1  0  0  0  0
 27 28  2  0  0  0  0
 27 30  1  0  0  0  0
 28 29  1  0  0  0  0
 30 31  2  0  0  0  0
 31 32  1  0  0  0  0
 33 34  2  0  0  0  0
 33 38  1  0  0  0  0
 34 35  1  0  0  0  0
 35 36  2  0  0  0  0
 36 37  1  0  0  0  0
 36 42  1  0  0  0  0
 37 38  2  0  0  0  0
 37 40  1  0  0  0  0
 38 39  1  0  0  0  0
 40 41  2  0  0  0  0
 41 42  1  0  0  0  0
M  CHG  2   3  -1   4  -1
M  END
>  <CHROM.1>
71.53379892,90.51725787,5.60105962,-34.40420294,-15.30045566,-3.05182969
-0.80684496,-0.60290109

>  <Name>
ligand

>  <RI>
0

>  <Rbt.Current_Directory>
/home/itssahil/PROJECTS/Mol_Feturizer/New_Systems/rnas/4QLN

>  <Rbt.Executable>
rbdock ($Id: //depot/dev/client3/rdock/2013.1/src/exe/rbdock.cxx#4 $)

>  <Rbt.Library>
libRbt.so (2013.1, Build901 2013/11/27)

>  <Rbt.Parameter_File>
/export/apps/rDock/src/rDock_2013.1_src/data/scripts/dock_solv.prm

>  <Rbt.Receptor>
prm/pocket_docking_5.prm

>  <SCORE>
-25.1177

>  <SCORE.INTER>
-25.8666

>  <SCORE.INTER.CONST>
1

>  <SCORE.INTER.POLAR>
0

>  <SCORE.INTER.ROT>
2

>  <SCORE.INTER.SOLV>
25.4305

>  <SCORE.INTER.VDW>
-30.6546

>  <SCORE.INTER.norm>
-0.615872

>  <SCORE.INTRA>
0.748902

>  <SCORE.INTRA.DIHEDRAL>
0.00105017

>  <SCORE.INTRA.DIHEDRAL.0>
2.39985

>  <SCORE.INTRA.POLAR>
0

>  <SCORE.INTRA.POLAR.0>
0

>  <SCORE.INTRA.REPUL>
0

>  <SCORE.INTRA.REPUL.0>
0

>  <SCORE.INTRA.SOLV>
0.698656

>  <SCORE.INTRA.SOLV.lig_0>
-110.958

>  <SCORE.INTRA.VDW>
0.399048

>  <SCORE.INTRA.VDW.0>
-2.34644

>  <SCORE.INTRA.norm>
0.017831

>  <SCORE.RESTR>
0

>  <SCORE.RESTR.CAVITY>
0

>  <SCORE.RESTR.norm>
0

>  <SCORE.SYSTEM>
0

>  <SCORE.SYSTEM.CONST>
0

>  <SCORE.SYSTEM.DIHEDRAL>
0

>  <SCORE.SYSTEM.SOLV>
0

>  <SCORE.SYSTEM.norm>
0

>  <SCORE.heavy>
42

>  <SCORE.norm>
-0.598041

>  <RMSD>
1.778

$$$$
ligand
 OpenBabel11021811513D
libRbt.so/2013.1/901 2013/11/27
 42 48  0  0  0  0  0  0  0  0999 V2000
    4.3961  -35.5686  -12.4640 P   0  0  2  0  0  0  0  0  0  0  0  0
    8.1685  -35.5927  -15.8230 P   0  0  1  0  0  0  0  0  0  0  0  0
    3.9833  -36.8744  -11.8257 O   0  5  0  0  0  0  0  0  0  0  0  0
    7.5672  -34.2273  -16.0563 O   0  5  0  0  0  0  0  0  0  0  0  0
    3.4903  -34.3644  -12.3685 O   0  0  0  0  0  0  0  0  0  0  0  0
    9.5118  -35.9370  -16.4201 O   0  0  0  0  0  0  0  0  0  0  0  0
    3.9700  -36.8308  -14.7405 C   0  0  0  0  0  0  0  0  0  0  0  0
    9.0011  -34.9758  -13.3982 C   0  0  0  0  0  0  0  0  0  0  0  0
    4.7060  -35.8443  -14.0193 O   0  0  0  0  0  0  0  0  0  0  0  0
    8.2426  -35.8463  -14.2347 O   0  0  0  0  0  0  0  0  0  0  0  0
    4.8516  -37.4243  -15.8327 C   0  0  1  0  0  0  0  0  0  0  0  0
    8.1490  -34.5346  -12.2148 C   0  0  1  0  0  0  0  0  0  0  0  0
    4.0322  -37.9884  -16.8603 O   0  0  0  0  0  0  0  0  0  0  0  0
    8.6526  -33.3039  -11.6900 O   0  0  0  0  0  0  0  0  0  0  0  0
    5.7304  -36.3611  -16.4696 C   0  0  1  0  0  0  0  0  0  0  0  0
    6.7042  -34.3061  -12.6298 C   0  0  1  0  0  0  0  0  0  0  0  0
    7.1042  -36.7005  -16.3066 O   0  0  0  0  0  0  0  0  0  0  0  0
    5.8412  -35.1600  -11.8847 O   0  0  0  0  0  0  0  0  0  0  0  0
    5.3727  -36.3351  -17.9440 C   0  0  0  0  0  0  0  0  0  0  0  0
    6.3931  -32.8544  -12.3206 C   0  0  0  0  0  0  0  0  0  0  0  0
    4.2887  -37.3860  -18.1318 C   0  0  2  0  0  0  0  0  0  0  0  0
    7.6674  -32.2685  -11.7293 C   0  0  2  0  0  0  0  0  0  0  0  0
   -0.0231  -34.6440  -16.9198 N   0  0  0  0  0  0  0  0  0  0  0  0
    0.9690  -35.0949  -16.1301 C   0  0  0  0  0  0  0  0  0  0  0  0
    2.0260  -35.7939  -16.5831 N   0  0  0  0  0  0  0  0  0  0  0  0
    2.1518  -36.0893  -17.8991 C   0  0  0  0  0  0  0  0  0  0  0  0
    1.1070  -35.6302  -18.8277 C   0  0  0  0  0  0  0  0  0  0  0  0
   -0.0262  -34.8667  -18.2532 C   0  0  0  0  0  0  0  0  0  0  0  0
   -1.0304  -34.4068  -19.0380 N   0  0  0  0  0  0  0  0  0  0  0  0
    1.4711  -36.0507  -20.0536 N   0  0  0  0  0  0  0  0  0  0  0  0
    2.6449  -36.7202  -19.9229 C   0  0  0  0  0  0  0  0  0  0  0  0
    3.0510  -36.7430  -18.6388 N   0  0  0  0  0  0  0  0  0  0  0  0
    7.9247  -30.2748  -16.5802 N   0  0  0  0  0  0  0  0  0  0  0  0
    7.3567  -31.4124  -16.1388 C   0  0  0  0  0  0  0  0  0  0  0  0
    7.3676  -31.8026  -14.8514 N   0  0  0  0  0  0  0  0  0  0  0  0
    7.9699  -31.0465  -13.9019 C   0  0  0  0  0  0  0  0  0  0  0  0
    8.6136  -29.7871  -14.3062 C   0  0  0  0  0  0  0  0  0  0  0  0
    8.5588  -29.4263  -15.7426 C   0  0  0  0  0  0  0  0  0  0  0  0
    9.1263  -28.2829  -16.1994 N   0  0  0  0  0  0  0  0  0  0  0  0
    9.1259  -29.2414  -13.1870 N   0  0  0  0  0  0  0  0  0  0  0  0
    8.8362  -30.0778  -12.1573 C   0  0  0  0  0  0  0  0  0  0  0  0
    8.1479  -31.1530  -12.5830 N   0  0  0  0  0  0  0  0  0  0  0  0
  1  3  1  1  0  0  0
  1  5  2  0  0  0  0
  1  9  1  0  0  0  0
  1 18  1  0  0  0  0
  2  4  1  6  0  0  0
  2  6  2  0  0  0  0
  2 10  1  0  0  0  0
  2 17  1  0  0  0  0
  7  9  1  0  0  0  0
  8 10  1  0  0  0  0
 11  7  1  1  0  0  0
 11 13  1  0  0  0  0
 11 15  1  0  0  0  0
 12  8  1  6  0  0  0
 12 14  1  0  0  0  0
 12 16  1  0  0  0  0
 13 21  1  0  0  0  0
 14 22  1  0  0  0  0
 15 17  1  6  0  0  0
 15 19  1  0  0  0  0
 16 18  1  1  0  0  0
 16 20  1  0  0  0  0
 19 21  1  0  0  0  0
 20 22  1  0  0  0  0
 21 32  1  1  0  0  0
 22 42  1  6  0  0  0
 23 24  2  0  0  0  0
 23 28  1  0  0  0  0
 24 25  1  0  0  0  0
 25 26  2  0  0  0  0
 26 27  1  0  0  0  0
 26 32  1  0  0  0  0
 27 28  2  0  0  0  0
 27 30  1  0  0  0  0
 28 29  1  0  0  0  0
 30 31  2  0  0  0  0
 31 32  1  0  0  0  0
 33 34  2  0  0  0  0
 33 38  1  0  0  0  0
 34 35  1  0  0  0  0
 35 36  2  0  0  0  0
 36 37  1  0  0  0  0
 36 42  1  0  0  0  0
 37 38  2  0  0  0  0
 37 40  1  0  0  0  0
 38 39  1  0  0  0  0
 40 41  2  0  0  0  0
 41 42  1  0  0  0  0
M  CHG  2   3  -1   4  -1
M  END
>  <CHROM.1>
37.78992732,88.47781073,5.63433407,-34.41353513,-15.18939801,-3.09040871
-0.76069452,-0.74454024

>  <Name>
ligand

>  <RI>
0

>  <Rbt.Current_Directory>
/home/itssahil/PROJECTS/Mol_Feturizer/New_Systems/rnas/4QLN

>  <Rbt.Executable>
rbdock ($Id: //depot/dev/client3/rdock/2013.1/src/exe/rbdock.cxx#4 $)

>  <Rbt.Library>
libRbt.so (2013.1, Build901 2013/11/27)

>  <Rbt.Parameter_File>
/export/apps/rDock/src/rDock_2013.1_src/data/scripts/dock_solv.prm

>  <Rbt.Receptor>
prm/pocket_docking_4.prm

>  <SCORE>
-20.8702

>  <SCORE.INTER>
-21.5747

>  <SCORE.INTER.CONST>
1

>  <SCORE.INTER.POLAR>
0

>  <SCORE.INTER.ROT>
2

>  <SCORE.INTER.SOLV>
24.9783

>  <SCORE.INTER.VDW>
-27.6426

>  <SCORE.INTER.norm>
-0.513684

>  <SCORE.INTRA>
0.704578

>  <SCORE.INTRA.DIHEDRAL>
0.000659307

>  <SCORE.INTRA.DIHEDRAL.0>
2.39985

>  <SCORE.INTRA.POLAR>
0

>  <SCORE.INTRA.POLAR.0>
0

>  <SCORE.INTRA.REPUL>
0

>  <SCORE.INTRA.REPUL.0>
0

>  <SCORE.INTRA.SOLV>
0.792502

>  <SCORE.INTRA.SOLV.lig_0>
-110.958

>  <SCORE.INTRA.VDW>
0.307997

>  <SCORE.INTRA.VDW.0>
-2.34644

>  <SCORE.INTRA.norm>
0.0167757

>  <SCORE.RESTR>
0

>  <SCORE.RESTR.CAVITY>
0

>  <SCORE.RESTR.norm>
0

>  <SCORE.SYSTEM>
0

>  <SCORE.SYSTEM.CONST>
0

>  <SCORE.SYSTEM.DIHEDRAL>
0

>  <SCORE.SYSTEM.SOLV>
0

>  <SCORE.SYSTEM.norm>
0

>  <SCORE.heavy>
42

>  <SCORE.norm>
-0.496909

>  <RMSD>
1.781

$$$$
ligand
 OpenBabel11021811513D
libRbt.so/2013.1/901 2013/11/27
 42 48  0  0  0  0  0  0  0  0999 V2000
    4.4317  -35.8340  -12.7132 P   0  0  2  0  0  0  0  0  0  0  0  0
    8.1566  -35.6591  -16.1203 P   0  0  1  0  0  0  0  0  0  0  0  0
    4.0436  -37.1723  -12.1291 O   0  5  0  0  0  0  0  0  0  0  0  0
    7.5357  -34.2923  -16.2835 O   0  5  0  0  0  0  0  0  0  0  0  0
    3.5128  -34.6468  -12.5512 O   0  0  0  0  0  0  0  0  0  0  0  0
    9.4955  -35.9592  -16.7503 O   0  0  0  0  0  0  0  0  0  0  0  0
    3.9889  -36.9977  -15.0384 C   0  0  0  0  0  0  0  0  0  0  0  0
    9.0156  -35.1415  -13.6815 C   0  0  0  0  0  0  0  0  0  0  0  0
    4.7230  -36.0355  -14.2834 O   0  0  0  0  0  0  0  0  0  0  0  0
    8.2560  -35.9830  -14.5462 O   0  0  0  0  0  0  0  0  0  0  0  0
    4.8622  -37.5303  -16.1681 C   0  0  1  0  0  0  0  0  0  0  0  0
    8.1749  -34.7648  -12.4681 C   0  0  1  0  0  0  0  0  0  0  0  0
    4.0354  -38.0578  -17.2090 O   0  0  0  0  0  0  0  0  0  0  0  0
    8.6710  -33.5527  -11.8950 O   0  0  0  0  0  0  0  0  0  0  0  0
    5.7192  -36.4284  -16.7681 C   0  0  1  0  0  0  0  0  0  0  0  0
    6.7219  -34.5362  -12.8527 C   0  0  1  0  0  0  0  0  0  0  0  0
    7.0990  -36.7574  -16.6391 O   0  0  0  0  0  0  0  0  0  0  0  0
    5.8797  -35.4336  -12.1355 O   0  0  0  0  0  0  0  0  0  0  0  0
    5.3406  -36.3406  -18.2349 C   0  0  0  0  0  0  0  0  0  0  0  0
    6.3976  -33.1040  -12.4741 C   0  0  0  0  0  0  0  0  0  0  0  0
    4.2667  -37.3956  -18.4553 C   0  0  2  0  0  0  0  0  0  0  0  0
    7.6729  -32.5292  -11.8742 C   0  0  2  0  0  0  0  0  0  0  0  0
    0.9442  -33.3763  -17.8348 N   0  0  0  0  0  0  0  0  0  0  0  0
    2.0818  -33.6709  -17.1789 C   0  0  0  0  0  0  0  0  0  0  0  0
    2.8418  -34.7487  -17.4472 N   0  0  0  0  0  0  0  0  0  0  0  0
    2.4916  -35.6209  -18.4227 C   0  0  0  0  0  0  0  0  0  0  0  0
    1.2597  -35.3673  -19.1861 C   0  0  0  0  0  0  0  0  0  0  0  0
    0.4758  -34.1602  -18.8316 C   0  0  0  0  0  0  0  0  0  0  0  0
   -0.6704  -33.8526  -19.4851 N   0  0  0  0  0  0  0  0  0  0  0  0
    1.1479  -36.3691  -20.0784 N   0  0  0  0  0  0  0  0  0  0  0  0
    2.2132  -37.1921  -19.9028 C   0  0  0  0  0  0  0  0  0  0  0  0
    3.0144  -36.7462  -18.9161 N   0  0  0  0  0  0  0  0  0  0  0  0
    8.0071  -30.4041  -16.6643 N   0  0  0  0  0  0  0  0  0  0  0  0
    7.4810  -31.5789  -16.2711 C   0  0  0  0  0  0  0  0  0  0  0  0
    7.4644  -32.0003  -14.9937 N   0  0  0  0  0  0  0  0  0  0  0  0
    7.9931  -31.2397  -14.0048 C   0  0  0  0  0  0  0  0  0  0  0  0
    8.5875  -29.9404  -14.3552 C   0  0  0  0  0  0  0  0  0  0  0  0
    8.5671  -29.5468  -15.7838 C   0  0  0  0  0  0  0  0  0  0  0  0
    9.0932  -28.3659  -16.1922 N   0  0  0  0  0  0  0  0  0  0  0  0
    9.0307  -29.3985  -13.2051 N   0  0  0  0  0  0  0  0  0  0  0  0
    8.7458  -30.2737  -12.2067 C   0  0  0  0  0  0  0  0  0  0  0  0
    8.1279  -31.3703  -12.6830 N   0  0  0  0  0  0  0  0  0  0  0  0
  1  3  1  1  0  0  0
  1  5  2  0  0  0  0
  1  9  1  0  0  0  0
  1 18  1  0  0  0  0
  2  4  1  6  0  0  0
  2  6  2  0  0  0  0
  2 10  1  0  0  0  0
  2 17  1  0  0  0  0
  7  9  1  0  0  0  0
  8 10  1  0  0  0  0
 11  7  1  1  0  0  0
 11 13  1  0  0  0  0
 11 15  1  0  0  0  0
 12  8  1  6  0  0  0
 12 14  1  0  0  0  0
 12 16  1  0  0  0  0
 13 21  1  0  0  0  0
 14 22  1  0  0  0  0
 15 17  1  6  0  0  0
 15 19  1  0  0  0  0
 16 18  1  1  0  0  0
 16 20  1  0  0  0  0
 19 21  1  0  0  0  0
 20 22  1  0  0  0  0
 21 32  1  1  0  0  0
 22 42  1  6  0  0  0
 23 24  2  0  0  0  0
 23 28  1  0  0  0  0
 24 25  1  0  0  0  0
 25 26  2  0  0  0  0
 26 27  1  0  0  0  0
 26 32  1  0  0  0  0
 27 28  2  0  0  0  0
 27 30  1  0  0  0  0
 28 29  1  0  0  0  0
 30 31  2  0  0  0  0
 31 32  1  0  0  0  0
 33 34  2  0  0  0  0
 33 38  1  0  0  0  0
 34 35  1  0  0  0  0
 35 36  2  0  0  0  0
 36 37  1  0  0  0  0
 36 42  1  0  0  0  0
 37 38  2  0  0  0  0
 37 40  1  0  0  0  0
 38 39  1  0  0  0  0
 40 41  2  0  0  0  0
 41 42  1  0  0  0  0
M  CHG  2   3  -1   4  -1
M  END
>  <CHROM.1>
75.45318597,84.67746008,5.71399018,-34.43492047,-15.46602136,-3.00395771
-0.78181587,-0.52908073

>  <Name>
ligand

>  <RI>
0

>  <Rbt.Current_Directory>
/home/itssahil/PROJECTS/Mol_Feturizer/New_Systems/rnas/4QLN

>  <Rbt.Executable>
rbdock ($Id: //depot/dev/client3/rdock/2013.1/src/exe/rbdock.cxx#4 $)

>  <Rbt.Library>
libRbt.so (2013.1, Build901 2013/11/27)

>  <Rbt.Parameter_File>
/export/apps/rDock/src/rDock_2013.1_src/data/scripts/dock_solv.prm

>  <Rbt.Receptor>
prm/pocket_docking_2.prm

>  <SCORE>
-24.3892

>  <SCORE.INTER>
-25.6561

>  <SCORE.INTER.CONST>
1

>  <SCORE.INTER.POLAR>
0

>  <SCORE.INTER.ROT>
2

>  <SCORE.INTER.SOLV>
25.9943

>  <SCORE.INTER.VDW>
-30.7022

>  <SCORE.INTER.norm>
-0.610859

>  <SCORE.INTRA>
1.05571

>  <SCORE.INTRA.DIHEDRAL>
0.00106204

>  <SCORE.INTRA.DIHEDRAL.0>
2.39985

>  <SCORE.INTRA.POLAR>
0

>  <SCORE.INTRA.POLAR.0>
0

>  <SCORE.INTRA.REPUL>
0

>  <SCORE.INTRA.REPUL.0>
0

>  <SCORE.INTRA.SOLV>
0.881338

>  <SCORE.INTRA.SOLV.lig_0>
-110.958

>  <SCORE.INTRA.VDW>
0.614509

>  <SCORE.INTRA.VDW.0>
-2.34644

>  <SCORE.INTRA.norm>
0.0251359

>  <SCORE.RESTR>
0.211144

>  <SCORE.RESTR.CAVITY>
0.211144

>  <SCORE.RESTR.norm>
0.00502724

>  <SCORE.SYSTEM>
0

>  <SCORE.SYSTEM.CONST>
0

>  <SCORE.SYSTEM.DIHEDRAL>
0

>  <SCORE.SYSTEM.SOLV>
0

>  <SCORE.SYSTEM.norm>
0

>  <SCORE.heavy>
42

>  <SCORE.norm>
-0.580696

>  <RMSD>
1.783

$$$$
ligand
 OpenBabel11021811513D
libRbt.so/2013.1/901 2013/11/27
 42 48  0  0  0  0  0  0  0  0999 V2000
    4.4099  -35.8428  -12.7450 P   0  0  2  0  0  0  0  0  0  0  0  0
    8.1490  -35.6544  -16.1359 P   0  0  1  0  0  0  0  0  0  0  0  0
    4.0168  -37.1839  -12.1707 O   0  5  0  0  0  0  0  0  0  0  0  0
    7.5314  -34.2853  -16.2932 O   0  5  0  0  0  0  0  0  0  0  0  0
    3.4928  -34.6548  -12.5794 O   0  0  0  0  0  0  0  0  0  0  0  0
    9.4897  -35.9533  -16.7624 O   0  0  0  0  0  0  0  0  0  0  0  0
    3.9742  -36.9913  -15.0791 C   0  0  0  0  0  0  0  0  0  0  0  0
    8.9991  -35.1535  -13.6906 C   0  0  0  0  0  0  0  0  0  0  0  0
    4.7072  -36.0351  -14.3152 O   0  0  0  0  0  0  0  0  0  0  0  0
    8.2414  -35.9881  -14.5635 O   0  0  0  0  0  0  0  0  0  0  0  0
    4.8511  -37.5186  -16.2085 C   0  0  1  0  0  0  0  0  0  0  0  0
    8.1543  -34.7827  -12.4782 C   0  0  1  0  0  0  0  0  0  0  0  0
    4.0274  -38.0380  -17.2560 O   0  0  0  0  0  0  0  0  0  0  0  0
    8.6504  -33.5751  -11.8957 O   0  0  0  0  0  0  0  0  0  0  0  0
    5.7126  -36.4148  -16.7983 C   0  0  1  0  0  0  0  0  0  0  0  0
    6.7032  -34.5487  -12.8673 C   0  0  1  0  0  0  0  0  0  0  0  0
    7.0913  -36.7473  -16.6657 O   0  0  0  0  0  0  0  0  0  0  0  0
    5.8564  -35.4489  -12.1590 O   0  0  0  0  0  0  0  0  0  0  0  0
    5.3401  -36.3172  -18.2660 C   0  0  0  0  0  0  0  0  0  0  0  0
    6.3803  -33.1182  -12.4812 C   0  0  0  0  0  0  0  0  0  0  0  0
    4.2650  -37.3686  -18.4972 C   0  0  2  0  0  0  0  0  0  0  0  0
    7.6543  -32.5497  -11.8726 C   0  0  2  0  0  0  0  0  0  0  0  0
    0.9221  -33.3733  -17.8332 N   0  0  0  0  0  0  0  0  0  0  0  0
    2.0532  -33.6777  -17.1704 C   0  0  0  0  0  0  0  0  0  0  0  0
    2.8198  -34.7473  -17.4519 N   0  0  0  0  0  0  0  0  0  0  0  0
    2.4837  -35.6005  -18.4488 C   0  0  0  0  0  0  0  0  0  0  0  0
    1.2597  -35.3353  -19.2210 C   0  0  0  0  0  0  0  0  0  0  0  0
    0.4678  -34.1382  -18.8511 C   0  0  0  0  0  0  0  0  0  0  0  0
   -0.6719  -33.8209  -19.5112 N   0  0  0  0  0  0  0  0  0  0  0  0
    1.1615  -36.3190  -20.1348 N   0  0  0  0  0  0  0  0  0  0  0  0
    2.2275  -37.1421  -19.9638 C   0  0  0  0  0  0  0  0  0  0  0  0
    3.0159  -36.7139  -18.9591 N   0  0  0  0  0  0  0  0  0  0  0  0
    7.9918  -30.3856  -16.6450 N   0  0  0  0  0  0  0  0  0  0  0  0
    7.4591  -31.5604  -16.2608 C   0  0  0  0  0  0  0  0  0  0  0  0
    7.4425  -31.9927  -14.9870 N   0  0  0  0  0  0  0  0  0  0  0  0
    7.9781  -31.2439  -13.9928 C   0  0  0  0  0  0  0  0  0  0  0  0
    8.5799  -29.9455  -14.3333 C   0  0  0  0  0  0  0  0  0  0  0  0
    8.5590  -29.5395  -15.7584 C   0  0  0  0  0  0  0  0  0  0  0  0
    9.0916  -28.3584  -16.1578 N   0  0  0  0  0  0  0  0  0  0  0  0
    9.0290  -29.4163  -13.1795 N   0  0  0  0  0  0  0  0  0  0  0  0
    8.7406  -30.2982  -12.1881 C   0  0  0  0  0  0  0  0  0  0  0  0
    8.1149  -31.3868  -12.6724 N   0  0  0  0  0  0  0  0  0  0  0  0
  1  3  1  1  0  0  0
  1  5  2  0  0  0  0
  1  9  1  0  0  0  0
  1 18  1  0  0  0  0
  2  4  1  6  0  0  0
  2  6  2  0  0  0  0
  2 10  1  0  0  0  0
  2 17  1  0  0  0  0
  7  9  1  0  0  0  0
  8 10  1  0  0  0  0
 11  7  1  1  0  0  0
 11 13  1  0  0  0  0
 11 15  1  0  0  0  0
 12  8  1  6  0  0  0
 12 14  1  0  0  0  0
 12 16  1  0  0  0  0
 13 21  1  0  0  0  0
 14 22  1  0  0  0  0
 15 17  1  6  0  0  0
 15 19  1  0  0  0  0
 16 18  1  1  0  0  0
 16 20  1  0  0  0  0
 19 21  1  0  0  0  0
 20 22  1  0  0  0  0
 21 32  1  1  0  0  0
 22 42  1  6  0  0  0
 23 24  2  0  0  0  0
 23 28  1  0  0  0  0
 24 25  1  0  0  0  0
 25 26  2  0  0  0  0
 26 27  1  0  0  0  0
 26 32  1  0  0  0  0
 27 28  2  0  0  0  0
 27 30  1  0  0  0  0
 28 29  1  0  0  0  0
 30 31  2  0  0  0  0
 31 32  1  0  0  0  0
 33 34  2  0  0  0  0
 33 38  1  0  0  0  0
 34 35  1  0  0  0  0
 35 36  2  0  0  0  0
 36 37  1  0  0  0  0
 36 42  1  0  0  0  0
 37 38  2  0  0  0  0
 37 40  1  0  0  0  0
 38 39  1  0  0  0  0
 40 41  2  0  0  0  0
 41 42  1  0  0  0  0
M  CHG  2   3  -1   4  -1
M  END
>  <CHROM.1>
74.48555796,85.12913002,5.70231781,-34.43069311,-15.48105871,-3.00581718
-0.78333912,-0.52342528

>  <Name>
ligand

>  <RI>
0

>  <Rbt.Current_Directory>
/home/itssahil/PROJECTS/Mol_Feturizer/New_Systems/rnas/4QLN

>  <Rbt.Executable>
rbdock ($Id: //depot/dev/client3/rdock/2013.1/src/exe/rbdock.cxx#4 $)

>  <Rbt.Library>
libRbt.so (2013.1, Build901 2013/11/27)

>  <Rbt.Parameter_File>
/export/apps/rDock/src/rDock_2013.1_src/data/scripts/dock_solv.prm

>  <Rbt.Receptor>
prm/pocket_docking_2.prm

>  <SCORE>
-24.4324

>  <SCORE.INTER>
-25.6423

>  <SCORE.INTER.CONST>
1

>  <SCORE.INTER.POLAR>
0

>  <SCORE.INTER.ROT>
2

>  <SCORE.INTER.SOLV>
25.9711

>  <SCORE.INTER.VDW>
-30.6853

>  <SCORE.INTER.norm>
-0.610532

>  <SCORE.INTRA>
0.993357

>  <SCORE.INTRA.DIHEDRAL>
0.00105736

>  <SCORE.INTRA.DIHEDRAL.0>
2.39985

>  <SCORE.INTRA.POLAR>
0

>  <SCORE.INTRA.POLAR.0>
0

>  <SCORE.INTRA.REPUL>
0

>  <SCORE.INTRA.REPUL.0>
0

>  <SCORE.INTRA.SOLV>
0.866083

>  <SCORE.INTRA.SOLV.lig_0>
-110.958

>  <SCORE.INTRA.VDW>
0.559787

>  <SCORE.INTRA.VDW.0>
-2.34644

>  <SCORE.INTRA.norm>
0.0236514

>  <SCORE.RESTR>
0.21659

>  <SCORE.RESTR.CAVITY>
0.21659

>  <SCORE.RESTR.norm>
0.00515691

>  <SCORE.SYSTEM>
0

>  <SCORE.SYSTEM.CONST>
0

>  <SCORE.SYSTEM.DIHEDRAL>
0

>  <SCORE.SYSTEM.SOLV>
0

>  <SCORE.SYSTEM.norm>
0

>  <SCORE.heavy>
42

>  <SCORE.norm>
-0.581724

>  <RMSD>
1.788

$$$$
ligand
 OpenBabel11021811513D
libRbt.so/2013.1/901 2013/11/27
 42 48  0  0  0  0  0  0  0  0999 V2000
    4.2413  -35.7130  -12.5944 P   0  0  2  0  0  0  0  0  0  0  0  0
    8.1072  -35.7806  -15.8448 P   0  0  1  0  0  0  0  0  0  0  0  0
    3.7972  -37.0136  -11.9666 O   0  5  0  0  0  0  0  0  0  0  0  0
    7.5268  -34.4095  -16.0967 O   0  5  0  0  0  0  0  0  0  0  0  0
    3.3455  -34.4994  -12.5261 O   0  0  0  0  0  0  0  0  0  0  0  0
    9.4633  -36.1395  -16.4030 O   0  0  0  0  0  0  0  0  0  0  0  0
    3.8671  -36.9742  -14.8806 C   0  0  0  0  0  0  0  0  0  0  0  0
    8.8768  -35.1687  -13.3980 C   0  0  0  0  0  0  0  0  0  0  0  0
    4.5924  -35.9942  -14.1399 O   0  0  0  0  0  0  0  0  0  0  0  0
    8.1335  -36.0326  -14.2547 O   0  0  0  0  0  0  0  0  0  0  0  0
    4.7733  -37.5783  -15.9466 C   0  0  1  0  0  0  0  0  0  0  0  0
    7.9960  -34.7171  -12.2398 C   0  0  1  0  0  0  0  0  0  0  0  0
    3.9777  -38.1354  -16.9964 O   0  0  0  0  0  0  0  0  0  0  0  0
    8.4971  -33.4908  -11.7023 O   0  0  0  0  0  0  0  0  0  0  0  0
    5.6807  -36.5250  -16.5595 C   0  0  1  0  0  0  0  0  0  0  0  0
    6.5660  -34.4744  -12.6959 C   0  0  1  0  0  0  0  0  0  0  0  0
    7.0457  -36.8782  -16.3571 O   0  0  0  0  0  0  0  0  0  0  0  0
    5.6735  -35.3184  -11.9747 O   0  0  0  0  0  0  0  0  0  0  0  0
    5.3654  -36.4975  -18.0435 C   0  0  0  0  0  0  0  0  0  0  0  0
    6.2611  -33.0192  -12.3974 C   0  0  0  0  0  0  0  0  0  0  0  0
    4.2763  -37.5375  -18.2608 C   0  0  2  0  0  0  0  0  0  0  0  0
    7.5241  -32.4455  -11.7709 C   0  0  2  0  0  0  0  0  0  0  0  0
    0.9053  -33.5343  -17.8261 N   0  0  0  0  0  0  0  0  0  0  0  0
    1.9915  -33.8377  -17.0917 C   0  0  0  0  0  0  0  0  0  0  0  0
    2.7725  -34.9097  -17.3197 N   0  0  0  0  0  0  0  0  0  0  0  0
    2.4988  -35.7664  -18.3326 C   0  0  0  0  0  0  0  0  0  0  0  0
    1.3268  -35.5024  -19.1820 C   0  0  0  0  0  0  0  0  0  0  0  0
    0.5152  -34.3026  -18.8678 C   0  0  0  0  0  0  0  0  0  0  0  0
   -0.5798  -33.9862  -19.6003 N   0  0  0  0  0  0  0  0  0  0  0  0
    1.2850  -36.4897  -20.0962 N   0  0  0  0  0  0  0  0  0  0  0  0
    2.3365  -37.3138  -19.8546 C   0  0  0  0  0  0  0  0  0  0  0  0
    3.0603  -36.8827  -18.8036 N   0  0  0  0  0  0  0  0  0  0  0  0
    7.8680  -30.4193  -16.6029 N   0  0  0  0  0  0  0  0  0  0  0  0
    7.2669  -31.5449  -16.1749 C   0  0  0  0  0  0  0  0  0  0  0  0
    7.2585  -31.9459  -14.8909 N   0  0  0  0  0  0  0  0  0  0  0  0
    7.8741  -31.2141  -13.9310 C   0  0  0  0  0  0  0  0  0  0  0  0
    8.5540  -29.9690  -14.3203 C   0  0  0  0  0  0  0  0  0  0  0  0
    8.5187  -29.5950  -15.7539 C   0  0  0  0  0  0  0  0  0  0  0  0
    9.1197  -28.4635  -16.1973 N   0  0  0  0  0  0  0  0  0  0  0  0
    9.0729  -29.4464  -13.1931 N   0  0  0  0  0  0  0  0  0  0  0  0
    8.7538  -30.2833  -12.1725 C   0  0  0  0  0  0  0  0  0  0  0  0
    8.0400  -31.3361  -12.6118 N   0  0  0  0  0  0  0  0  0  0  0  0
  1  3  1  1  0  0  0
  1  5  2  0  0  0  0
  1  9  1  0  0  0  0
  1 18  1  0  0  0  0
  2  4  1  6  0  0  0
  2  6  2  0  0  0  0
  2 10  1  0  0  0  0
  2 17  1  0  0  0  0
  7  9  1  0  0  0  0
  8 10  1  0  0  0  0
 11  7  1  1  0  0  0
 11 13  1  0  0  0  0
 11 15  1  0  0  0  0
 12  8  1  6  0  0  0
 12 14  1  0  0  0  0
 12 16  1  0  0  0  0
 13 21  1  0  0  0  0
 14 22  1  0  0  0  0
 15 17  1  6  0  0  0
 15 19  1  0  0  0  0
 16 18  1  1  0  0  0
 16 20  1  0  0  0  0
 19 21  1  0  0  0  0
 20 22  1  0  0  0  0
 21 32  1  1  0  0  0
 22 42  1  6  0  0  0
 23 24  2  0  0  0  0
 23 28  1  0  0  0  0
 24 25  1  0  0  0  0
 25 26  2  0  0  0  0
 26 27  1  0  0  0  0
 26 32  1  0  0  0  0
 27 28  2  0  0  0  0
 27 30  1  0  0  0  0
 28 29  1  0  0  0  0
 30 31  2  0  0  0  0
 31 32  1  0  0  0  0
 33 34  2  0  0  0  0
 33 38  1  0  0  0  0
 34 35  1  0  0  0  0
 35 36  2  0  0  0  0
 36 37  1  0  0  0  0
 36 42  1  0  0  0  0
 37 38  2  0  0  0  0
 37 40  1  0  0  0  0
 38 39  1  0  0  0  0
 40 41  2  0  0  0  0
 41 42  1  0  0  0  0
M  CHG  2   3  -1   4  -1
M  END
>  <CHROM.1>
71.14392848,90.13124530,5.64003803,-34.47133517,-15.33736298,-3.02532011
-0.80219560,-0.57162807

>  <Name>
ligand

>  <RI>
0

>  <Rbt.Current_Directory>
/home/itssahil/PROJECTS/Mol_Feturizer/New_Systems/rnas/4QLN

>  <Rbt.Executable>
rbdock ($Id: //depot/dev/client3/rdock/2013.1/src/exe/rbdock.cxx#4 $)

>  <Rbt.Library>
libRbt.so (2013.1, Build901 2013/11/27)

>  <Rbt.Parameter_File>
/export/apps/rDock/src/rDock_2013.1_src/data/scripts/dock_solv.prm

>  <Rbt.Receptor>
prm/pocket_docking_3.prm

>  <SCORE>
-24.7001

>  <SCORE.INTER>
-25.4981

>  <SCORE.INTER.CONST>
1

>  <SCORE.INTER.POLAR>
0

>  <SCORE.INTER.ROT>
2

>  <SCORE.INTER.SOLV>
25.4768

>  <SCORE.INTER.VDW>
-30.4243

>  <SCORE.INTER.norm>
-0.607096

>  <SCORE.INTRA>
0.736218

>  <SCORE.INTRA.DIHEDRAL>
0.00104599

>  <SCORE.INTRA.DIHEDRAL.0>
2.39985

>  <SCORE.INTRA.POLAR>
0

>  <SCORE.INTRA.POLAR.0>
0

>  <SCORE.INTRA.REPUL>
0

>  <SCORE.INTRA.REPUL.0>
0

>  <SCORE.INTRA.SOLV>
0.7113

>  <SCORE.INTRA.SOLV.lig_0>
-110.958

>  <SCORE.INTRA.VDW>
0.380045

>  <SCORE.INTRA.VDW.0>
-2.34644

>  <SCORE.INTRA.norm>
0.017529

>  <SCORE.RESTR>
0.0617734

>  <SCORE.RESTR.CAVITY>
0.0617734

>  <SCORE.RESTR.norm>
0.0014708

>  <SCORE.SYSTEM>
0

>  <SCORE.SYSTEM.CONST>
0

>  <SCORE.SYSTEM.DIHEDRAL>
0

>  <SCORE.SYSTEM.SOLV>
0

>  <SCORE.SYSTEM.norm>
0

>  <SCORE.heavy>
42

>  <SCORE.norm>
-0.588097

>  <RMSD>
1.791

$$$$
ligand
 OpenBabel11021811513D
libRbt.so/2013.1/901 2013/11/27
 42 48  0  0  0  0  0  0  0  0999 V2000
    4.1791  -35.6855  -12.5981 P   0  0  2  0  0  0  0  0  0  0  0  0
    8.0710  -35.8049  -15.8159 P   0  0  1  0  0  0  0  0  0  0  0  0
    3.7194  -36.9785  -11.9657 O   0  5  0  0  0  0  0  0  0  0  0  0
    7.5037  -34.4308  -16.0813 O   0  5  0  0  0  0  0  0  0  0  0  0
    3.2925  -34.4644  -12.5450 O   0  0  0  0  0  0  0  0  0  0  0  0
    9.4287  -36.1782  -16.3605 O   0  0  0  0  0  0  0  0  0  0  0  0
    3.8136  -36.9584  -14.8792 C   0  0  0  0  0  0  0  0  0  0  0  0
    8.8252  -35.1834  -13.3668 C   0  0  0  0  0  0  0  0  0  0  0  0
    4.5407  -35.9794  -14.1389 O   0  0  0  0  0  0  0  0  0  0  0  0
    8.0822  -36.0468  -14.2240 O   0  0  0  0  0  0  0  0  0  0  0  0
    4.7237  -37.5766  -15.9338 C   0  0  1  0  0  0  0  0  0  0  0  0
    7.9386  -34.7173  -12.2189 C   0  0  1  0  0  0  0  0  0  0  0  0
    3.9323  -38.1341  -16.9866 O   0  0  0  0  0  0  0  0  0  0  0  0
    8.4451  -33.4915  -11.6851 O   0  0  0  0  0  0  0  0  0  0  0  0
    5.6446  -36.5345  -16.5459 C   0  0  1  0  0  0  0  0  0  0  0  0
    6.5144  -34.4661  -12.6883 C   0  0  1  0  0  0  0  0  0  0  0  0
    7.0050  -36.8973  -16.3299 O   0  0  0  0  0  0  0  0  0  0  0  0
    5.6092  -35.2983  -11.9691 O   0  0  0  0  0  0  0  0  0  0  0  0
    5.3417  -36.5141  -18.0326 C   0  0  0  0  0  0  0  0  0  0  0  0
    6.2188  -33.0067  -12.4017 C   0  0  0  0  0  0  0  0  0  0  0  0
    4.2462  -37.5468  -18.2523 C   0  0  2  0  0  0  0  0  0  0  0  0
    7.4811  -32.4390  -11.7684 C   0  0  2  0  0  0  0  0  0  0  0  0
    0.8432  -33.5718  -17.8081 N   0  0  0  0  0  0  0  0  0  0  0  0
    1.9130  -33.8865  -17.0546 C   0  0  0  0  0  0  0  0  0  0  0  0
    2.7053  -34.9490  -17.2881 N   0  0  0  0  0  0  0  0  0  0  0  0
    2.4609  -35.7836  -18.3267 C   0  0  0  0  0  0  0  0  0  0  0  0
    1.3083  -35.5060  -19.1980 C   0  0  0  0  0  0  0  0  0  0  0  0
    0.4826  -34.3179  -18.8762 C   0  0  0  0  0  0  0  0  0  0  0  0
   -0.5961  -33.9902  -19.6276 N   0  0  0  0  0  0  0  0  0  0  0  0
    1.2941  -36.4722  -20.1353 N   0  0  0  0  0  0  0  0  0  0  0  0
    2.3441  -37.2963  -19.8871 C   0  0  0  0  0  0  0  0  0  0  0  0
    3.0399  -36.8858  -18.8093 N   0  0  0  0  0  0  0  0  0  0  0  0
    7.8691  -30.4395  -16.6082 N   0  0  0  0  0  0  0  0  0  0  0  0
    7.2539  -31.5565  -16.1777 C   0  0  0  0  0  0  0  0  0  0  0  0
    7.2352  -31.9514  -14.8919 N   0  0  0  0  0  0  0  0  0  0  0  0
    7.8543  -31.2217  -13.9326 C   0  0  0  0  0  0  0  0  0  0  0  0
    8.5493  -29.9858  -14.3246 C   0  0  0  0  0  0  0  0  0  0  0  0
    8.5247  -29.6182  -15.7600 C   0  0  0  0  0  0  0  0  0  0  0  0
    9.1399  -28.4954  -16.2059 N   0  0  0  0  0  0  0  0  0  0  0  0
    9.0686  -29.4635  -13.1974 N   0  0  0  0  0  0  0  0  0  0  0  0
    8.7359  -30.2921  -12.1743 C   0  0  0  0  0  0  0  0  0  0  0  0
    8.0128  -31.3392  -12.6121 N   0  0  0  0  0  0  0  0  0  0  0  0
  1  3  1  1  0  0  0
  1  5  2  0  0  0  0
  1  9  1  0  0  0  0
  1 18  1  0  0  0  0
  2  4  1  6  0  0  0
  2  6  2  0  0  0  0
  2 10  1  0  0  0  0
  2 17  1  0  0  0  0
  7  9  1  0  0  0  0
  8 10  1  0  0  0  0
 11  7  1  1  0  0  0
 11 13  1  0  0  0  0
 11 15  1  0  0  0  0
 12  8  1  6  0  0  0
 12 14  1  0  0  0  0
 12 16  1  0  0  0  0
 13 21  1  0  0  0  0
 14 22  1  0  0  0  0
 15 17  1  6  0  0  0
 15 19  1  0  0  0  0
 16 18  1  1  0  0  0
 16 20  1  0  0  0  0
 19 21  1  0  0  0  0
 20 22  1  0  0  0  0
 21 32  1  1  0  0  0
 22 42  1  6  0  0  0
 23 24  2  0  0  0  0
 23 28  1  0  0  0  0
 24 25  1  0  0  0  0
 25 26  2  0  0  0  0
 26 27  1  0  0  0  0
 26 32  1  0  0  0  0
 27 28  2  0  0  0  0
 27 30  1  0  0  0  0
 28 29  1  0  0  0  0
 30 31  2  0  0  0  0
 31 32  1  0  0  0  0
 33 34  2  0  0  0  0
 33 38  1  0  0  0  0
 34 35  1  0  0  0  0
 35 36  2  0  0  0  0
 36 37  1  0  0  0  0
 36 42  1  0  0  0  0
 37 38  2  0  0  0  0
 37 40  1  0  0  0  0
 38 39  1  0  0  0  0
 40 41  2  0  0  0  0
 41 42  1  0  0  0  0
M  CHG  2   3  -1   4  -1
M  END
>  <CHROM.1>
69.08219817,90.41024189,5.60431717,-34.47690075,-15.33195785,-3.03888943
-0.80248535,-0.58941872

>  <Name>
ligand

>  <RI>
0

>  <Rbt.Current_Directory>
/home/itssahil/PROJECTS/Mol_Feturizer/New_Systems/rnas/4QLN

>  <Rbt.Executable>
rbdock ($Id: //depot/dev/client3/rdock/2013.1/src/exe/rbdock.cxx#4 $)

>  <Rbt.Library>
libRbt.so (2013.1, Build901 2013/11/27)

>  <Rbt.Parameter_File>
/export/apps/rDock/src/rDock_2013.1_src/data/scripts/dock_solv.prm

>  <Rbt.Receptor>
prm/pocket_docking_3.prm

>  <SCORE>
-24.59

>  <SCORE.INTER>
-25.2747

>  <SCORE.INTER.CONST>
1

>  <SCORE.INTER.POLAR>
0

>  <SCORE.INTER.ROT>
2

>  <SCORE.INTER.SOLV>
25.4344

>  <SCORE.INTER.VDW>
-30.2612

>  <SCORE.INTER.norm>
-0.601778

>  <SCORE.INTRA>
0.673309

>  <SCORE.INTRA.DIHEDRAL>
0.00102147

>  <SCORE.INTRA.DIHEDRAL.0>
2.39985

>  <SCORE.INTRA.POLAR>
0

>  <SCORE.INTRA.POLAR.0>
0

>  <SCORE.INTRA.REPUL>
0

>  <SCORE.INTRA.REPUL.0>
0

>  <SCORE.INTRA.SOLV>
0.704347

>  <SCORE.INTRA.SOLV.lig_0>
-110.958

>  <SCORE.INTRA.VDW>
0.320625

>  <SCORE.INTRA.VDW.0>
-2.34644

>  <SCORE.INTRA.norm>
0.0160312

>  <SCORE.RESTR>
0.0113403

>  <SCORE.RESTR.CAVITY>
0.0113403

>  <SCORE.RESTR.norm>
0.000270007

>  <SCORE.SYSTEM>
0

>  <SCORE.SYSTEM.CONST>
0

>  <SCORE.SYSTEM.DIHEDRAL>
0

>  <SCORE.SYSTEM.SOLV>
0

>  <SCORE.SYSTEM.norm>
0

>  <SCORE.heavy>
42

>  <SCORE.norm>
-0.585476

>  <RMSD>
1.797

$$$$
ligand
 OpenBabel11021811513D
libRbt.so/2013.1/901 2013/11/27
 42 48  0  0  0  0  0  0  0  0999 V2000
    5.5213  -36.0246  -12.4774 P   0  0  2  0  0  0  0  0  0  0  0  0
    8.7236  -35.5291  -16.3522 P   0  0  1  0  0  0  0  0  0  0  0  0
    5.3158  -37.3951  -11.8754 O   0  5  0  0  0  0  0  0  0  0  0  0
    7.9876  -34.2114  -16.4002 O   0  5  0  0  0  0  0  0  0  0  0  0
    4.5485  -34.9123  -12.1669 O   0  0  0  0  0  0  0  0  0  0  0  0
    9.9823  -35.7198  -17.1638 O   0  0  0  0  0  0  0  0  0  0  0  0
    4.8520  -37.1916  -14.7461 C   0  0  0  0  0  0  0  0  0  0  0  0
    9.8669  -34.9762  -14.0412 C   0  0  0  0  0  0  0  0  0  0  0  0
    5.6097  -36.1853  -14.0765 O   0  0  0  0  0  0  0  0  0  0  0  0
    9.0603  -35.8627  -14.8134 O   0  0  0  0  0  0  0  0  0  0  0  0
    5.5997  -37.6435  -15.9948 C   0  0  1  0  0  0  0  0  0  0  0  0
    9.1744  -34.6783  -12.7174 C   0  0  1  0  0  0  0  0  0  0  0  0
    4.6795  -38.2200  -16.9256 O   0  0  0  0  0  0  0  0  0  0  0  0
    9.6537  -33.4388  -12.1904 O   0  0  0  0  0  0  0  0  0  0  0  0
    6.2836  -36.4731  -16.6811 C   0  0  1  0  0  0  0  0  0  0  0  0
    7.6696  -34.5557  -12.8970 C   0  0  1  0  0  0  0  0  0  0  0  0
    7.6885  -36.6982  -16.7469 O   0  0  0  0  0  0  0  0  0  0  0  0
    7.0013  -35.5225  -12.0921 O   0  0  0  0  0  0  0  0  0  0  0  0
    5.7030  -36.3972  -18.0809 C   0  0  0  0  0  0  0  0  0  0  0  0
    7.2958  -33.1566  -12.4470 C   0  0  0  0  0  0  0  0  0  0  0  0
    4.6894  -37.5278  -18.1770 C   0  0  2  0  0  0  0  0  0  0  0  0
    8.5954  -32.4940  -12.0127 C   0  0  2  0  0  0  0  0  0  0  0  0
    1.4216  -33.4717  -17.5076 N   0  0  0  0  0  0  0  0  0  0  0  0
    2.6855  -33.6474  -17.0801 C   0  0  0  0  0  0  0  0  0  0  0  0
    3.4119  -34.7527  -17.3286 N   0  0  0  0  0  0  0  0  0  0  0  0
    2.8936  -35.7787  -18.0454 C   0  0  0  0  0  0  0  0  0  0  0  0
    1.5160  -35.6619  -18.5487 C   0  0  0  0  0  0  0  0  0  0  0  0
    0.7798  -34.4146  -18.2333 C   0  0  0  0  0  0  0  0  0  0  0  0
   -0.4925  -34.2257  -18.6588 N   0  0  0  0  0  0  0  0  0  0  0  0
    1.2535  -36.8007  -19.2168 N   0  0  0  0  0  0  0  0  0  0  0  0
    2.3639  -37.5788  -19.1481 C   0  0  0  0  0  0  0  0  0  0  0  0
    3.3417  -36.9697  -18.4501 N   0  0  0  0  0  0  0  0  0  0  0  0
    7.7056  -30.0979  -16.5995 N   0  0  0  0  0  0  0  0  0  0  0  0
    7.2727  -31.2881  -16.1441 C   0  0  0  0  0  0  0  0  0  0  0  0
    7.5835  -31.7828  -14.9324 N   0  0  0  0  0  0  0  0  0  0  0  0
    8.3737  -31.0862  -14.0801 C   0  0  0  0  0  0  0  0  0  0  0  0
    8.8868  -29.7749  -14.5057 C   0  0  0  0  0  0  0  0  0  0  0  0
    8.4996  -29.2988  -15.8547 C   0  0  0  0  0  0  0  0  0  0  0  0
    8.9286  -28.1015  -16.3244 N   0  0  0  0  0  0  0  0  0  0  0  0
    9.6316  -29.3052  -13.4871 N   0  0  0  0  0  0  0  0  0  0  0  0
    9.5986  -30.2340  -12.4970 C   0  0  0  0  0  0  0  0  0  0  0  0
    8.8496  -31.2948  -12.8502 N   0  0  0  0  0  0  0  0  0  0  0  0
  1  3  1  1  0  0  0
  1  5  2  0  0  0  0
  1  9  1  0  0  0  0
  1 18  1  0  0  0  0
  2  4  1  6  0  0  0
  2  6  2  0  0  0  0
  2 10  1  0  0  0  0
  2 17  1  0  0  0  0
  7  9  1  0  0  0  0
  8 10  1  0  0  0  0
 11  7  1  1  0  0  0
 11 13  1  0  0  0  0
 11 15  1  0  0  0  0
 12  8  1  6  0  0  0
 12 14  1  0  0  0  0
 12 16  1  0  0  0  0
 13 21  1  0  0  0  0
 14 22  1  0  0  0  0
 15 17  1  6  0  0  0
 15 19  1  0  0  0  0
 16 18  1  1  0  0  0
 16 20  1  0  0  0  0
 19 21  1  0  0  0  0
 20 22  1  0  0  0  0
 21 32  1  1  0  0  0
 22 42  1  6  0  0  0
 23 24  2  0  0  0  0
 23 28  1  0  0  0  0
 24 25  1  0  0  0  0
 25 26  2  0  0  0  0
 26 27  1  0  0  0  0
 26 32  1  0  0  0  0
 27 28  2  0  0  0  0
 27 30  1  0  0  0  0
 28 29  1  0  0  0  0
 30 31  2  0  0  0  0
 31 32  1  0  0  0  0
 33 34  2  0  0  0  0
 33 38  1  0  0  0  0
 34 35  1  0  0  0  0
 35 36  2  0  0  0  0
 36 37  1  0  0  0  0
 36 42  1  0  0  0  0
 37 38  2  0  0  0  0
 37 40  1  0  0  0  0
 38 39  1  0  0  0  0
 40 41  2  0  0  0  0
 41 42  1  0  0  0  0
M  CHG  2   3  -1   4  -1
M  END
>  <CHROM.1>
87.55403965,94.16790040,6.29462007,-34.45945728,-15.37390629,-0.33710848
0.70242675,2.80997738

>  <Name>
ligand

>  <RI>
0

>  <Rbt.Current_Directory>
/home/itssahil/PROJECTS/Mol_Feturizer/New_Systems/rnas/4QLN

>  <Rbt.Executable>
rbdock ($Id: //depot/dev/client3/rdock/2013.1/src/exe/rbdock.cxx#4 $)

>  <Rbt.Library>
libRbt.so (2013.1, Build901 2013/11/27)

>  <Rbt.Parameter_File>
/export/apps/rDock/src/rDock_2013.1_src/data/scripts/dock_solv.prm

>  <Rbt.Receptor>
prm/pocket_docking_5.prm

>  <SCORE>
-19.3514

>  <SCORE.INTER>
-20.938

>  <SCORE.INTER.CONST>
1

>  <SCORE.INTER.POLAR>
0

>  <SCORE.INTER.ROT>
2

>  <SCORE.INTER.SOLV>
26.2474

>  <SCORE.INTER.VDW>
-27.6411

>  <SCORE.INTER.norm>
-0.498524

>  <SCORE.INTRA>
1.58661

>  <SCORE.INTRA.DIHEDRAL>
0.00114364

>  <SCORE.INTRA.DIHEDRAL.0>
2.39985

>  <SCORE.INTRA.POLAR>
0

>  <SCORE.INTRA.POLAR.0>
0

>  <SCORE.INTRA.REPUL>
0

>  <SCORE.INTRA.REPUL.0>
0

>  <SCORE.INTRA.SOLV>
0.5615

>  <SCORE.INTRA.SOLV.lig_0>
-110.958

>  <SCORE.INTRA.VDW>
1.30529

>  <SCORE.INTRA.VDW.0>
-2.34644

>  <SCORE.INTRA.norm>
0.0377765

>  <SCORE.RESTR>
0

>  <SCORE.RESTR.CAVITY>
0

>  <SCORE.RESTR.norm>
0

>  <SCORE.SYSTEM>
0

>  <SCORE.SYSTEM.CONST>
0

>  <SCORE.SYSTEM.DIHEDRAL>
0

>  <SCORE.SYSTEM.SOLV>
0

>  <SCORE.SYSTEM.norm>
0

>  <SCORE.heavy>
42

>  <SCORE.norm>
-0.460748

>  <RMSD>
1.817

$$$$
ligand
 OpenBabel11021811513D
libRbt.so/2013.1/901 2013/11/27
 42 48  0  0  0  0  0  0  0  0999 V2000
    5.3699  -36.0573  -12.4392 P   0  0  2  0  0  0  0  0  0  0  0  0
    8.6166  -35.5778  -16.2789 P   0  0  1  0  0  0  0  0  0  0  0  0
    5.1549  -37.4259  -11.8362 O   0  5  0  0  0  0  0  0  0  0  0  0
    7.8839  -34.2587  -16.3385 O   0  5  0  0  0  0  0  0  0  0  0  0
    4.3959  -34.9423  -12.1425 O   0  0  0  0  0  0  0  0  0  0  0  0
    9.8841  -35.7729  -17.0758 O   0  0  0  0  0  0  0  0  0  0  0  0
    4.7239  -37.2286  -14.7125 C   0  0  0  0  0  0  0  0  0  0  0  0
    9.7349  -35.0213  -13.9566 C   0  0  0  0  0  0  0  0  0  0  0  0
    5.4760  -36.2222  -14.0369 O   0  0  0  0  0  0  0  0  0  0  0  0
    8.9353  -35.9081  -14.7356 O   0  0  0  0  0  0  0  0  0  0  0  0
    5.4848  -37.6851  -15.9515 C   0  0  1  0  0  0  0  0  0  0  0  0
    9.0281  -34.7187  -12.6414 C   0  0  1  0  0  0  0  0  0  0  0  0
    4.5740  -38.2621  -16.8912 O   0  0  0  0  0  0  0  0  0  0  0  0
    9.5039  -33.4788  -12.1121 O   0  0  0  0  0  0  0  0  0  0  0  0
    6.1787  -36.5178  -16.6329 C   0  0  1  0  0  0  0  0  0  0  0  0
    7.5257  -34.5937  -12.8383 C   0  0  1  0  0  0  0  0  0  0  0  0
    7.5838  -36.7458  -16.6824 O   0  0  0  0  0  0  0  0  0  0  0  0
    6.8464  -35.5571  -12.0386 O   0  0  0  0  0  0  0  0  0  0  0  0
    5.6140  -36.4443  -18.0394 C   0  0  0  0  0  0  0  0  0  0  0  0
    7.1496  -33.1927  -12.3960 C   0  0  0  0  0  0  0  0  0  0  0  0
    4.5993  -37.5731  -18.1442 C   0  0  2  0  0  0  0  0  0  0  0  0
    8.4456  -32.5315  -11.9487 C   0  0  2  0  0  0  0  0  0  0  0  0
    1.3439  -33.4955  -17.5499 N   0  0  0  0  0  0  0  0  0  0  0  0
    2.6041  -33.6708  -17.1113 C   0  0  0  0  0  0  0  0  0  0  0  0
    3.3276  -34.7822  -17.3405 N   0  0  0  0  0  0  0  0  0  0  0  0
    2.8100  -35.8151  -18.0476 C   0  0  0  0  0  0  0  0  0  0  0  0
    1.4364  -35.6992  -18.5620 C   0  0  0  0  0  0  0  0  0  0  0  0
    0.7033  -34.4450  -18.2678 C   0  0  0  0  0  0  0  0  0  0  0  0
   -0.5653  -34.2563  -18.7046 N   0  0  0  0  0  0  0  0  0  0  0  0
    1.1739  -36.8455  -19.2173 N   0  0  0  0  0  0  0  0  0  0  0  0
    2.2805  -37.6272  -19.1307 C   0  0  0  0  0  0  0  0  0  0  0  0
    3.2559  -37.0131  -18.4338 N   0  0  0  0  0  0  0  0  0  0  0  0
    7.6837  -30.1834  -16.5832 N   0  0  0  0  0  0  0  0  0  0  0  0
    7.2525  -31.3766  -16.1339 C   0  0  0  0  0  0  0  0  0  0  0  0
    7.5275  -31.8574  -14.9080 N   0  0  0  0  0  0  0  0  0  0  0  0
    8.2765  -31.1427  -14.0338 C   0  0  0  0  0  0  0  0  0  0  0  0
    8.7850  -29.8270  -14.4515 C   0  0  0  0  0  0  0  0  0  0  0  0
    8.4389  -29.3669  -15.8171 C   0  0  0  0  0  0  0  0  0  0  0  0
    8.8665  -28.1669  -16.2809 N   0  0  0  0  0  0  0  0  0  0  0  0
    9.4861  -29.3386  -13.4110 N   0  0  0  0  0  0  0  0  0  0  0  0
    9.4317  -30.2603  -12.4153 C   0  0  0  0  0  0  0  0  0  0  0  0
    8.7115  -31.3349  -12.7862 N   0  0  0  0  0  0  0  0  0  0  0  0
  1  3  1  1  0  0  0
  1  5  2  0  0  0  0
  1  9  1  0  0  0  0
  1 18  1  0  0  0  0
  2  4  1  6  0  0  0
  2  6  2  0  0  0  0
  2 10  1  0  0  0  0
  2 17  1  0  0  0  0
  7  9  1  0  0  0  0
  8 10  1  0  0  0  0
 11  7  1  1  0  0  0
 11 13  1  0  0  0  0
 11 15  1  0  0  0  0
 12  8  1  6  0  0  0
 12 14  1  0  0  0  0
 12 16  1  0  0  0  0
 13 21  1  0  0  0  0
 14 22  1  0  0  0  0
 15 17  1  6  0  0  0
 15 19  1  0  0  0  0
 16 18  1  1  0  0  0
 16 20  1  0  0  0  0
 19 21  1  0  0  0  0
 20 22  1  0  0  0  0
 21 32  1  1  0  0  0
 22 42  1  6  0  0  0
 23 24  2  0  0  0  0
 23 28  1  0  0  0  0
 24 25  1  0  0  0  0
 25 26  2  0  0  0  0
 26 27  1  0  0  0  0
 26 32  1  0  0  0  0
 27 28  2  0  0  0  0
 27 30  1  0  0  0  0
 28 29  1  0  0  0  0
 30 31  2  0  0  0  0
 31 32  1  0  0  0  0
 33 34  2  0  0  0  0
 33 38  1  0  0  0  0
 34 35  1  0  0  0  0
 35 36  2  0  0  0  0
 36 37  1  0  0  0  0
 36 42  1  0  0  0  0
 37 38  2  0  0  0  0
 37 40  1  0  0  0  0
 38 39  1  0  0  0  0
 40 41  2  0  0  0  0
 41 42  1  0  0  0  0
M  CHG  2   3  -1   4  -1
M  END
>  <CHROM.1>
88.20943274,92.45341389,6.18574541,-34.50294180,-15.33568841,-0.31968167
0.71484996,2.78906748

>  <Name>
ligand

>  <RI>
0

>  <Rbt.Current_Directory>
/home/itssahil/PROJECTS/Mol_Feturizer/New_Systems/rnas/4QLN

>  <Rbt.Executable>
rbdock ($Id: //depot/dev/client3/rdock/2013.1/src/exe/rbdock.cxx#4 $)

>  <Rbt.Library>
libRbt.so (2013.1, Build901 2013/11/27)

>  <Rbt.Parameter_File>
/export/apps/rDock/src/rDock_2013.1_src/data/scripts/dock_solv.prm

>  <Rbt.Receptor>
prm/pocket_docking_4.prm

>  <SCORE>
-19.3119

>  <SCORE.INTER>
-20.9305

>  <SCORE.INTER.CONST>
1

>  <SCORE.INTER.POLAR>
0

>  <SCORE.INTER.ROT>
2

>  <SCORE.INTER.SOLV>
26.1357

>  <SCORE.INTER.VDW>
-27.5989

>  <SCORE.INTER.norm>
-0.498346

>  <SCORE.INTRA>
1.61865

>  <SCORE.INTRA.DIHEDRAL>
0.00115624

>  <SCORE.INTRA.DIHEDRAL.0>
2.39985

>  <SCORE.INTRA.POLAR>
0

>  <SCORE.INTRA.POLAR.0>
0

>  <SCORE.INTRA.REPUL>
0

>  <SCORE.INTRA.REPUL.0>
0

>  <SCORE.INTRA.SOLV>
0.613266

>  <SCORE.INTRA.SOLV.lig_0>
-110.958

>  <SCORE.INTRA.VDW>
1.31144

>  <SCORE.INTRA.VDW.0>
-2.34644

>  <SCORE.INTRA.norm>
0.0385392

>  <SCORE.RESTR>
0

>  <SCORE.RESTR.CAVITY>
0

>  <SCORE.RESTR.norm>
0

>  <SCORE.SYSTEM>
0

>  <SCORE.SYSTEM.CONST>
0

>  <SCORE.SYSTEM.DIHEDRAL>
0

>  <SCORE.SYSTEM.SOLV>
0

>  <SCORE.SYSTEM.norm>
0

>  <SCORE.heavy>
42

>  <SCORE.norm>
-0.459807

>  <RMSD>
1.821

$$$$
ligand
 OpenBabel11021811513D
libRbt.so/2013.1/901 2013/11/27
 42 48  0  0  0  0  0  0  0  0999 V2000
    9.1932  -35.7192  -15.7604 P   0  0  2  0  0  0  0  0  0  0  0  0
    5.0437  -34.6236  -13.0965 P   0  0  1  0  0  0  0  0  0  0  0  0
   10.3844  -36.3072  -15.0406 O   0  5  0  0  0  0  0  0  0  0  0  0
    4.7728  -33.8917  -14.3893 O   0  5  0  0  0  0  0  0  0  0  0  0
    9.3572  -35.1546  -17.1512 O   0  0  0  0  0  0  0  0  0  0  0  0
    3.9350  -34.8097  -12.0888 O   0  0  0  0  0  0  0  0  0  0  0  0
    9.3848  -33.7826  -13.9800 C   0  0  0  0  0  0  0  0  0  0  0  0
    4.8952  -36.9970  -14.2359 C   0  0  0  0  0  0  0  0  0  0  0  0
    8.5533  -34.5765  -14.8246 O   0  0  0  0  0  0  0  0  0  0  0  0
    5.6483  -36.0724  -13.4546 O   0  0  0  0  0  0  0  0  0  0  0  0
    8.6007  -33.3676  -12.7408 C   0  0  1  0  0  0  0  0  0  0  0  0
    5.7616  -37.5320  -15.3692 C   0  0  1  0  0  0  0  0  0  0  0  0
    9.1867  -32.1943  -12.1702 O   0  0  0  0  0  0  0  0  0  0  0  0
    4.9292  -38.0024  -16.4320 O   0  0  0  0  0  0  0  0  0  0  0  0
    7.1563  -33.0458  -13.0851 C   0  0  1  0  0  0  0  0  0  0  0  0
    6.6654  -36.4469  -15.9325 C   0  0  1  0  0  0  0  0  0  0  0  0
    6.2786  -33.9001  -12.3580 O   0  0  0  0  0  0  0  0  0  0  0  0
    8.0306  -36.8317  -15.8015 O   0  0  0  0  0  0  0  0  0  0  0  0
    6.9298  -31.6012  -12.6796 C   0  0  0  0  0  0  0  0  0  0  0  0
    6.3035  -36.3046  -17.3983 C   0  0  0  0  0  0  0  0  0  0  0  0
    8.2528  -31.1129  -12.1086 C   0  0  2  0  0  0  0  0  0  0  0  0
    5.1944  -37.3143  -17.6569 C   0  0  2  0  0  0  0  0  0  0  0  0
    8.5676  -28.9341  -16.8764 N   0  0  0  0  0  0  0  0  0  0  0  0
    7.9805  -30.0793  -16.4828 C   0  0  0  0  0  0  0  0  0  0  0  0
    7.9788  -30.5199  -15.2112 N   0  0  0  0  0  0  0  0  0  0  0  0
    8.5862  -29.8116  -14.2292 C   0  0  0  0  0  0  0  0  0  0  0  0
    9.2509  -28.5468  -14.5803 C   0  0  0  0  0  0  0  0  0  0  0  0
    9.2105  -28.1285  -16.0017 C   0  0  0  0  0  0  0  0  0  0  0  0
    9.7971  -26.9775  -16.4101 N   0  0  0  0  0  0  0  0  0  0  0  0
    9.7654  -28.0536  -13.4381 N   0  0  0  0  0  0  0  0  0  0  0  0
    9.4582  -28.9246  -12.4431 C   0  0  0  0  0  0  0  0  0  0  0  0
    8.7551  -29.9724  -12.9144 N   0  0  0  0  0  0  0  0  0  0  0  0
    1.5338  -33.7343  -16.4925 N   0  0  0  0  0  0  0  0  0  0  0  0
    2.5930  -34.1563  -15.7774 C   0  0  0  0  0  0  0  0  0  0  0  0
    3.4589  -35.0924  -16.2057 N   0  0  0  0  0  0  0  0  0  0  0  0
    3.3051  -35.6777  -17.4180 C   0  0  0  0  0  0  0  0  0  0  0  0
    2.1700  -35.2691  -18.2598 C   0  0  0  0  0  0  0  0  0  0  0  0
    1.2606  -34.2319  -17.7178 C   0  0  0  0  0  0  0  0  0  0  0  0
    0.1909  -33.7980  -18.4287 N   0  0  0  0  0  0  0  0  0  0  0  0
    2.2516  -35.9931  -19.3920 N   0  0  0  0  0  0  0  0  0  0  0  0
    3.3423  -36.7948  -19.2844 C   0  0  0  0  0  0  0  0  0  0  0  0
    3.9697  -36.6072  -18.1087 N   0  0  0  0  0  0  0  0  0  0  0  0
  1  3  1  1  0  0  0
  1  5  2  0  0  0  0
  1  9  1  0  0  0  0
  1 18  1  0  0  0  0
  2  4  1  6  0  0  0
  2  6  2  0  0  0  0
  2 10  1  0  0  0  0
  2 17  1  0  0  0  0
  7  9  1  0  0  0  0
  8 10  1  0  0  0  0
 11  7  1  6  0  0  0
 11 13  1  0  0  0  0
 11 15  1  0  0  0  0
 12  8  1  1  0  0  0
 12 14  1  0  0  0  0
 12 16  1  0  0  0  0
 13 21  1  0  0  0  0
 14 22  1  0  0  0  0
 15 17  1  1  0  0  0
 15 19  1  0  0  0  0
 16 18  1  6  0  0  0
 16 20  1  0  0  0  0
 19 21  1  0  0  0  0
 20 22  1  0  0  0  0
 21 32  1  6  0  0  0
 22 42  1  1  0  0  0
 23 24  2  0  0  0  0
 23 28  1  0  0  0  0
 24 25  1  0  0  0  0
 25 26  2  0  0  0  0
 26 27  1  0  0  0  0
 26 32  1  0  0  0  0
 27 28  2  0  0  0  0
 27 30  1  0  0  0  0
 28 29  1  0  0  0  0
 30 31  2  0  0  0  0
 31 32  1  0  0  0  0
 33 34  2  0  0  0  0
 33 38  1  0  0  0  0
 34 35  1  0  0  0  0
 35 36  2  0  0  0  0
 36 37  1  0  0  0  0
 36 42  1  0  0  0  0
 37 38  2  0  0  0  0
 37 40  1  0  0  0  0
 38 39  1  0  0  0  0
 40 41  2  0  0  0  0
 41 42  1  0  0  0  0
M  CHG  2   3  -1   4  -1
M  END
>  <CHROM.1>
85.08377571,58.63369412,6.45864794,-33.76554366,-15.21876796,-0.75991573
0.50896523,3.11670993

>  <Name>
ligand

>  <RI>
0

>  <Rbt.Current_Directory>
/home/itssahil/PROJECTS/Mol_Feturizer/New_Systems/rnas/4QLN

>  <Rbt.Executable>
rbdock ($Id: //depot/dev/client3/rdock/2013.1/src/exe/rbdock.cxx#4 $)

>  <Rbt.Library>
libRbt.so (2013.1, Build901 2013/11/27)

>  <Rbt.Parameter_File>
/export/apps/rDock/src/rDock_2013.1_src/data/scripts/dock_solv.prm

>  <Rbt.Receptor>
prm/pocket_docking_6.prm

>  <SCORE>
-23.4958

>  <SCORE.INTER>
-24.8054

>  <SCORE.INTER.CONST>
1

>  <SCORE.INTER.POLAR>
0

>  <SCORE.INTER.ROT>
2

>  <SCORE.INTER.SOLV>
26.5566

>  <SCORE.INTER.VDW>
-30.3225

>  <SCORE.INTER.norm>
-0.590605

>  <SCORE.INTRA>
1.30959

>  <SCORE.INTRA.DIHEDRAL>
0.000348148

>  <SCORE.INTRA.DIHEDRAL.0>
2.39985

>  <SCORE.INTRA.POLAR>
0

>  <SCORE.INTRA.POLAR.0>
0

>  <SCORE.INTRA.REPUL>
0

>  <SCORE.INTRA.REPUL.0>
0

>  <SCORE.INTRA.SOLV>
1.25004

>  <SCORE.INTRA.SOLV.lig_0>
-110.958

>  <SCORE.INTRA.VDW>
0.684397

>  <SCORE.INTRA.VDW.0>
-2.34644

>  <SCORE.INTRA.norm>
0.0311808

>  <SCORE.RESTR>
0

>  <SCORE.RESTR.CAVITY>
0

>  <SCORE.RESTR.norm>
0

>  <SCORE.SYSTEM>
0

>  <SCORE.SYSTEM.CONST>
0

>  <SCORE.SYSTEM.DIHEDRAL>
0

>  <SCORE.SYSTEM.SOLV>
0

>  <SCORE.SYSTEM.norm>
0

>  <SCORE.heavy>
42

>  <SCORE.norm>
-0.559424

>  <RMSD>
1.828

$$$$
ligand
 OpenBabel11021811513D
libRbt.so/2013.1/901 2013/11/27
 42 48  0  0  0  0  0  0  0  0999 V2000
    9.2260  -35.6778  -15.7583 P   0  0  2  0  0  0  0  0  0  0  0  0
    5.0679  -34.6118  -13.0959 P   0  0  1  0  0  0  0  0  0  0  0  0
   10.4204  -36.2593  -15.0384 O   0  5  0  0  0  0  0  0  0  0  0  0
    4.7933  -33.8798  -14.3879 O   0  5  0  0  0  0  0  0  0  0  0  0
    9.3875  -35.1103  -17.1482 O   0  0  0  0  0  0  0  0  0  0  0  0
    3.9597  -34.8062  -12.0892 O   0  0  0  0  0  0  0  0  0  0  0  0
    9.4043  -33.7424  -13.9752 C   0  0  0  0  0  0  0  0  0  0  0  0
    4.9350  -36.9845  -14.2386 C   0  0  0  0  0  0  0  0  0  0  0  0
    8.5783  -34.5403  -14.8215 O   0  0  0  0  0  0  0  0  0  0  0  0
    5.6818  -36.0562  -13.4555 O   0  0  0  0  0  0  0  0  0  0  0  0
    8.6168  -33.3340  -12.7360 C   0  0  1  0  0  0  0  0  0  0  0  0
    5.8055  -37.5125  -15.3719 C   0  0  1  0  0  0  0  0  0  0  0  0
    9.1950  -32.1578  -12.1633 O   0  0  0  0  0  0  0  0  0  0  0  0
    4.9768  -37.9867  -16.4360 O   0  0  0  0  0  0  0  0  0  0  0  0
    7.1706  -33.0208  -13.0808 C   0  0  1  0  0  0  0  0  0  0  0  0
    6.7029  -36.4210  -15.9331 C   0  0  1  0  0  0  0  0  0  0  0  0
    6.2978  -33.8816  -12.3555 O   0  0  0  0  0  0  0  0  0  0  0  0
    8.0704  -36.7975  -15.8017 O   0  0  0  0  0  0  0  0  0  0  0  0
    6.9348  -31.5782  -12.6736 C   0  0  0  0  0  0  0  0  0  0  0  0
    6.3412  -36.2790  -17.3990 C   0  0  0  0  0  0  0  0  0  0  0  0
    8.2543  -31.0824  -12.1010 C   0  0  2  0  0  0  0  0  0  0  0  0
    5.2386  -37.2953  -17.6598 C   0  0  2  0  0  0  0  0  0  0  0  0
    8.5585  -28.8951  -16.8656 N   0  0  0  0  0  0  0  0  0  0  0  0
    7.9782  -30.0445  -16.4739 C   0  0  0  0  0  0  0  0  0  0  0  0
    7.9785  -30.4868  -15.2029 N   0  0  0  0  0  0  0  0  0  0  0  0
    8.5809  -29.7761  -14.2196 C   0  0  0  0  0  0  0  0  0  0  0  0
    9.2380  -28.5067  -14.5685 C   0  0  0  0  0  0  0  0  0  0  0  0
    9.1958  -28.0867  -15.9893 C   0  0  0  0  0  0  0  0  0  0  0  0
    9.7755  -26.9316  -16.3958 N   0  0  0  0  0  0  0  0  0  0  0  0
    9.7487  -28.0119  -13.4254 N   0  0  0  0  0  0  0  0  0  0  0  0
    9.4463  -28.8862  -12.4318 C   0  0  0  0  0  0  0  0  0  0  0  0
    8.7500  -29.9377  -12.9049 N   0  0  0  0  0  0  0  0  0  0  0  0
    1.6615  -33.6069  -16.5771 N   0  0  0  0  0  0  0  0  0  0  0  0
    2.7366  -34.0061  -15.8727 C   0  0  0  0  0  0  0  0  0  0  0  0
    3.5769  -34.9758  -16.2766 N   0  0  0  0  0  0  0  0  0  0  0  0
    3.3786  -35.6214  -17.4512 C   0  0  0  0  0  0  0  0  0  0  0  0
    2.2236  -35.2411  -18.2791 C   0  0  0  0  0  0  0  0  0  0  0  0
    1.3446  -34.1640  -17.7658 C   0  0  0  0  0  0  0  0  0  0  0  0
    0.2592  -33.7526  -18.4663 N   0  0  0  0  0  0  0  0  0  0  0  0
    2.2613  -36.0246  -19.3735 N   0  0  0  0  0  0  0  0  0  0  0  0
    3.3444  -36.8352  -19.2563 C   0  0  0  0  0  0  0  0  0  0  0  0
    4.0098  -36.5952  -18.1115 N   0  0  0  0  0  0  0  0  0  0  0  0
  1  3  1  1  0  0  0
  1  5  2  0  0  0  0
  1  9  1  0  0  0  0
  1 18  1  0  0  0  0
  2  4  1  6  0  0  0
  2  6  2  0  0  0  0
  2 10  1  0  0  0  0
  2 17  1  0  0  0  0
  7  9  1  0  0  0  0
  8 10  1  0  0  0  0
 11  7  1  6  0  0  0
 11 13  1  0  0  0  0
 11 15  1  0  0  0  0
 12  8  1  1  0  0  0
 12 14  1  0  0  0  0
 12 16  1  0  0  0  0
 13 21  1  0  0  0  0
 14 22  1  0  0  0  0
 15 17  1  1  0  0  0
 15 19  1  0  0  0  0
 16 18  1  6  0  0  0
 16 20  1  0  0  0  0
 19 21  1  0  0  0  0
 20 22  1  0  0  0  0
 21 32  1  6  0  0  0
 22 42  1  1  0  0  0
 23 24  2  0  0  0  0
 23 28  1  0  0  0  0
 24 25  1  0  0  0  0
 25 26  2  0  0  0  0
 26 27  1  0  0  0  0
 26 32  1  0  0  0  0
 27 28  2  0  0  0  0
 27 30  1  0  0  0  0
 28 29  1  0  0  0  0
 30 31  2  0  0  0  0
 31 32  1  0  0  0  0
 33 34  2  0  0  0  0
 33 38  1  0  0  0  0
 34 35  1  0  0  0  0
 35 36  2  0  0  0  0
 36 37  1  0  0  0  0
 36 42  1  0  0  0  0
 37 38  2  0  0  0  0
 37 40  1  0  0  0  0
 38 39  1  0  0  0  0
 40 41  2  0  0  0  0
 41 42  1  0  0  0  0
M  CHG  2   3  -1   4  -1
M  END
>  <CHROM.1>
85.09108544,62.37440344,6.48765993,-33.73106895,-15.22287485,-0.76470017
0.52329407,3.11313626

>  <Name>
ligand

>  <RI>
0

>  <Rbt.Current_Directory>
/home/itssahil/PROJECTS/Mol_Feturizer/New_Systems/rnas/4QLN

>  <Rbt.Executable>
rbdock ($Id: //depot/dev/client3/rdock/2013.1/src/exe/rbdock.cxx#4 $)

>  <Rbt.Library>
libRbt.so (2013.1, Build901 2013/11/27)

>  <Rbt.Parameter_File>
/export/apps/rDock/src/rDock_2013.1_src/data/scripts/dock_solv.prm

>  <Rbt.Receptor>
prm/pocket_docking_5.prm

>  <SCORE>
-23.4111

>  <SCORE.INTER>
-25.2544

>  <SCORE.INTER.CONST>
1

>  <SCORE.INTER.POLAR>
0

>  <SCORE.INTER.ROT>
2

>  <SCORE.INTER.SOLV>
26.8916

>  <SCORE.INTER.VDW>
-30.7335

>  <SCORE.INTER.norm>
-0.601296

>  <SCORE.INTRA>
1.84337

>  <SCORE.INTRA.DIHEDRAL>
0.000495275

>  <SCORE.INTRA.DIHEDRAL.0>
2.39985

>  <SCORE.INTRA.POLAR>
0

>  <SCORE.INTRA.POLAR.0>
0

>  <SCORE.INTRA.REPUL>
0

>  <SCORE.INTRA.REPUL.0>
0

>  <SCORE.INTRA.SOLV>
1.24671

>  <SCORE.INTRA.SOLV.lig_0>
-110.958

>  <SCORE.INTRA.VDW>
1.21977

>  <SCORE.INTRA.VDW.0>
-2.34644

>  <SCORE.INTRA.norm>
0.0438899

>  <SCORE.RESTR>
0

>  <SCORE.RESTR.CAVITY>
0

>  <SCORE.RESTR.norm>
0

>  <SCORE.SYSTEM>
0

>  <SCORE.SYSTEM.CONST>
0

>  <SCORE.SYSTEM.DIHEDRAL>
0

>  <SCORE.SYSTEM.SOLV>
0

>  <SCORE.SYSTEM.norm>
0

>  <SCORE.heavy>
42

>  <SCORE.norm>
-0.557406

>  <RMSD>
1.838

$$$$
ligand
 OpenBabel11021811513D
libRbt.so/2013.1/901 2013/11/27
 42 48  0  0  0  0  0  0  0  0999 V2000
    9.2627  -35.6419  -15.8774 P   0  0  2  0  0  0  0  0  0  0  0  0
    5.1350  -34.6739  -13.1316 P   0  0  1  0  0  0  0  0  0  0  0  0
   10.4737  -36.2256  -15.1876 O   0  5  0  0  0  0  0  0  0  0  0  0
    4.8335  -33.9184  -14.4039 O   0  5  0  0  0  0  0  0  0  0  0  0
    9.3974  -35.0444  -17.2575 O   0  0  0  0  0  0  0  0  0  0  0  0
    4.0441  -34.9004  -12.1127 O   0  0  0  0  0  0  0  0  0  0  0  0
    9.4485  -33.7417  -14.0575 C   0  0  0  0  0  0  0  0  0  0  0  0
    5.0087  -37.0239  -14.3210 C   0  0  0  0  0  0  0  0  0  0  0  0
    8.6179  -34.5306  -14.9076 O   0  0  0  0  0  0  0  0  0  0  0  0
    5.7578  -36.1042  -13.5301 O   0  0  0  0  0  0  0  0  0  0  0  0
    8.6758  -33.3670  -12.7985 C   0  0  1  0  0  0  0  0  0  0  0  0
    5.8671  -37.5195  -15.4779 C   0  0  1  0  0  0  0  0  0  0  0  0
    9.2508  -32.1969  -12.2104 O   0  0  0  0  0  0  0  0  0  0  0  0
    5.0272  -37.9804  -16.5390 O   0  0  0  0  0  0  0  0  0  0  0  0
    7.2215  -33.0618  -13.1151 C   0  0  1  0  0  0  0  0  0  0  0  0
    6.7449  -36.4075  -16.0298 C   0  0  1  0  0  0  0  0  0  0  0  0
    6.3685  -33.9463  -12.3948 O   0  0  0  0  0  0  0  0  0  0  0  0
    8.1180  -36.7724  -15.9266 O   0  0  0  0  0  0  0  0  0  0  0  0
    6.9774  -31.6304  -12.6747 C   0  0  0  0  0  0  0  0  0  0  0  0
    6.3596  -36.2392  -17.4868 C   0  0  0  0  0  0  0  0  0  0  0  0
    8.3004  -31.1328  -12.1118 C   0  0  2  0  0  0  0  0  0  0  0  0
    5.2634  -37.2613  -17.7520 C   0  0  2  0  0  0  0  0  0  0  0  0
    8.5614  -28.8733  -16.8452 N   0  0  0  0  0  0  0  0  0  0  0  0
    8.0053  -30.0400  -16.4701 C   0  0  0  0  0  0  0  0  0  0  0  0
    8.0141  -30.4999  -15.2053 N   0  0  0  0  0  0  0  0  0  0  0  0
    8.6007  -29.7904  -14.2116 C   0  0  0  0  0  0  0  0  0  0  0  0
    9.2310  -28.5027  -14.5422 C   0  0  0  0  0  0  0  0  0  0  0  0
    9.1809  -28.0639  -15.9571 C   0  0  0  0  0  0  0  0  0  0  0  0
    9.7363  -26.8912  -16.3468 N   0  0  0  0  0  0  0  0  0  0  0  0
    9.7304  -28.0132  -13.3918 N   0  0  0  0  0  0  0  0  0  0  0  0
    9.4459  -28.9075  -12.4108 C   0  0  0  0  0  0  0  0  0  0  0  0
    8.7723  -29.9668  -12.8992 N   0  0  0  0  0  0  0  0  0  0  0  0
    1.7272  -33.5565  -16.5936 N   0  0  0  0  0  0  0  0  0  0  0  0
    2.8248  -33.9490  -15.9206 C   0  0  0  0  0  0  0  0  0  0  0  0
    3.6505  -34.9242  -16.3411 N   0  0  0  0  0  0  0  0  0  0  0  0
    3.4128  -35.5829  -17.5011 C   0  0  0  0  0  0  0  0  0  0  0  0
    2.2313  -35.2106  -18.2946 C   0  0  0  0  0  0  0  0  0  0  0  0
    1.3707  -34.1267  -17.7647 C   0  0  0  0  0  0  0  0  0  0  0  0
    0.2631  -33.7219  -18.4336 N   0  0  0  0  0  0  0  0  0  0  0  0
    2.2321  -36.0065  -19.3806 N   0  0  0  0  0  0  0  0  0  0  0  0
    3.3178  -36.8170  -19.2901 C   0  0  0  0  0  0  0  0  0  0  0  0
    4.0209  -36.5649  -18.1707 N   0  0  0  0  0  0  0  0  0  0  0  0
  1  3  1  1  0  0  0
  1  5  2  0  0  0  0
  1  9  1  0  0  0  0
  1 18  1  0  0  0  0
  2  4  1  6  0  0  0
  2  6  2  0  0  0  0
  2 10  1  0  0  0  0
  2 17  1  0  0  0  0
  7  9  1  0  0  0  0
  8 10  1  0  0  0  0
 11  7  1  6  0  0  0
 11 13  1  0  0  0  0
 11 15  1  0  0  0  0
 12  8  1  1  0  0  0
 12 14  1  0  0  0  0
 12 16  1  0  0  0  0
 13 21  1  0  0  0  0
 14 22  1  0  0  0  0
 15 17  1  1  0  0  0
 15 19  1  0  0  0  0
 16 18  1  6  0  0  0
 16 20  1  0  0  0  0
 19 21  1  0  0  0  0
 20 22  1  0  0  0  0
 21 32  1  6  0  0  0
 22 42  1  1  0  0  0
 23 24  2  0  0  0  0
 23 28  1  0  0  0  0
 24 25  1  0  0  0  0
 25 26  2  0  0  0  0
 26 27  1  0  0  0  0
 26 32  1  0  0  0  0
 27 28  2  0  0  0  0
 27 30  1  0  0  0  0
 28 29  1  0  0  0  0
 30 31  2  0  0  0  0
 31 32  1  0  0  0  0
 33 34  2  0  0  0  0
 33 38  1  0  0  0  0
 34 35  1  0  0  0  0
 35 36  2  0  0  0  0
 36 37  1  0  0  0  0
 36 42  1  0  0  0  0
 37 38  2  0  0  0  0
 37 40  1  0  0  0  0
 38 39  1  0  0  0  0
 40 41  2  0  0  0  0
 41 42  1  0  0  0  0
M  CHG  2   3  -1   4  -1
M  END
>  <CHROM.1>
83.92265165,64.57473526,6.52258123,-33.73105319,-15.26624348,-0.77309890
0.51565294,3.13356953

>  <Name>
ligand

>  <RI>
0

>  <Rbt.Current_Directory>
/home/itssahil/PROJECTS/Mol_Feturizer/New_Systems/rnas/4QLN

>  <Rbt.Executable>
rbdock ($Id: //depot/dev/client3/rdock/2013.1/src/exe/rbdock.cxx#4 $)

>  <Rbt.Library>
libRbt.so (2013.1, Build901 2013/11/27)

>  <Rbt.Parameter_File>
/export/apps/rDock/src/rDock_2013.1_src/data/scripts/dock_solv.prm

>  <Rbt.Receptor>
prm/pocket_docking_5.prm

>  <SCORE>
-23.4246

>  <SCORE.INTER>
-25.4672

>  <SCORE.INTER.CONST>
1

>  <SCORE.INTER.POLAR>
0

>  <SCORE.INTER.ROT>
2

>  <SCORE.INTER.SOLV>
27.1431

>  <SCORE.INTER.VDW>
-30.9592

>  <SCORE.INTER.norm>
-0.606362

>  <SCORE.INTRA>
2.04259

>  <SCORE.INTRA.DIHEDRAL>
0.000575958

>  <SCORE.INTRA.DIHEDRAL.0>
2.39985

>  <SCORE.INTRA.POLAR>
0

>  <SCORE.INTRA.POLAR.0>
0

>  <SCORE.INTRA.REPUL>
0

>  <SCORE.INTRA.REPUL.0>
0

>  <SCORE.INTRA.SOLV>
1.2355

>  <SCORE.INTRA.SOLV.lig_0>
-110.958

>  <SCORE.INTRA.VDW>
1.42456

>  <SCORE.INTRA.VDW.0>
-2.34644

>  <SCORE.INTRA.norm>
0.0486332

>  <SCORE.RESTR>
0

>  <SCORE.RESTR.CAVITY>
0

>  <SCORE.RESTR.norm>
0

>  <SCORE.SYSTEM>
0

>  <SCORE.SYSTEM.CONST>
0

>  <SCORE.SYSTEM.DIHEDRAL>
0

>  <SCORE.SYSTEM.SOLV>
0

>  <SCORE.SYSTEM.norm>
0

>  <SCORE.heavy>
42

>  <SCORE.norm>
-0.557728

>  <RMSD>
1.842

$$$$
ligand
 OpenBabel11021811513D
libRbt.so/2013.1/901 2013/11/27
 42 48  0  0  0  0  0  0  0  0999 V2000
    4.0990  -35.8411  -12.7678 P   0  0  2  0  0  0  0  0  0  0  0  0
    7.9572  -35.7533  -16.0268 P   0  0  1  0  0  0  0  0  0  0  0  0
    3.6647  -37.1686  -12.1916 O   0  5  0  0  0  0  0  0  0  0  0  0
    7.3675  -34.3769  -16.2222 O   0  5  0  0  0  0  0  0  0  0  0  0
    3.1957  -34.6370  -12.6489 O   0  0  0  0  0  0  0  0  0  0  0  0
    9.3142  -36.0808  -16.6019 O   0  0  0  0  0  0  0  0  0  0  0  0
    3.7272  -37.0119  -15.1018 C   0  0  0  0  0  0  0  0  0  0  0  0
    8.7289  -35.2350  -13.5591 C   0  0  0  0  0  0  0  0  0  0  0  0
    4.4481  -36.0577  -14.3241 O   0  0  0  0  0  0  0  0  0  0  0  0
    7.9891  -36.0687  -14.4481 O   0  0  0  0  0  0  0  0  0  0  0  0
    4.6346  -37.5669  -16.1932 C   0  0  1  0  0  0  0  0  0  0  0  0
    7.8481  -34.8359  -12.3819 C   0  0  1  0  0  0  0  0  0  0  0  0
    3.8400  -38.0866  -17.2628 O   0  0  0  0  0  0  0  0  0  0  0  0
    8.3427  -33.6289  -11.7967 O   0  0  0  0  0  0  0  0  0  0  0  0
    5.5338  -36.4841  -16.7654 C   0  0  1  0  0  0  0  0  0  0  0  0
    6.4155  -34.5844  -12.8247 C   0  0  1  0  0  0  0  0  0  0  0  0
    6.9015  -36.8363  -16.5804 O   0  0  0  0  0  0  0  0  0  0  0  0
    5.5302  -35.4623  -12.1359 O   0  0  0  0  0  0  0  0  0  0  0  0
    5.2146  -36.3991  -18.2464 C   0  0  0  0  0  0  0  0  0  0  0  0
    6.1021  -33.1443  -12.4674 C   0  0  0  0  0  0  0  0  0  0  0  0
    4.1317  -37.4366  -18.5028 C   0  0  2  0  0  0  0  0  0  0  0  0
    7.3629  -32.5880  -11.8212 C   0  0  2  0  0  0  0  0  0  0  0  0
    0.7608  -33.4512  -17.9266 N   0  0  0  0  0  0  0  0  0  0  0  0
    1.8538  -33.7736  -17.2107 C   0  0  0  0  0  0  0  0  0  0  0  0
    2.6338  -34.8379  -17.4754 N   0  0  0  0  0  0  0  0  0  0  0  0
    2.3518  -35.6664  -18.5093 C   0  0  0  0  0  0  0  0  0  0  0  0
    1.1719  -35.3803  -19.3405 C   0  0  0  0  0  0  0  0  0  0  0  0
    0.3620  -34.1907  -18.9857 C   0  0  0  0  0  0  0  0  0  0  0  0
   -0.7398  -33.8554  -19.6993 N   0  0  0  0  0  0  0  0  0  0  0  0
    1.1228  -36.3418  -20.2814 N   0  0  0  0  0  0  0  0  0  0  0  0
    2.1773  -37.1710  -20.0723 C   0  0  0  0  0  0  0  0  0  0  0  0
    2.9101  -36.7685  -19.0162 N   0  0  0  0  0  0  0  0  0  0  0  0
    7.7899  -30.4291  -16.5887 N   0  0  0  0  0  0  0  0  0  0  0  0
    7.2109  -31.5828  -16.2074 C   0  0  0  0  0  0  0  0  0  0  0  0
    7.1761  -32.0167  -14.9346 N   0  0  0  0  0  0  0  0  0  0  0  0
    7.7399  -31.2917  -13.9383 C   0  0  0  0  0  0  0  0  0  0  0  0
    8.3927  -30.0172  -14.2755 C   0  0  0  0  0  0  0  0  0  0  0  0
    8.3892  -29.6078  -15.6998 C   0  0  0  0  0  0  0  0  0  0  0  0
    8.9683  -28.4478  -16.0963 N   0  0  0  0  0  0  0  0  0  0  0  0
    8.8612  -29.5085  -13.1203 N   0  0  0  0  0  0  0  0  0  0  0  0
    8.5374  -30.3805  -12.1310 C   0  0  0  0  0  0  0  0  0  0  0  0
    7.8697  -31.4425  -12.6181 N   0  0  0  0  0  0  0  0  0  0  0  0
  1  3  1  1  0  0  0
  1  5  2  0  0  0  0
  1  9  1  0  0  0  0
  1 18  1  0  0  0  0
  2  4  1  6  0  0  0
  2  6  2  0  0  0  0
  2 10  1  0  0  0  0
  2 17  1  0  0  0  0
  7  9  1  0  0  0  0
  8 10  1  0  0  0  0
 11  7  1  1  0  0  0
 11 13  1  0  0  0  0
 11 15  1  0  0  0  0
 12  8  1  6  0  0  0
 12 14  1  0  0  0  0
 12 16  1  0  0  0  0
 13 21  1  0  0  0  0
 14 22  1  0  0  0  0
 15 17  1  6  0  0  0
 15 19  1  0  0  0  0
 16 18  1  1  0  0  0
 16 20  1  0  0  0  0
 19 21  1  0  0  0  0
 20 22  1  0  0  0  0
 21 32  1  1  0  0  0
 22 42  1  6  0  0  0
 23 24  2  0  0  0  0
 23 28  1  0  0  0  0
 24 25  1  0  0  0  0
 25 26  2  0  0  0  0
 26 27  1  0  0  0  0
 26 32  1  0  0  0  0
 27 28  2  0  0  0  0
 27 30  1  0  0  0  0
 28 29  1  0  0  0  0
 30 31  2  0  0  0  0
 31 32  1  0  0  0  0
 33 34  2  0  0  0  0
 33 38  1  0  0  0  0
 34 35  1  0  0  0  0
 35 36  2  0  0  0  0
 36 37  1  0  0  0  0
 36 42  1  0  0  0  0
 37 38  2  0  0  0  0
 37 40  1  0  0  0  0
 38 39  1  0  0  0  0
 40 41  2  0  0  0  0
 41 42  1  0  0  0  0
M  CHG  2   3  -1   4  -1
M  END
>  <CHROM.1>
71.99927061,87.65432350,5.49388934,-34.48441809,-15.46560627,-3.03307061
-0.80366460,-0.54713768

>  <Name>
ligand

>  <RI>
0

>  <Rbt.Current_Directory>
/home/itssahil/PROJECTS/Mol_Feturizer/New_Systems/rnas/4QLN

>  <Rbt.Executable>
rbdock ($Id: //depot/dev/client3/rdock/2013.1/src/exe/rbdock.cxx#4 $)

>  <Rbt.Library>
libRbt.so (2013.1, Build901 2013/11/27)

>  <Rbt.Parameter_File>
/export/apps/rDock/src/rDock_2013.1_src/data/scripts/dock_solv.prm

>  <Rbt.Receptor>
prm/pocket_docking_3.prm

>  <SCORE>
-25.0529

>  <SCORE.INTER>
-25.9762

>  <SCORE.INTER.CONST>
1

>  <SCORE.INTER.POLAR>
0

>  <SCORE.INTER.ROT>
2

>  <SCORE.INTER.SOLV>
26.0863

>  <SCORE.INTER.VDW>
-30.9462

>  <SCORE.INTER.norm>
-0.61848

>  <SCORE.INTRA>
0.824826

>  <SCORE.INTRA.DIHEDRAL>
0.00104991

>  <SCORE.INTRA.DIHEDRAL.0>
2.39985

>  <SCORE.INTRA.POLAR>
0

>  <SCORE.INTRA.POLAR.0>
0

>  <SCORE.INTRA.REPUL>
0

>  <SCORE.INTRA.REPUL.0>
0

>  <SCORE.INTRA.SOLV>
0.785261

>  <SCORE.INTRA.SOLV.lig_0>
-110.958

>  <SCORE.INTRA.VDW>
0.43167

>  <SCORE.INTRA.VDW.0>
-2.34644

>  <SCORE.INTRA.norm>
0.0196387

>  <SCORE.RESTR>
0.0984658

>  <SCORE.RESTR.CAVITY>
0.0984658

>  <SCORE.RESTR.norm>
0.00234442

>  <SCORE.SYSTEM>
0

>  <SCORE.SYSTEM.CONST>
0

>  <SCORE.SYSTEM.DIHEDRAL>
0

>  <SCORE.SYSTEM.SOLV>
0

>  <SCORE.SYSTEM.norm>
0

>  <SCORE.heavy>
42

>  <SCORE.norm>
-0.596497

>  <RMSD>
1.854

$$$$
ligand
 OpenBabel11021811513D
libRbt.so/2013.1/901 2013/11/27
 42 48  0  0  0  0  0  0  0  0999 V2000
    9.2789  -35.6450  -16.0038 P   0  0  2  0  0  0  0  0  0  0  0  0
    5.2021  -34.8029  -13.1430 P   0  0  1  0  0  0  0  0  0  0  0  0
   10.5170  -36.2174  -15.3538 O   0  5  0  0  0  0  0  0  0  0  0  0
    4.8557  -34.0315  -14.3942 O   0  5  0  0  0  0  0  0  0  0  0  0
    9.3689  -35.0213  -17.3761 O   0  0  0  0  0  0  0  0  0  0  0  0
    4.1407  -35.0676  -12.1024 O   0  0  0  0  0  0  0  0  0  0  0  0
    9.4737  -33.7733  -14.1556 C   0  0  0  0  0  0  0  0  0  0  0  0
    5.0904  -37.1341  -14.3704 C   0  0  0  0  0  0  0  0  0  0  0  0
    8.6375  -34.5630  -14.9994 O   0  0  0  0  0  0  0  0  0  0  0  0
    5.8414  -36.2141  -13.5816 O   0  0  0  0  0  0  0  0  0  0  0  0
    8.7251  -33.4350  -12.8720 C   0  0  1  0  0  0  0  0  0  0  0  0
    5.9295  -37.5933  -15.5562 C   0  0  1  0  0  0  0  0  0  0  0  0
    9.2924  -32.2645  -12.2773 O   0  0  0  0  0  0  0  0  0  0  0  0
    5.0727  -38.0516  -16.6048 O   0  0  0  0  0  0  0  0  0  0  0  0
    7.2581  -33.1520  -13.1482 C   0  0  1  0  0  0  0  0  0  0  0  0
    6.7728  -36.4555  -16.1092 C   0  0  1  0  0  0  0  0  0  0  0  0
    6.4395  -34.0648  -12.4233 O   0  0  0  0  0  0  0  0  0  0  0  0
    8.1545  -36.7960  -16.0456 O   0  0  0  0  0  0  0  0  0  0  0  0
    6.9983  -31.7333  -12.6768 C   0  0  0  0  0  0  0  0  0  0  0  0
    6.3491  -36.2695  -17.5534 C   0  0  0  0  0  0  0  0  0  0  0  0
    8.3251  -31.2205  -12.1371 C   0  0  2  0  0  0  0  0  0  0  0  0
    5.2659  -37.3075  -17.8102 C   0  0  2  0  0  0  0  0  0  0  0  0
    8.4994  -28.9110  -16.8503 N   0  0  0  0  0  0  0  0  0  0  0  0
    7.9834  -30.0990  -16.4847 C   0  0  0  0  0  0  0  0  0  0  0  0
    8.0105  -30.5697  -15.2242 N   0  0  0  0  0  0  0  0  0  0  0  0
    8.5755  -29.8500  -14.2253 C   0  0  0  0  0  0  0  0  0  0  0  0
    9.1617  -28.5390  -14.5455 C   0  0  0  0  0  0  0  0  0  0  0  0
    9.0937  -28.0895  -15.9562 C   0  0  0  0  0  0  0  0  0  0  0  0
    9.6087  -26.8954  -16.3365 N   0  0  0  0  0  0  0  0  0  0  0  0
    9.6472  -28.0435  -13.3917 N   0  0  0  0  0  0  0  0  0  0  0  0
    9.3950  -28.9556  -12.4182 C   0  0  0  0  0  0  0  0  0  0  0  0
    8.7560  -30.0323  -12.9149 N   0  0  0  0  0  0  0  0  0  0  0  0
    2.0508  -33.2525  -16.9198 N   0  0  0  0  0  0  0  0  0  0  0  0
    3.2179  -33.5791  -16.3344 C   0  0  0  0  0  0  0  0  0  0  0  0
    3.9441  -34.6614  -16.6675 N   0  0  0  0  0  0  0  0  0  0  0  0
    3.5250  -35.5059  -17.6408 C   0  0  0  0  0  0  0  0  0  0  0  0
    2.2574  -35.2162  -18.3286 C   0  0  0  0  0  0  0  0  0  0  0  0
    1.5156  -34.0052  -17.9051 C   0  0  0  0  0  0  0  0  0  0  0  0
    0.3394  -33.6652  -18.4874 N   0  0  0  0  0  0  0  0  0  0  0  0
    2.0801  -36.1957  -19.2353 N   0  0  0  0  0  0  0  0  0  0  0  0
    3.1404  -37.0383  -19.1363 C   0  0  0  0  0  0  0  0  0  0  0  0
    4.0009  -36.6276  -18.1866 N   0  0  0  0  0  0  0  0  0  0  0  0
  1  3  1  1  0  0  0
  1  5  2  0  0  0  0
  1  9  1  0  0  0  0
  1 18  1  0  0  0  0
  2  4  1  6  0  0  0
  2  6  2  0  0  0  0
  2 10  1  0  0  0  0
  2 17  1  0  0  0  0
  7  9  1  0  0  0  0
  8 10  1  0  0  0  0
 11  7  1  6  0  0  0
 11 13  1  0  0  0  0
 11 15  1  0  0  0  0
 12  8  1  1  0  0  0
 12 14  1  0  0  0  0
 12 16  1  0  0  0  0
 13 21  1  0  0  0  0
 14 22  1  0  0  0  0
 15 17  1  1  0  0  0
 15 19  1  0  0  0  0
 16 18  1  6  0  0  0
 16 20  1  0  0  0  0
 19 21  1  0  0  0  0
 20 22  1  0  0  0  0
 21 32  1  6  0  0  0
 22 42  1  1  0  0  0
 23 24  2  0  0  0  0
 23 28  1  0  0  0  0
 24 25  1  0  0  0  0
 25 26  2  0  0  0  0
 26 27  1  0  0  0  0
 26 32  1  0  0  0  0
 27 28  2  0  0  0  0
 27 30  1  0  0  0  0
 28 29  1  0  0  0  0
 30 31  2  0  0  0  0
 31 32  1  0  0  0  0
 33 34  2  0  0  0  0
 33 38  1  0  0  0  0
 34 35  1  0  0  0  0
 35 36  2  0  0  0  0
 36 37  1  0  0  0  0
 36 42  1  0  0  0  0
 37 38  2  0  0  0  0
 37 40  1  0  0  0  0
 38 39  1  0  0  0  0
 40 41  2  0  0  0  0
 41 42  1  0  0  0  0
M  CHG  2   3  -1   4  -1
M  END
>  <CHROM.1>
82.33558525,78.47903913,6.55490812,-33.76421613,-15.32901035,-0.77557372
0.54957616,3.11863878

>  <Name>
ligand

>  <RI>
0

>  <Rbt.Current_Directory>
/home/itssahil/PROJECTS/Mol_Feturizer/New_Systems/rnas/4QLN

>  <Rbt.Executable>
rbdock ($Id: //depot/dev/client3/rdock/2013.1/src/exe/rbdock.cxx#4 $)

>  <Rbt.Library>
libRbt.so (2013.1, Build901 2013/11/27)

>  <Rbt.Parameter_File>
/export/apps/rDock/src/rDock_2013.1_src/data/scripts/dock_solv.prm

>  <Rbt.Receptor>
prm/pocket_docking_4.prm

>  <SCORE>
-23.626

>  <SCORE.INTER>
-25.4738

>  <SCORE.INTER.CONST>
1

>  <SCORE.INTER.POLAR>
0

>  <SCORE.INTER.ROT>
2

>  <SCORE.INTER.SOLV>
27.3284

>  <SCORE.INTER.VDW>
-31.0253

>  <SCORE.INTER.norm>
-0.606519

>  <SCORE.INTRA>
1.84781

>  <SCORE.INTRA.DIHEDRAL>
0.00100965

>  <SCORE.INTRA.DIHEDRAL.0>
2.39985

>  <SCORE.INTRA.POLAR>
0

>  <SCORE.INTRA.POLAR.0>
0

>  <SCORE.INTRA.REPUL>
0

>  <SCORE.INTRA.REPUL.0>
0

>  <SCORE.INTRA.SOLV>
1.05904

>  <SCORE.INTRA.SOLV.lig_0>
-110.958

>  <SCORE.INTRA.VDW>
1.31779

>  <SCORE.INTRA.VDW.0>
-2.34644

>  <SCORE.INTRA.norm>
0.0439956

>  <SCORE.RESTR>
0

>  <SCORE.RESTR.CAVITY>
0

>  <SCORE.RESTR.norm>
0

>  <SCORE.SYSTEM>
0

>  <SCORE.SYSTEM.CONST>
0

>  <SCORE.SYSTEM.DIHEDRAL>
0

>  <SCORE.SYSTEM.SOLV>
0

>  <SCORE.SYSTEM.norm>
0

>  <SCORE.heavy>
42

>  <SCORE.norm>
-0.562523

>  <RMSD>
1.854

$$$$
ligand
 OpenBabel11021811513D
libRbt.so/2013.1/901 2013/11/27
 42 48  0  0  0  0  0  0  0  0999 V2000
    9.2817  -35.7056  -15.9308 P   0  0  2  0  0  0  0  0  0  0  0  0
    5.1921  -34.8164  -13.1027 P   0  0  1  0  0  0  0  0  0  0  0  0
   10.5147  -36.2731  -15.2671 O   0  5  0  0  0  0  0  0  0  0  0  0
    4.8545  -34.0600  -14.3653 O   0  5  0  0  0  0  0  0  0  0  0  0
    9.3807  -35.0995  -17.3103 O   0  0  0  0  0  0  0  0  0  0  0  0
    4.1245  -35.0651  -12.0645 O   0  0  0  0  0  0  0  0  0  0  0  0
    9.4719  -33.8113  -14.1053 C   0  0  0  0  0  0  0  0  0  0  0  0
    5.0805  -37.1626  -14.3012 C   0  0  0  0  0  0  0  0  0  0  0  0
    8.6379  -34.6093  -14.9436 O   0  0  0  0  0  0  0  0  0  0  0  0
    5.8298  -36.2348  -13.5200 O   0  0  0  0  0  0  0  0  0  0  0  0
    8.7174  -33.4548  -12.8301 C   0  0  1  0  0  0  0  0  0  0  0  0
    5.9246  -37.6390  -15.4766 C   0  0  1  0  0  0  0  0  0  0  0  0
    9.2848  -32.2785  -12.2471 O   0  0  0  0  0  0  0  0  0  0  0  0
    5.0721  -38.1082  -16.5240 O   0  0  0  0  0  0  0  0  0  0  0  0
    7.2527  -33.1714  -13.1176 C   0  0  1  0  0  0  0  0  0  0  0  0
    6.7740  -36.5105  -16.0394 C   0  0  1  0  0  0  0  0  0  0  0  0
    6.4277  -34.0727  -12.3857 O   0  0  0  0  0  0  0  0  0  0  0  0
    8.1544  -36.8539  -15.9641 O   0  0  0  0  0  0  0  0  0  0  0  0
    6.9943  -31.7461  -12.6655 C   0  0  0  0  0  0  0  0  0  0  0  0
    6.3584  -36.3416  -17.4880 C   0  0  0  0  0  0  0  0  0  0  0  0
    8.3197  -31.2301  -12.1253 C   0  0  2  0  0  0  0  0  0  0  0  0
    5.2738  -37.3798  -17.7376 C   0  0  2  0  0  0  0  0  0  0  0  0
    8.4966  -28.9661  -16.8604 N   0  0  0  0  0  0  0  0  0  0  0  0
    7.9717  -30.1461  -16.4818 C   0  0  0  0  0  0  0  0  0  0  0  0
    7.9994  -30.6053  -15.2171 N   0  0  0  0  0  0  0  0  0  0  0  0
    8.5743  -29.8813  -14.2270 C   0  0  0  0  0  0  0  0  0  0  0  0
    9.1707  -28.5786  -14.5615 C   0  0  0  0  0  0  0  0  0  0  0  0
    9.1013  -28.1415  -15.9761 C   0  0  0  0  0  0  0  0  0  0  0  0
    9.6253  -26.9556  -16.3693 N   0  0  0  0  0  0  0  0  0  0  0  0
    9.6647  -28.0766  -13.4142 N   0  0  0  0  0  0  0  0  0  0  0  0
    9.4082  -28.9774  -12.4313 C   0  0  0  0  0  0  0  0  0  0  0  0
    8.7580  -30.0530  -12.9156 N   0  0  0  0  0  0  0  0  0  0  0  0
    2.0731  -33.2970  -16.9262 N   0  0  0  0  0  0  0  0  0  0  0  0
    3.2372  -33.6183  -16.3320 C   0  0  0  0  0  0  0  0  0  0  0  0
    3.9597  -34.7091  -16.6443 N   0  0  0  0  0  0  0  0  0  0  0  0
    3.5400  -35.5684  -17.6042 C   0  0  0  0  0  0  0  0  0  0  0  0
    2.2754  -35.2854  -18.3006 C   0  0  0  0  0  0  0  0  0  0  0  0
    1.5375  -34.0642  -17.9000 C   0  0  0  0  0  0  0  0  0  0  0  0
    0.3645  -33.7294  -18.4915 N   0  0  0  0  0  0  0  0  0  0  0  0
    2.0967  -36.2796  -19.1908 N   0  0  0  0  0  0  0  0  0  0  0  0
    3.1532  -37.1247  -19.0742 C   0  0  0  0  0  0  0  0  0  0  0  0
    4.0127  -36.7014  -18.1292 N   0  0  0  0  0  0  0  0  0  0  0  0
  1  3  1  1  0  0  0
  1  5  2  0  0  0  0
  1  9  1  0  0  0  0
  1 18  1  0  0  0  0
  2  4  1  6  0  0  0
  2  6  2  0  0  0  0
  2 10  1  0  0  0  0
  2 17  1  0  0  0  0
  7  9  1  0  0  0  0
  8 10  1  0  0  0  0
 11  7  1  6  0  0  0
 11 13  1  0  0  0  0
 11 15  1  0  0  0  0
 12  8  1  1  0  0  0
 12 14  1  0  0  0  0
 12 16  1  0  0  0  0
 13 21  1  0  0  0  0
 14 22  1  0  0  0  0
 15 17  1  1  0  0  0
 15 19  1  0  0  0  0
 16 18  1  6  0  0  0
 16 20  1  0  0  0  0
 19 21  1  0  0  0  0
 20 22  1  0  0  0  0
 21 32  1  6  0  0  0
 22 42  1  1  0  0  0
 23 24  2  0  0  0  0
 23 28  1  0  0  0  0
 24 25  1  0  0  0  0
 25 26  2  0  0  0  0
 26 27  1  0  0  0  0
 26 32  1  0  0  0  0
 27 28  2  0  0  0  0
 27 30  1  0  0  0  0
 28 29  1  0  0  0  0
 30 31  2  0  0  0  0
 31 32  1  0  0  0  0
 33 34  2  0  0  0  0
 33 38  1  0  0  0  0
 34 35  1  0  0  0  0
 35 36  2  0  0  0  0
 36 37  1  0  0  0  0
 36 42  1  0  0  0  0
 37 38  2  0  0  0  0
 37 40  1  0  0  0  0
 38 39  1  0  0  0  0
 40 41  2  0  0  0  0
 41 42  1  0  0  0  0
M  CHG  2   3  -1   4  -1
M  END
>  <CHROM.1>
82.98132176,78.78758427,6.55768276,-33.80720233,-15.29473234,-0.77293378
0.55657841,3.10398253

>  <Name>
ligand

>  <RI>
0

>  <Rbt.Current_Directory>
/home/itssahil/PROJECTS/Mol_Feturizer/New_Systems/rnas/4QLN

>  <Rbt.Executable>
rbdock ($Id: //depot/dev/client3/rdock/2013.1/src/exe/rbdock.cxx#4 $)

>  <Rbt.Library>
libRbt.so (2013.1, Build901 2013/11/27)

>  <Rbt.Parameter_File>
/export/apps/rDock/src/rDock_2013.1_src/data/scripts/dock_solv.prm

>  <Rbt.Receptor>
prm/pocket_docking_8.prm

>  <SCORE>
-23.6776

>  <SCORE.INTER>
-25.5268

>  <SCORE.INTER.CONST>
1

>  <SCORE.INTER.POLAR>
0

>  <SCORE.INTER.ROT>
2

>  <SCORE.INTER.SOLV>
26.8821

>  <SCORE.INTER.VDW>
-30.9119

>  <SCORE.INTER.norm>
-0.607781

>  <SCORE.INTRA>
1.84917

>  <SCORE.INTRA.DIHEDRAL>
0.00101979

>  <SCORE.INTRA.DIHEDRAL.0>
2.39985

>  <SCORE.INTRA.POLAR>
0

>  <SCORE.INTRA.POLAR.0>
0

>  <SCORE.INTRA.REPUL>
0

>  <SCORE.INTRA.REPUL.0>
0

>  <SCORE.INTRA.SOLV>
1.05025

>  <SCORE.INTRA.SOLV.lig_0>
-110.958

>  <SCORE.INTRA.VDW>
1.32354

>  <SCORE.INTRA.VDW.0>
-2.34644

>  <SCORE.INTRA.norm>
0.0440279

>  <SCORE.RESTR>
0

>  <SCORE.RESTR.CAVITY>
0

>  <SCORE.RESTR.norm>
0

>  <SCORE.SYSTEM>
0

>  <SCORE.SYSTEM.CONST>
0

>  <SCORE.SYSTEM.DIHEDRAL>
0

>  <SCORE.SYSTEM.SOLV>
0

>  <SCORE.SYSTEM.norm>
0

>  <SCORE.heavy>
42

>  <SCORE.norm>
-0.563753

>  <RMSD>
1.860

$$$$
ligand
 OpenBabel11021811513D
libRbt.so/2013.1/901 2013/11/27
 42 48  0  0  0  0  0  0  0  0999 V2000
    4.0256  -35.8271  -12.7786 P   0  0  2  0  0  0  0  0  0  0  0  0
    7.9073  -35.7862  -16.0105 P   0  0  1  0  0  0  0  0  0  0  0  0
    3.5746  -37.1487  -12.2016 O   0  5  0  0  0  0  0  0  0  0  0  0
    7.3322  -34.4049  -16.2142 O   0  5  0  0  0  0  0  0  0  0  0  0
    3.1330  -34.6141  -12.6697 O   0  0  0  0  0  0  0  0  0  0  0  0
    9.2652  -36.1284  -16.5750 O   0  0  0  0  0  0  0  0  0  0  0  0
    3.6590  -37.0015  -15.1118 C   0  0  0  0  0  0  0  0  0  0  0  0
    8.6666  -35.2678  -13.5390 C   0  0  0  0  0  0  0  0  0  0  0  0
    4.3836  -36.0519  -14.3318 O   0  0  0  0  0  0  0  0  0  0  0  0
    7.9251  -36.0970  -14.4307 O   0  0  0  0  0  0  0  0  0  0  0  0
    4.5688  -37.5685  -16.1950 C   0  0  1  0  0  0  0  0  0  0  0  0
    7.7814  -34.8567  -12.3692 C   0  0  1  0  0  0  0  0  0  0  0  0
    3.7768  -38.0839  -17.2686 O   0  0  0  0  0  0  0  0  0  0  0  0
    8.2834  -33.6527  -11.7842 O   0  0  0  0  0  0  0  0  0  0  0  0
    5.4823  -36.4961  -16.7641 C   0  0  1  0  0  0  0  0  0  0  0  0
    6.3544  -34.5928  -12.8229 C   0  0  1  0  0  0  0  0  0  0  0  0
    6.8452  -36.8608  -16.5683 O   0  0  0  0  0  0  0  0  0  0  0  0
    5.4558  -35.4601  -12.1378 O   0  0  0  0  0  0  0  0  0  0  0  0
    5.1744  -36.4126  -18.2476 C   0  0  0  0  0  0  0  0  0  0  0  0
    6.0523  -33.1487  -12.4721 C   0  0  0  0  0  0  0  0  0  0  0  0
    4.0834  -37.4405  -18.5085 C   0  0  2  0  0  0  0  0  0  0  0  0
    7.3138  -32.6026  -11.8186 C   0  0  2  0  0  0  0  0  0  0  0  0
    0.7311  -33.4366  -17.9516 N   0  0  0  0  0  0  0  0  0  0  0  0
    1.8139  -33.7693  -17.2249 C   0  0  0  0  0  0  0  0  0  0  0  0
    2.5902  -34.8372  -17.4858 N   0  0  0  0  0  0  0  0  0  0  0  0
    2.3148  -35.6591  -18.5268 C   0  0  0  0  0  0  0  0  0  0  0  0
    1.1463  -35.3616  -19.3699 C   0  0  0  0  0  0  0  0  0  0  0  0
    0.3398  -34.1686  -19.0187 C   0  0  0  0  0  0  0  0  0  0  0  0
   -0.7517  -33.8230  -19.7430 N   0  0  0  0  0  0  0  0  0  0  0  0
    1.1019  -36.3184  -20.3159 N   0  0  0  0  0  0  0  0  0  0  0  0
    2.1487  -37.1552  -20.0988 C   0  0  0  0  0  0  0  0  0  0  0  0
    2.8719  -36.7622  -19.0326 N   0  0  0  0  0  0  0  0  0  0  0  0
    7.7906  -30.4599  -16.5888 N   0  0  0  0  0  0  0  0  0  0  0  0
    7.1974  -31.6065  -16.2081 C   0  0  0  0  0  0  0  0  0  0  0  0
    7.1508  -32.0369  -14.9344 N   0  0  0  0  0  0  0  0  0  0  0  0
    7.7165  -31.3154  -13.9367 C   0  0  0  0  0  0  0  0  0  0  0  0
    8.3846  -30.0487  -14.2732 C   0  0  0  0  0  0  0  0  0  0  0  0
    8.3934  -29.6428  -15.6985 C   0  0  0  0  0  0  0  0  0  0  0  0
    8.9870  -28.4899  -16.0944 N   0  0  0  0  0  0  0  0  0  0  0  0
    8.8518  -29.5422  -13.1165 N   0  0  0  0  0  0  0  0  0  0  0  0
    8.5132  -30.4082  -12.1270 C   0  0  0  0  0  0  0  0  0  0  0  0
    7.8372  -31.4644  -12.6154 N   0  0  0  0  0  0  0  0  0  0  0  0
  1  3  1  1  0  0  0
  1  5  2  0  0  0  0
  1  9  1  0  0  0  0
  1 18  1  0  0  0  0
  2  4  1  6  0  0  0
  2  6  2  0  0  0  0
  2 10  1  0  0  0  0
  2 17  1  0  0  0  0
  7  9  1  0  0  0  0
  8 10  1  0  0  0  0
 11  7  1  1  0  0  0
 11 13  1  0  0  0  0
 11 15  1  0  0  0  0
 12  8  1  6  0  0  0
 12 14  1  0  0  0  0
 12 16  1  0  0  0  0
 13 21  1  0  0  0  0
 14 22  1  0  0  0  0
 15 17  1  6  0  0  0
 15 19  1  0  0  0  0
 16 18  1  1  0  0  0
 16 20  1  0  0  0  0
 19 21  1  0  0  0  0
 20 22  1  0  0  0  0
 21 32  1  1  0  0  0
 22 42  1  6  0  0  0
 23 24  2  0  0  0  0
 23 28  1  0  0  0  0
 24 25  1  0  0  0  0
 25 26  2  0  0  0  0
 26 27  1  0  0  0  0
 26 32  1  0  0  0  0
 27 28  2  0  0  0  0
 27 30  1  0  0  0  0
 28 29  1  0  0  0  0
 30 31  2  0  0  0  0
 31 32  1  0  0  0  0
 33 34  2  0  0  0  0
 33 38  1  0  0  0  0
 34 35  1  0  0  0  0
 35 36  2  0  0  0  0
 36 37  1  0  0  0  0
 36 42  1  0  0  0  0
 37 38  2  0  0  0  0
 37 40  1  0  0  0  0
 38 39  1  0  0  0  0
 40 41  2  0  0  0  0
 41 42  1  0  0  0  0
M  CHG  2   3  -1   4  -1
M  END
>  <CHROM.1>
71.45845558,87.75582903,5.45076232,-34.49318381,-15.46914189,-3.04927503
-0.80406445,-0.56212347

>  <Name>
ligand

>  <RI>
0

>  <Rbt.Current_Directory>
/home/itssahil/PROJECTS/Mol_Feturizer/New_Systems/rnas/4QLN

>  <Rbt.Executable>
rbdock ($Id: //depot/dev/client3/rdock/2013.1/src/exe/rbdock.cxx#4 $)

>  <Rbt.Library>
libRbt.so (2013.1, Build901 2013/11/27)

>  <Rbt.Parameter_File>
/export/apps/rDock/src/rDock_2013.1_src/data/scripts/dock_solv.prm

>  <Rbt.Receptor>
prm/pocket_docking_3.prm

>  <SCORE>
-25.0393

>  <SCORE.INTER>
-25.8883

>  <SCORE.INTER.CONST>
1

>  <SCORE.INTER.POLAR>
0

>  <SCORE.INTER.ROT>
2

>  <SCORE.INTER.SOLV>
26.0954

>  <SCORE.INTER.VDW>
-30.8907

>  <SCORE.INTER.norm>
-0.616389

>  <SCORE.INTRA>
0.756853

>  <SCORE.INTRA.DIHEDRAL>
0.00104434

>  <SCORE.INTRA.DIHEDRAL.0>
2.39985

>  <SCORE.INTRA.POLAR>
0

>  <SCORE.INTRA.POLAR.0>
0

>  <SCORE.INTRA.REPUL>
0

>  <SCORE.INTRA.REPUL.0>
0

>  <SCORE.INTRA.SOLV>
0.782837

>  <SCORE.INTRA.SOLV.lig_0>
-110.958

>  <SCORE.INTRA.VDW>
0.364913

>  <SCORE.INTRA.VDW.0>
-2.34644

>  <SCORE.INTRA.norm>
0.0180203

>  <SCORE.RESTR>
0.0921172

>  <SCORE.RESTR.CAVITY>
0.0921172

>  <SCORE.RESTR.norm>
0.00219327

>  <SCORE.SYSTEM>
0

>  <SCORE.SYSTEM.CONST>
0

>  <SCORE.SYSTEM.DIHEDRAL>
0

>  <SCORE.SYSTEM.SOLV>
0

>  <SCORE.SYSTEM.norm>
0

>  <SCORE.heavy>
42

>  <SCORE.norm>
-0.596175

>  <RMSD>
1.871

$$$$
ligand
 OpenBabel11021811513D
libRbt.so/2013.1/901 2013/11/27
 42 48  0  0  0  0  0  0  0  0999 V2000
    9.3320  -35.6650  -15.9727 P   0  0  2  0  0  0  0  0  0  0  0  0
    5.2523  -34.8167  -13.1178 P   0  0  1  0  0  0  0  0  0  0  0  0
   10.5725  -36.2271  -15.3184 O   0  5  0  0  0  0  0  0  0  0  0  0
    4.9025  -34.0568  -14.3750 O   0  5  0  0  0  0  0  0  0  0  0  0
    9.4191  -35.0520  -17.3499 O   0  0  0  0  0  0  0  0  0  0  0  0
    4.1923  -35.0773  -12.0748 O   0  0  0  0  0  0  0  0  0  0  0  0
    9.5195  -33.7777  -14.1396 C   0  0  0  0  0  0  0  0  0  0  0  0
    5.1500  -37.1581  -14.3264 C   0  0  0  0  0  0  0  0  0  0  0  0
    8.6863  -34.5776  -14.9769 O   0  0  0  0  0  0  0  0  0  0  0  0
    5.8974  -36.2287  -13.5451 O   0  0  0  0  0  0  0  0  0  0  0  0
    8.7698  -33.4322  -12.8586 C   0  0  1  0  0  0  0  0  0  0  0  0
    5.9908  -37.6234  -15.5086 C   0  0  1  0  0  0  0  0  0  0  0  0
    9.3324  -32.2546  -12.2734 O   0  0  0  0  0  0  0  0  0  0  0  0
    5.1356  -38.0937  -16.5533 O   0  0  0  0  0  0  0  0  0  0  0  0
    7.3016  -33.1575  -13.1367 C   0  0  1  0  0  0  0  0  0  0  0  0
    6.8292  -36.4866  -16.0710 C   0  0  1  0  0  0  0  0  0  0  0  0
    6.4868  -34.0678  -12.4043 O   0  0  0  0  0  0  0  0  0  0  0  0
    8.2123  -36.8209  -16.0049 O   0  0  0  0  0  0  0  0  0  0  0  0
    7.0360  -31.7361  -12.6767 C   0  0  0  0  0  0  0  0  0  0  0  0
    6.4045  -36.3139  -17.5165 C   0  0  0  0  0  0  0  0  0  0  0  0
    8.3608  -31.2135  -12.1414 C   0  0  2  0  0  0  0  0  0  0  0  0
    5.3255  -37.3584  -17.7647 C   0  0  2  0  0  0  0  0  0  0  0  0
    8.4914  -28.9247  -16.8661 N   0  0  0  0  0  0  0  0  0  0  0  0
    7.9761  -30.1097  -16.4899 C   0  0  0  0  0  0  0  0  0  0  0  0
    8.0153  -30.5751  -15.2278 N   0  0  0  0  0  0  0  0  0  0  0  0
    8.5928  -29.8527  -14.2381 C   0  0  0  0  0  0  0  0  0  0  0  0
    9.1791  -28.5447  -14.5700 C   0  0  0  0  0  0  0  0  0  0  0  0
    9.0974  -28.1010  -15.9819 C   0  0  0  0  0  0  0  0  0  0  0  0
    9.6116  -26.9100  -16.3727 N   0  0  0  0  0  0  0  0  0  0  0  0
    9.6782  -28.0456  -13.4237 N   0  0  0  0  0  0  0  0  0  0  0  0
    9.4338  -28.9528  -12.4436 C   0  0  0  0  0  0  0  0  0  0  0  0
    8.7867  -30.0299  -12.9288 N   0  0  0  0  0  0  0  0  0  0  0  0
    2.1078  -33.2947  -16.9255 N   0  0  0  0  0  0  0  0  0  0  0  0
    3.2781  -33.6098  -16.3403 C   0  0  0  0  0  0  0  0  0  0  0  0
    4.0045  -34.6962  -16.6591 N   0  0  0  0  0  0  0  0  0  0  0  0
    3.5824  -35.5571  -17.6166 C   0  0  0  0  0  0  0  0  0  0  0  0
    2.3111  -35.2807  -18.3032 C   0  0  0  0  0  0  0  0  0  0  0  0
    1.5693  -34.0641  -17.8959 C   0  0  0  0  0  0  0  0  0  0  0  0
    0.3899  -33.7355  -18.4783 N   0  0  0  0  0  0  0  0  0  0  0  0
    2.1313  -36.2752  -19.1929 N   0  0  0  0  0  0  0  0  0  0  0  0
    3.1935  -37.1143  -19.0851 C   0  0  0  0  0  0  0  0  0  0  0  0
    4.0576  -36.6868  -18.1462 N   0  0  0  0  0  0  0  0  0  0  0  0
  1  3  1  1  0  0  0
  1  5  2  0  0  0  0
  1  9  1  0  0  0  0
  1 18  1  0  0  0  0
  2  4  1  6  0  0  0
  2  6  2  0  0  0  0
  2 10  1  0  0  0  0
  2 17  1  0  0  0  0
  7  9  1  0  0  0  0
  8 10  1  0  0  0  0
 11  7  1  6  0  0  0
 11 13  1  0  0  0  0
 11 15  1  0  0  0  0
 12  8  1  1  0  0  0
 12 14  1  0  0  0  0
 12 16  1  0  0  0  0
 13 21  1  0  0  0  0
 14 22  1  0  0  0  0
 15 17  1  1  0  0  0
 15 19  1  0  0  0  0
 16 18  1  6  0  0  0
 16 20  1  0  0  0  0
 19 21  1  0  0  0  0
 20 22  1  0  0  0  0
 21 32  1  6  0  0  0
 22 42  1  1  0  0  0
 23 24  2  0  0  0  0
 23 28  1  0  0  0  0
 24 25  1  0  0  0  0
 25 26  2  0  0  0  0
 26 27  1  0  0  0  0
 26 32  1  0  0  0  0
 27 28  2  0  0  0  0
 27 30  1  0  0  0  0
 28 29  1  0  0  0  0
 30 31  2  0  0  0  0
 31 32  1  0  0  0  0
 33 34  2  0  0  0  0
 33 38  1  0  0  0  0
 34 35  1  0  0  0  0
 35 36  2  0  0  0  0
 36 37  1  0  0  0  0
 36 42  1  0  0  0  0
 37 38  2  0  0  0  0
 37 40  1  0  0  0  0
 38 39  1  0  0  0  0
 40 41  2  0  0  0  0
 41 42  1  0  0  0  0
M  CHG  2   3  -1   4  -1
M  END
>  <CHROM.1>
83.07940874,79.03282649,6.59884099,-33.78746217,-15.31339196,-0.78098623
0.55237898,3.11215375

>  <Name>
ligand

>  <RI>
0

>  <Rbt.Current_Directory>
/home/itssahil/PROJECTS/Mol_Feturizer/New_Systems/rnas/4QLN

>  <Rbt.Executable>
rbdock ($Id: //depot/dev/client3/rdock/2013.1/src/exe/rbdock.cxx#4 $)

>  <Rbt.Library>
libRbt.so (2013.1, Build901 2013/11/27)

>  <Rbt.Parameter_File>
/export/apps/rDock/src/rDock_2013.1_src/data/scripts/dock_solv.prm

>  <Rbt.Receptor>
prm/pocket_docking_4.prm

>  <SCORE>
-23.6396

>  <SCORE.INTER>
-25.47

>  <SCORE.INTER.CONST>
1

>  <SCORE.INTER.POLAR>
0

>  <SCORE.INTER.ROT>
2

>  <SCORE.INTER.SOLV>
26.998

>  <SCORE.INTER.VDW>
-30.9127

>  <SCORE.INTER.norm>
-0.606428

>  <SCORE.INTRA>
1.8304

>  <SCORE.INTRA.DIHEDRAL>
0.00102557

>  <SCORE.INTRA.DIHEDRAL.0>
2.39985

>  <SCORE.INTRA.POLAR>
0

>  <SCORE.INTRA.POLAR.0>
0

>  <SCORE.INTRA.REPUL>
0

>  <SCORE.INTRA.REPUL.0>
0

>  <SCORE.INTRA.SOLV>
1.04376

>  <SCORE.INTRA.SOLV.lig_0>
-110.958

>  <SCORE.INTRA.VDW>
1.30801

>  <SCORE.INTRA.VDW.0>
-2.34644

>  <SCORE.INTRA.norm>
0.0435809

>  <SCORE.RESTR>
0

>  <SCORE.RESTR.CAVITY>
0

>  <SCORE.RESTR.norm>
0

>  <SCORE.SYSTEM>
0

>  <SCORE.SYSTEM.CONST>
0

>  <SCORE.SYSTEM.DIHEDRAL>
0

>  <SCORE.SYSTEM.SOLV>
0

>  <SCORE.SYSTEM.norm>
0

>  <SCORE.heavy>
42

>  <SCORE.norm>
-0.562847

>  <RMSD>
1.875

$$$$
ligand
 OpenBabel11021811513D
libRbt.so/2013.1/901 2013/11/27
 42 48  0  0  0  0  0  0  0  0999 V2000
    9.3209  -35.6724  -15.8825 P   0  0  2  0  0  0  0  0  0  0  0  0
    5.2218  -34.7646  -13.0740 P   0  0  1  0  0  0  0  0  0  0  0  0
   10.5514  -36.2362  -15.2110 O   0  5  0  0  0  0  0  0  0  0  0  0
    4.8888  -34.0158  -14.3424 O   0  5  0  0  0  0  0  0  0  0  0  0
    9.4248  -35.0748  -17.2653 O   0  0  0  0  0  0  0  0  0  0  0  0
    4.1505  -35.0066  -12.0379 O   0  0  0  0  0  0  0  0  0  0  0  0
    9.5054  -33.7670  -14.0680 C   0  0  0  0  0  0  0  0  0  0  0  0
    5.1135  -37.1181  -14.2585 C   0  0  0  0  0  0  0  0  0  0  0  0
    8.6740  -34.5699  -14.9042 O   0  0  0  0  0  0  0  0  0  0  0  0
    5.8605  -36.1857  -13.4804 O   0  0  0  0  0  0  0  0  0  0  0  0
    8.7466  -33.4024  -12.7975 C   0  0  1  0  0  0  0  0  0  0  0  0
    5.9615  -37.6019  -15.4280 C   0  0  1  0  0  0  0  0  0  0  0  0
    9.3124  -32.2227  -12.2199 O   0  0  0  0  0  0  0  0  0  0  0  0
    5.1125  -38.0773  -16.4754 O   0  0  0  0  0  0  0  0  0  0  0  0
    7.2830  -33.1203  -13.0919 C   0  0  1  0  0  0  0  0  0  0  0  0
    6.8132  -36.4772  -15.9948 C   0  0  1  0  0  0  0  0  0  0  0  0
    6.4551  -34.0169  -12.3573 O   0  0  0  0  0  0  0  0  0  0  0  0
    8.1932  -36.8206  -15.9126 O   0  0  0  0  0  0  0  0  0  0  0  0
    7.0235  -31.6923  -12.6494 C   0  0  0  0  0  0  0  0  0  0  0  0
    6.4028  -36.3170  -17.4458 C   0  0  0  0  0  0  0  0  0  0  0  0
    8.3472  -31.1734  -12.1077 C   0  0  2  0  0  0  0  0  0  0  0  0
    5.3186  -37.3564  -17.6927 C   0  0  2  0  0  0  0  0  0  0  0  0
    8.5093  -28.9220  -16.8494 N   0  0  0  0  0  0  0  0  0  0  0  0
    7.9785  -30.0973  -16.4646 C   0  0  0  0  0  0  0  0  0  0  0  0
    8.0112  -30.5537  -15.1990 N   0  0  0  0  0  0  0  0  0  0  0  0
    8.5976  -29.8314  -14.2144 C   0  0  0  0  0  0  0  0  0  0  0  0
    9.2009  -28.5337  -14.5559 C   0  0  0  0  0  0  0  0  0  0  0  0
    9.1255  -28.0996  -15.9711 C   0  0  0  0  0  0  0  0  0  0  0  0
    9.6552  -26.9183  -16.3706 N   0  0  0  0  0  0  0  0  0  0  0  0
    9.7059  -28.0325  -13.4130 N   0  0  0  0  0  0  0  0  0  0  0  0
    9.4495  -28.9291  -12.4264 C   0  0  0  0  0  0  0  0  0  0  0  0
    8.7886  -30.0013  -12.9038 N   0  0  0  0  0  0  0  0  0  0  0  0
    2.0767  -33.3099  -16.8635 N   0  0  0  0  0  0  0  0  0  0  0  0
    3.2334  -33.6333  -16.2563 C   0  0  0  0  0  0  0  0  0  0  0  0
    3.9686  -34.7138  -16.5755 N   0  0  0  0  0  0  0  0  0  0  0  0
    3.5701  -35.5594  -17.5563 C   0  0  0  0  0  0  0  0  0  0  0  0
    2.3148  -35.2732  -18.2679 C   0  0  0  0  0  0  0  0  0  0  0  0
    1.5620  -34.0640  -17.8585 C   0  0  0  0  0  0  0  0  0  0  0  0
    0.3961  -33.7272  -18.4629 N   0  0  0  0  0  0  0  0  0  0  0  0
    2.1572  -36.2533  -19.1775 N   0  0  0  0  0  0  0  0  0  0  0  0
    3.2177  -37.0930  -19.0585 C   0  0  0  0  0  0  0  0  0  0  0  0
    4.0591  -36.6800  -18.0929 N   0  0  0  0  0  0  0  0  0  0  0  0
  1  3  1  1  0  0  0
  1  5  2  0  0  0  0
  1  9  1  0  0  0  0
  1 18  1  0  0  0  0
  2  4  1  6  0  0  0
  2  6  2  0  0  0  0
  2 10  1  0  0  0  0
  2 17  1  0  0  0  0
  7  9  1  0  0  0  0
  8 10  1  0  0  0  0
 11  7  1  6  0  0  0
 11 13  1  0  0  0  0
 11 15  1  0  0  0  0
 12  8  1  1  0  0  0
 12 14  1  0  0  0  0
 12 16  1  0  0  0  0
 13 21  1  0  0  0  0
 14 22  1  0  0  0  0
 15 17  1  1  0  0  0
 15 19  1  0  0  0  0
 16 18  1  6  0  0  0
 16 20  1  0  0  0  0
 19 21  1  0  0  0  0
 20 22  1  0  0  0  0
 21 32  1  6  0  0  0
 22 42  1  1  0  0  0
 23 24  2  0  0  0  0
 23 28  1  0  0  0  0
 24 25  1  0  0  0  0
 25 26  2  0  0  0  0
 26 27  1  0  0  0  0
 26 32  1  0  0  0  0
 27 28  2  0  0  0  0
 27 30  1  0  0  0  0
 28 29  1  0  0  0  0
 30 31  2  0  0  0  0
 31 32  1  0  0  0  0
 33 34  2  0  0  0  0
 33 38  1  0  0  0  0
 34 35  1  0  0  0  0
 35 36  2  0  0  0  0
 36 37  1  0  0  0  0
 36 42  1  0  0  0  0
 37 38  2  0  0  0  0
 37 40  1  0  0  0  0
 38 39  1  0  0  0  0
 40 41  2  0  0  0  0
 41 42  1  0  0  0  0
M  CHG  2   3  -1   4  -1
M  END
>  <CHROM.1>
83.70115614,77.22665529,6.58936958,-33.77139554,-15.26244305,-0.77632659
0.55340754,3.10383755

>  <Name>
ligand

>  <RI>
0

>  <Rbt.Current_Directory>
/home/itssahil/PROJECTS/Mol_Feturizer/New_Systems/rnas/4QLN

>  <Rbt.Executable>
rbdock ($Id: //depot/dev/client3/rdock/2013.1/src/exe/rbdock.cxx#4 $)

>  <Rbt.Library>
libRbt.so (2013.1, Build901 2013/11/27)

>  <Rbt.Parameter_File>
/export/apps/rDock/src/rDock_2013.1_src/data/scripts/dock_solv.prm

>  <Rbt.Receptor>
prm/pocket_docking_6.prm

>  <SCORE>
-23.6594

>  <SCORE.INTER>
-25.674

>  <SCORE.INTER.CONST>
1

>  <SCORE.INTER.POLAR>
0

>  <SCORE.INTER.ROT>
2

>  <SCORE.INTER.SOLV>
27.0184

>  <SCORE.INTER.VDW>
-31.0555

>  <SCORE.INTER.norm>
-0.611286

>  <SCORE.INTRA>
2.01461

>  <SCORE.INTRA.DIHEDRAL>
0.000987005

>  <SCORE.INTRA.DIHEDRAL.0>
2.39985

>  <SCORE.INTRA.POLAR>
0

>  <SCORE.INTRA.POLAR.0>
0

>  <SCORE.INTRA.REPUL>
0

>  <SCORE.INTRA.REPUL.0>
0

>  <SCORE.INTRA.SOLV>
1.08698

>  <SCORE.INTRA.SOLV.lig_0>
-110.958

>  <SCORE.INTRA.VDW>
1.47063

>  <SCORE.INTRA.VDW.0>
-2.34644

>  <SCORE.INTRA.norm>
0.0479669

>  <SCORE.RESTR>
0

>  <SCORE.RESTR.CAVITY>
0

>  <SCORE.RESTR.norm>
0

>  <SCORE.SYSTEM>
0

>  <SCORE.SYSTEM.CONST>
0

>  <SCORE.SYSTEM.DIHEDRAL>
0

>  <SCORE.SYSTEM.SOLV>
0

>  <SCORE.SYSTEM.norm>
0

>  <SCORE.heavy>
42

>  <SCORE.norm>
-0.563319

>  <RMSD>
1.875

$$$$
ligand
 OpenBabel11021811513D
libRbt.so/2013.1/901 2013/11/27
 42 48  0  0  0  0  0  0  0  0999 V2000
    9.3194  -35.6762  -15.9453 P   0  0  2  0  0  0  0  0  0  0  0  0
    5.2487  -34.8254  -13.0781 P   0  0  1  0  0  0  0  0  0  0  0  0
   10.5619  -36.2378  -15.2944 O   0  5  0  0  0  0  0  0  0  0  0  0
    4.8949  -34.0666  -14.3349 O   0  5  0  0  0  0  0  0  0  0  0  0
    9.4021  -35.0644  -17.3233 O   0  0  0  0  0  0  0  0  0  0  0  0
    4.1920  -35.0852  -12.0315 O   0  0  0  0  0  0  0  0  0  0  0  0
    9.5127  -33.7874  -14.1144 C   0  0  0  0  0  0  0  0  0  0  0  0
    5.1426  -37.1679  -14.2844 C   0  0  0  0  0  0  0  0  0  0  0  0
    8.6768  -34.5880  -14.9483 O   0  0  0  0  0  0  0  0  0  0  0  0
    5.8924  -36.2378  -13.5063 O   0  0  0  0  0  0  0  0  0  0  0  0
    8.7670  -33.4407  -12.8313 C   0  0  1  0  0  0  0  0  0  0  0  0
    5.9795  -37.6342  -15.4689 C   0  0  1  0  0  0  0  0  0  0  0  0
    9.3315  -32.2627  -12.2489 O   0  0  0  0  0  0  0  0  0  0  0  0
    5.1211  -38.1053  -16.5105 O   0  0  0  0  0  0  0  0  0  0  0  0
    7.2979  -33.1663  -13.1050 C   0  0  1  0  0  0  0  0  0  0  0  0
    6.8162  -36.4979  -16.0349 C   0  0  1  0  0  0  0  0  0  0  0  0
    6.4855  -34.0759  -12.3692 O   0  0  0  0  0  0  0  0  0  0  0  0
    8.1996  -36.8321  -15.9729 O   0  0  0  0  0  0  0  0  0  0  0  0
    7.0338  -31.7445  -12.6453 C   0  0  0  0  0  0  0  0  0  0  0  0
    6.3869  -36.3264  -17.4792 C   0  0  0  0  0  0  0  0  0  0  0  0
    8.3604  -31.2214  -12.1147 C   0  0  2  0  0  0  0  0  0  0  0  0
    5.3071  -37.3711  -17.7231 C   0  0  2  0  0  0  0  0  0  0  0  0
    8.4996  -28.9486  -16.8468 N   0  0  0  0  0  0  0  0  0  0  0  0
    7.9885  -30.1347  -16.4686 C   0  0  0  0  0  0  0  0  0  0  0  0
    8.0247  -30.5955  -15.2047 N   0  0  0  0  0  0  0  0  0  0  0  0
    8.5945  -29.8668  -14.2151 C   0  0  0  0  0  0  0  0  0  0  0  0
    9.1758  -28.5572  -14.5492 C   0  0  0  0  0  0  0  0  0  0  0  0
    9.0978  -28.1188  -15.9630 C   0  0  0  0  0  0  0  0  0  0  0  0
    9.6078  -26.9266  -16.3558 N   0  0  0  0  0  0  0  0  0  0  0  0
    9.6675  -28.0516  -13.4025 N   0  0  0  0  0  0  0  0  0  0  0  0
    9.4235  -28.9566  -12.4204 C   0  0  0  0  0  0  0  0  0  0  0  0
    8.7837  -30.0385  -12.9045 N   0  0  0  0  0  0  0  0  0  0  0  0
    2.1241  -33.2722  -16.9235 N   0  0  0  0  0  0  0  0  0  0  0  0
    3.3004  -33.5824  -16.3477 C   0  0  0  0  0  0  0  0  0  0  0  0
    4.0163  -34.6794  -16.6541 N   0  0  0  0  0  0  0  0  0  0  0  0
    3.5765  -35.5569  -17.5882 C   0  0  0  0  0  0  0  0  0  0  0  0
    2.2976  -35.2868  -18.2632 C   0  0  0  0  0  0  0  0  0  0  0  0
    1.5682  -34.0579  -17.8708 C   0  0  0  0  0  0  0  0  0  0  0  0
    0.3830  -33.7341  -18.4439 N   0  0  0  0  0  0  0  0  0  0  0  0
    2.1002  -36.2980  -19.1301 N   0  0  0  0  0  0  0  0  0  0  0  0
    3.1589  -37.1411  -19.0195 C   0  0  0  0  0  0  0  0  0  0  0  0
    4.0381  -36.6999  -18.1011 N   0  0  0  0  0  0  0  0  0  0  0  0
  1  3  1  1  0  0  0
  1  5  2  0  0  0  0
  1  9  1  0  0  0  0
  1 18  1  0  0  0  0
  2  4  1  6  0  0  0
  2  6  2  0  0  0  0
  2 10  1  0  0  0  0
  2 17  1  0  0  0  0
  7  9  1  0  0  0  0
  8 10  1  0  0  0  0
 11  7  1  6  0  0  0
 11 13  1  0  0  0  0
 11 15  1  0  0  0  0
 12  8  1  1  0  0  0
 12 14  1  0  0  0  0
 12 16  1  0  0  0  0
 13 21  1  0  0  0  0
 14 22  1  0  0  0  0
 15 17  1  1  0  0  0
 15 19  1  0  0  0  0
 16 18  1  6  0  0  0
 16 20  1  0  0  0  0
 19 21  1  0  0  0  0
 20 22  1  0  0  0  0
 21 32  1  6  0  0  0
 22 42  1  1  0  0  0
 23 24  2  0  0  0  0
 23 28  1  0  0  0  0
 24 25  1  0  0  0  0
 25 26  2  0  0  0  0
 26 27  1  0  0  0  0
 26 32  1  0  0  0  0
 27 28  2  0  0  0  0
 27 30  1  0  0  0  0
 28 29  1  0  0  0  0
 30 31  2  0  0  0  0
 31 32  1  0  0  0  0
 33 34  2  0  0  0  0
 33 38  1  0  0  0  0
 34 35  1  0  0  0  0
 35 36  2  0  0  0  0
 36 37  1  0  0  0  0
 36 42  1  0  0  0  0
 37 38  2  0  0  0  0
 37 40  1  0  0  0  0
 38 39  1  0  0  0  0
 40 41  2  0  0  0  0
 41 42  1  0  0  0  0
M  CHG  2   3  -1   4  -1
M  END
>  <CHROM.1>
82.54912478,80.33278990,6.59285351,-33.79625176,-15.28309326,-0.77787422
0.55485521,3.10611863

>  <Name>
ligand

>  <RI>
0

>  <Rbt.Current_Directory>
/home/itssahil/PROJECTS/Mol_Feturizer/New_Systems/rnas/4QLN

>  <Rbt.Executable>
rbdock ($Id: //depot/dev/client3/rdock/2013.1/src/exe/rbdock.cxx#4 $)

>  <Rbt.Library>
libRbt.so (2013.1, Build901 2013/11/27)

>  <Rbt.Parameter_File>
/export/apps/rDock/src/rDock_2013.1_src/data/scripts/dock_solv.prm

>  <Rbt.Receptor>
prm/pocket_docking_7.prm

>  <SCORE>
-23.7058

>  <SCORE.INTER>
-25.4051

>  <SCORE.INTER.CONST>
1

>  <SCORE.INTER.POLAR>
0

>  <SCORE.INTER.ROT>
2

>  <SCORE.INTER.SOLV>
26.868

>  <SCORE.INTER.VDW>
-30.8261

>  <SCORE.INTER.norm>
-0.604882

>  <SCORE.INTRA>
1.69929

>  <SCORE.INTRA.DIHEDRAL>
0.00104927

>  <SCORE.INTRA.DIHEDRAL.0>
2.39985

>  <SCORE.INTRA.POLAR>
0

>  <SCORE.INTRA.POLAR.0>
0

>  <SCORE.INTRA.REPUL>
0

>  <SCORE.INTRA.REPUL.0>
0

>  <SCORE.INTRA.SOLV>
1.00929

>  <SCORE.INTRA.SOLV.lig_0>
-110.958

>  <SCORE.INTRA.VDW>
1.19412

>  <SCORE.INTRA.VDW.0>
-2.34644

>  <SCORE.INTRA.norm>
0.0404594

>  <SCORE.RESTR>
0

>  <SCORE.RESTR.CAVITY>
0

>  <SCORE.RESTR.norm>
0

>  <SCORE.SYSTEM>
0

>  <SCORE.SYSTEM.CONST>
0

>  <SCORE.SYSTEM.DIHEDRAL>
0

>  <SCORE.SYSTEM.SOLV>
0

>  <SCORE.SYSTEM.norm>
0

>  <SCORE.heavy>
42

>  <SCORE.norm>
-0.564423

>  <RMSD>
1.877

$$$$
ligand
 OpenBabel11021811513D
libRbt.so/2013.1/901 2013/11/27
 42 48  0  0  0  0  0  0  0  0999 V2000
    3.9665  -35.7876  -12.7632 P   0  0  2  0  0  0  0  0  0  0  0  0
    7.8505  -35.7906  -15.9926 P   0  0  1  0  0  0  0  0  0  0  0  0
    3.5032  -37.1034  -12.1828 O   0  5  0  0  0  0  0  0  0  0  0  0
    7.2879  -34.4048  -16.2006 O   0  5  0  0  0  0  0  0  0  0  0  0
    3.0847  -34.5663  -12.6583 O   0  0  0  0  0  0  0  0  0  0  0  0
    9.2055  -36.1466  -16.5553 O   0  0  0  0  0  0  0  0  0  0  0  0
    3.5909  -36.9652  -15.0933 C   0  0  0  0  0  0  0  0  0  0  0  0
    8.6127  -35.2721  -13.5221 C   0  0  0  0  0  0  0  0  0  0  0  0
    4.3234  -36.0200  -14.3155 O   0  0  0  0  0  0  0  0  0  0  0  0
    7.8644  -36.0971  -14.4119 O   0  0  0  0  0  0  0  0  0  0  0  0
    4.4962  -37.5434  -16.1744 C   0  0  1  0  0  0  0  0  0  0  0  0
    7.7305  -34.8497  -12.3540 C   0  0  1  0  0  0  0  0  0  0  0  0
    3.7003  -38.0547  -17.2470 O   0  0  0  0  0  0  0  0  0  0  0  0
    8.2429  -33.6486  -11.7721 O   0  0  0  0  0  0  0  0  0  0  0  0
    5.4196  -36.4808  -16.7458 C   0  0  1  0  0  0  0  0  0  0  0  0
    6.3063  -34.5743  -12.8094 C   0  0  1  0  0  0  0  0  0  0  0  0
    6.7791  -36.8572  -16.5481 O   0  0  0  0  0  0  0  0  0  0  0  0
    5.3995  -35.4317  -12.1225 O   0  0  0  0  0  0  0  0  0  0  0  0
    5.1134  -36.3988  -18.2297 C   0  0  0  0  0  0  0  0  0  0  0  0
    6.0169  -33.1266  -12.4630 C   0  0  0  0  0  0  0  0  0  0  0  0
    4.0135  -37.4176  -18.4885 C   0  0  2  0  0  0  0  0  0  0  0  0
    7.2828  -32.5899  -11.8102 C   0  0  2  0  0  0  0  0  0  0  0  0
    0.7590  -33.3239  -18.0109 N   0  0  0  0  0  0  0  0  0  0  0  0
    1.8463  -33.6566  -17.2909 C   0  0  0  0  0  0  0  0  0  0  0  0
    2.5946  -34.7495  -17.5288 N   0  0  0  0  0  0  0  0  0  0  0  0
    2.2840  -35.5987  -18.5374 C   0  0  0  0  0  0  0  0  0  0  0  0
    1.1083  -35.3031  -19.3711 C   0  0  0  0  0  0  0  0  0  0  0  0
    0.3340  -34.0815  -19.0467 C   0  0  0  0  0  0  0  0  0  0  0  0
   -0.7617  -33.7355  -19.7646 N   0  0  0  0  0  0  0  0  0  0  0  0
    1.0273  -36.2891  -20.2841 N   0  0  0  0  0  0  0  0  0  0  0  0
    2.0591  -37.1414  -20.0562 C   0  0  0  0  0  0  0  0  0  0  0  0
    2.8085  -36.7300  -19.0153 N   0  0  0  0  0  0  0  0  0  0  0  0
    7.7920  -30.4710  -16.5875 N   0  0  0  0  0  0  0  0  0  0  0  0
    7.1896  -31.6119  -16.2042 C   0  0  0  0  0  0  0  0  0  0  0  0
    7.1353  -32.0365  -14.9289 N   0  0  0  0  0  0  0  0  0  0  0  0
    7.7021  -31.3146  -13.9321 C   0  0  0  0  0  0  0  0  0  0  0  0
    8.3801  -30.0540  -14.2715 C   0  0  0  0  0  0  0  0  0  0  0  0
    8.3970  -29.6542  -15.6985 C   0  0  0  0  0  0  0  0  0  0  0  0
    8.9999  -28.5071  -16.0970 N   0  0  0  0  0  0  0  0  0  0  0  0
    8.8464  -29.5456  -13.1152 N   0  0  0  0  0  0  0  0  0  0  0  0
    8.4982  -30.4051  -12.1233 C   0  0  0  0  0  0  0  0  0  0  0  0
    7.8168  -31.4588  -12.6097 N   0  0  0  0  0  0  0  0  0  0  0  0
  1  3  1  1  0  0  0
  1  5  2  0  0  0  0
  1  9  1  0  0  0  0
  1 18  1  0  0  0  0
  2  4  1  6  0  0  0
  2  6  2  0  0  0  0
  2 10  1  0  0  0  0
  2 17  1  0  0  0  0
  7  9  1  0  0  0  0
  8 10  1  0  0  0  0
 11  7  1  1  0  0  0
 11 13  1  0  0  0  0
 11 15  1  0  0  0  0
 12  8  1  6  0  0  0
 12 14  1  0  0  0  0
 12 16  1  0  0  0  0
 13 21  1  0  0  0  0
 14 22  1  0  0  0  0
 15 17  1  6  0  0  0
 15 19  1  0  0  0  0
 16 18  1  1  0  0  0
 16 20  1  0  0  0  0
 19 21  1  0  0  0  0
 20 22  1  0  0  0  0
 21 32  1  1  0  0  0
 22 42  1  6  0  0  0
 23 24  2  0  0  0  0
 23 28  1  0  0  0  0
 24 25  1  0  0  0  0
 25 26  2  0  0  0  0
 26 27  1  0  0  0  0
 26 32  1  0  0  0  0
 27 28  2  0  0  0  0
 27 30  1  0  0  0  0
 28 29  1  0  0  0  0
 30 31  2  0  0  0  0
 31 32  1  0  0  0  0
 33 34  2  0  0  0  0
 33 38  1  0  0  0  0
 34 35  1  0  0  0  0
 35 36  2  0  0  0  0
 36 37  1  0  0  0  0
 36 42  1  0  0  0  0
 37 38  2  0  0  0  0
 37 40  1  0  0  0  0
 38 39  1  0  0  0  0
 40 41  2  0  0  0  0
 41 42  1  0  0  0  0
M  CHG  2   3  -1   4  -1
M  END
>  <CHROM.1>
73.57739137,87.52282758,5.41116520,-34.46979102,-15.46208129,-3.06332627
-0.80210716,-0.57335789

>  <Name>
ligand

>  <RI>
0

>  <Rbt.Current_Directory>
/home/itssahil/PROJECTS/Mol_Feturizer/New_Systems/rnas/4QLN

>  <Rbt.Executable>
rbdock ($Id: //depot/dev/client3/rdock/2013.1/src/exe/rbdock.cxx#4 $)

>  <Rbt.Library>
libRbt.so (2013.1, Build901 2013/11/27)

>  <Rbt.Parameter_File>
/export/apps/rDock/src/rDock_2013.1_src/data/scripts/dock_solv.prm

>  <Rbt.Receptor>
prm/pocket_docking_4.prm

>  <SCORE>
-25.2366

>  <SCORE.INTER>
-26.1186

>  <SCORE.INTER.CONST>
1

>  <SCORE.INTER.POLAR>
0

>  <SCORE.INTER.ROT>
2

>  <SCORE.INTER.SOLV>
26.224

>  <SCORE.INTER.VDW>
-31.0871

>  <SCORE.INTER.norm>
-0.621871

>  <SCORE.INTRA>
0.882005

>  <SCORE.INTRA.DIHEDRAL>
0.0010662

>  <SCORE.INTRA.DIHEDRAL.0>
2.39985

>  <SCORE.INTRA.POLAR>
0

>  <SCORE.INTRA.POLAR.0>
0

>  <SCORE.INTRA.REPUL>
0

>  <SCORE.INTRA.REPUL.0>
0

>  <SCORE.INTRA.SOLV>
0.787779

>  <SCORE.INTRA.SOLV.lig_0>
-110.958

>  <SCORE.INTRA.VDW>
0.487582

>  <SCORE.INTRA.VDW.0>
-2.34644

>  <SCORE.INTRA.norm>
0.0210001

>  <SCORE.RESTR>
0

>  <SCORE.RESTR.CAVITY>
0

>  <SCORE.RESTR.norm>
0

>  <SCORE.SYSTEM>
0

>  <SCORE.SYSTEM.CONST>
0

>  <SCORE.SYSTEM.DIHEDRAL>
0

>  <SCORE.SYSTEM.SOLV>
0

>  <SCORE.SYSTEM.norm>
0

>  <SCORE.heavy>
42

>  <SCORE.norm>
-0.600871

>  <RMSD>
1.878

$$$$
ligand
 OpenBabel11021811513D
libRbt.so/2013.1/901 2013/11/27
 42 48  0  0  0  0  0  0  0  0999 V2000
    4.3983  -36.1207  -12.7721 P   0  0  2  0  0  0  0  0  0  0  0  0
    8.1115  -35.8103  -16.1824 P   0  0  1  0  0  0  0  0  0  0  0  0
    4.0039  -37.4824  -12.2495 O   0  5  0  0  0  0  0  0  0  0  0  0
    7.4988  -34.4335  -16.2793 O   0  5  0  0  0  0  0  0  0  0  0  0
    3.4877  -34.9366  -12.5513 O   0  0  0  0  0  0  0  0  0  0  0  0
    9.4461  -36.0890  -16.8311 O   0  0  0  0  0  0  0  0  0  0  0  0
    3.9394  -37.1719  -15.1473 C   0  0  0  0  0  0  0  0  0  0  0  0
    8.9829  -35.4123  -13.7256 C   0  0  0  0  0  0  0  0  0  0  0  0
    4.6825  -36.2505  -14.3512 O   0  0  0  0  0  0  0  0  0  0  0  0
    8.2148  -36.2078  -14.6255 O   0  0  0  0  0  0  0  0  0  0  0  0
    4.8051  -37.6567  -16.3041 C   0  0  1  0  0  0  0  0  0  0  0  0
    8.1492  -35.0874  -12.4926 C   0  0  1  0  0  0  0  0  0  0  0  0
    3.9710  -38.1299  -17.3651 O   0  0  0  0  0  0  0  0  0  0  0  0
    8.6552  -33.9064  -11.8656 O   0  0  0  0  0  0  0  0  0  0  0  0
    5.6668  -36.5334  -16.8555 C   0  0  1  0  0  0  0  0  0  0  0  0
    6.6962  -34.8320  -12.8603 C   0  0  1  0  0  0  0  0  0  0  0  0
    7.0450  -36.8766  -16.7475 O   0  0  0  0  0  0  0  0  0  0  0  0
    5.8510  -35.7567  -12.1822 O   0  0  0  0  0  0  0  0  0  0  0  0
    5.2833  -36.3749  -18.3151 C   0  0  0  0  0  0  0  0  0  0  0  0
    6.3826  -33.4170  -12.4141 C   0  0  0  0  0  0  0  0  0  0  0  0
    4.2018  -37.4117  -18.5801 C   0  0  2  0  0  0  0  0  0  0  0  0
    7.6638  -32.8788  -11.7932 C   0  0  2  0  0  0  0  0  0  0  0  0
    0.9657  -33.3439  -17.8329 N   0  0  0  0  0  0  0  0  0  0  0  0
    2.1114  -33.6679  -17.2054 C   0  0  0  0  0  0  0  0  0  0  0  0
    2.8461  -34.7549  -17.5049 N   0  0  0  0  0  0  0  0  0  0  0  0
    2.4600  -35.6067  -18.4849 C   0  0  0  0  0  0  0  0  0  0  0  0
    1.2170  -35.3204  -19.2184 C   0  0  0  0  0  0  0  0  0  0  0  0
    0.4626  -34.1050  -18.8304 C   0  0  0  0  0  0  0  0  0  0  0  0
   -0.6915  -33.7678  -19.4551 N   0  0  0  0  0  0  0  0  0  0  0  0
    1.0686  -36.3071  -20.1221 N   0  0  0  0  0  0  0  0  0  0  0  0
    2.1225  -37.1513  -19.9807 C   0  0  0  0  0  0  0  0  0  0  0  0
    2.9520  -36.7338  -19.0051 N   0  0  0  0  0  0  0  0  0  0  0  0
   10.2771  -31.1016  -15.9866 N   0  0  0  0  0  0  0  0  0  0  0  0
   10.0396  -32.3634  -15.5830 C   0  0  0  0  0  0  0  0  0  0  0  0
    9.3461  -32.6752  -14.4733 N   0  0  0  0  0  0  0  0  0  0  0  0
    8.8340  -31.7043  -13.6789 C   0  0  0  0  0  0  0  0  0  0  0  0
    9.0512  -30.2984  -14.0537 C   0  0  0  0  0  0  0  0  0  0  0  0
    9.8249  -30.0365  -15.2903 C   0  0  0  0  0  0  0  0  0  0  0  0
   10.0701  -28.7701  -15.7077 N   0  0  0  0  0  0  0  0  0  0  0  0
    8.4472  -29.5519  -13.1099 N   0  0  0  0  0  0  0  0  0  0  0  0
    7.8927  -30.4045  -12.2102 C   0  0  0  0  0  0  0  0  0  0  0  0
    8.1232  -31.6863  -12.5488 N   0  0  0  0  0  0  0  0  0  0  0  0
  1  3  1  1  0  0  0
  1  5  2  0  0  0  0
  1  9  1  0  0  0  0
  1 18  1  0  0  0  0
  2  4  1  6  0  0  0
  2  6  2  0  0  0  0
  2 10  1  0  0  0  0
  2 17  1  0  0  0  0
  7  9  1  0  0  0  0
  8 10  1  0  0  0  0
 11  7  1  1  0  0  0
 11 13  1  0  0  0  0
 11 15  1  0  0  0  0
 12  8  1  6  0  0  0
 12 14  1  0  0  0  0
 12 16  1  0  0  0  0
 13 21  1  0  0  0  0
 14 22  1  0  0  0  0
 15 17  1  6  0  0  0
 15 19  1  0  0  0  0
 16 18  1  1  0  0  0
 16 20  1  0  0  0  0
 19 21  1  0  0  0  0
 20 22  1  0  0  0  0
 21 32  1  1  0  0  0
 22 42  1  6  0  0  0
 23 24  2  0  0  0  0
 23 28  1  0  0  0  0
 24 25  1  0  0  0  0
 25 26  2  0  0  0  0
 26 27  1  0  0  0  0
 26 32  1  0  0  0  0
 27 28  2  0  0  0  0
 27 30  1  0  0  0  0
 28 29  1  0  0  0  0
 30 31  2  0  0  0  0
 31 32  1  0  0  0  0
 33 34  2  0  0  0  0
 33 38  1  0  0  0  0
 34 35  1  0  0  0  0
 35 36  2  0  0  0  0
 36 37  1  0  0  0  0
 36 42  1  0  0  0  0
 37 38  2  0  0  0  0
 37 40  1  0  0  0  0
 38 39  1  0  0  0  0
 40 41  2  0  0  0  0
 41 42  1  0  0  0  0
M  CHG  2   3  -1   4  -1
M  END
>  <CHROM.1>
77.65503076,35.89062027,5.87162677,-34.64431653,-15.42743817,3.10037505,-0.72833098
-0.76112237

>  <Name>
ligand

>  <RI>
0

>  <Rbt.Current_Directory>
/home/itssahil/PROJECTS/Mol_Feturizer/New_Systems/rnas/4QLN

>  <Rbt.Executable>
rbdock ($Id: //depot/dev/client3/rdock/2013.1/src/exe/rbdock.cxx#4 $)

>  <Rbt.Library>
libRbt.so (2013.1, Build901 2013/11/27)

>  <Rbt.Parameter_File>
/export/apps/rDock/src/rDock_2013.1_src/data/scripts/dock_solv.prm

>  <Rbt.Receptor>
prm/pocket_docking_4.prm

>  <SCORE>
-20.6551

>  <SCORE.INTER>
-20.5257

>  <SCORE.INTER.CONST>
1

>  <SCORE.INTER.POLAR>
0

>  <SCORE.INTER.ROT>
2

>  <SCORE.INTER.SOLV>
25.5539

>  <SCORE.INTER.VDW>
-27.1351

>  <SCORE.INTER.norm>
-0.488706

>  <SCORE.INTRA>
-0.129416

>  <SCORE.INTRA.DIHEDRAL>
-0.000358896

>  <SCORE.INTRA.DIHEDRAL.0>
2.39985

>  <SCORE.INTRA.POLAR>
0

>  <SCORE.INTRA.POLAR.0>
0

>  <SCORE.INTRA.REPUL>
0

>  <SCORE.INTRA.REPUL.0>
0

>  <SCORE.INTRA.SOLV>
0.691556

>  <SCORE.INTRA.SOLV.lig_0>
-110.958

>  <SCORE.INTRA.VDW>
-0.475015

>  <SCORE.INTRA.VDW.0>
-2.34644

>  <SCORE.INTRA.norm>
-0.00308134

>  <SCORE.RESTR>
0

>  <SCORE.RESTR.CAVITY>
0

>  <SCORE.RESTR.norm>
0

>  <SCORE.SYSTEM>
0

>  <SCORE.SYSTEM.CONST>
0

>  <SCORE.SYSTEM.DIHEDRAL>
0

>  <SCORE.SYSTEM.SOLV>
0

>  <SCORE.SYSTEM.norm>
0

>  <SCORE.heavy>
42

>  <SCORE.norm>
-0.491788

>  <RMSD>
1.897

$$$$
ligand
 OpenBabel11021811513D
libRbt.so/2013.1/901 2013/11/27
 42 48  0  0  0  0  0  0  0  0999 V2000
    3.9417  -36.0210  -12.9839 P   0  0  2  0  0  0  0  0  0  0  0  0
    7.7216  -35.8525  -16.3303 P   0  0  1  0  0  0  0  0  0  0  0  0
    3.5170  -37.3630  -12.4346 O   0  5  0  0  0  0  0  0  0  0  0  0
    7.1318  -34.4698  -16.4734 O   0  5  0  0  0  0  0  0  0  0  0  0
    3.0453  -34.8185  -12.8102 O   0  0  0  0  0  0  0  0  0  0  0  0
    9.0635  -36.1673  -16.9465 O   0  0  0  0  0  0  0  0  0  0  0  0
    3.5108  -37.1256  -15.3400 C   0  0  0  0  0  0  0  0  0  0  0  0
    8.5534  -35.4049  -13.8683 C   0  0  0  0  0  0  0  0  0  0  0  0
    4.2530  -36.1953  -14.5535 O   0  0  0  0  0  0  0  0  0  0  0  0
    7.7900  -36.2117  -14.7622 O   0  0  0  0  0  0  0  0  0  0  0  0
    4.3903  -37.6524  -16.4677 C   0  0  1  0  0  0  0  0  0  0  0  0
    7.7021  -35.0364  -12.6598 C   0  0  1  0  0  0  0  0  0  0  0  0
    3.5688  -38.1402  -17.5320 O   0  0  0  0  0  0  0  0  0  0  0  0
    8.2143  -33.8474  -12.0534 O   0  0  0  0  0  0  0  0  0  0  0  0
    5.2790  -36.5564  -17.0309 C   0  0  1  0  0  0  0  0  0  0  0  0
    6.2602  -34.7691  -13.0612 C   0  0  1  0  0  0  0  0  0  0  0  0
    6.6496  -36.9170  -16.8883 O   0  0  0  0  0  0  0  0  0  0  0  0
    5.3887  -35.6636  -12.3761 O   0  0  0  0  0  0  0  0  0  0  0  0
    4.9250  -36.4295  -18.5010 C   0  0  0  0  0  0  0  0  0  0  0  0
    5.9599  -33.3387  -12.6568 C   0  0  0  0  0  0  0  0  0  0  0  0
    3.8330  -37.4567  -18.7601 C   0  0  2  0  0  0  0  0  0  0  0  0
    7.2375  -32.8038  -12.0256 C   0  0  2  0  0  0  0  0  0  0  0  0
    0.5732  -33.3946  -18.0887 N   0  0  0  0  0  0  0  0  0  0  0  0
    1.6927  -33.7285  -17.4204 C   0  0  0  0  0  0  0  0  0  0  0  0
    2.4378  -34.8124  -17.7048 N   0  0  0  0  0  0  0  0  0  0  0  0
    2.0903  -35.6506  -18.7105 C   0  0  0  0  0  0  0  0  0  0  0  0
    0.8778  -35.3530  -19.4891 C   0  0  0  0  0  0  0  0  0  0  0  0
    0.1096  -34.1417  -19.1155 C   0  0  0  0  0  0  0  0  0  0  0  0
   -1.0183  -33.7947  -19.7811 N   0  0  0  0  0  0  0  0  0  0  0  0
    0.7647  -36.3275  -20.4110 N   0  0  0  0  0  0  0  0  0  0  0  0
    1.8113  -37.1749  -20.2389 C   0  0  0  0  0  0  0  0  0  0  0  0
    2.6017  -36.7715  -19.2256 N   0  0  0  0  0  0  0  0  0  0  0  0
   10.4506  -31.1226  -15.8232 N   0  0  0  0  0  0  0  0  0  0  0  0
   10.2506  -32.3636  -15.3423 C   0  0  0  0  0  0  0  0  0  0  0  0
    9.3845  -32.6517  -14.3541 N   0  0  0  0  0  0  0  0  0  0  0  0
    8.6447  -31.6764  -13.7731 C   0  0  0  0  0  0  0  0  0  0  0  0
    8.8067  -30.2924  -14.2445 C   0  0  0  0  0  0  0  0  0  0  0  0
    9.7801  -30.0560  -15.3367 C   0  0  0  0  0  0  0  0  0  0  0  0
    9.9900  -28.8108  -15.8302 N   0  0  0  0  0  0  0  0  0  0  0  0
    7.9677  -29.5365  -13.5114 N   0  0  0  0  0  0  0  0  0  0  0  0
    7.3256  -30.3635  -12.6466 C   0  0  0  0  0  0  0  0  0  0  0  0
    7.7289  -31.6379  -12.8023 N   0  0  0  0  0  0  0  0  0  0  0  0
  1  3  1  1  0  0  0
  1  5  2  0  0  0  0
  1  9  1  0  0  0  0
  1 18  1  0  0  0  0
  2  4  1  6  0  0  0
  2  6  2  0  0  0  0
  2 10  1  0  0  0  0
  2 17  1  0  0  0  0
  7  9  1  0  0  0  0
  8 10  1  0  0  0  0
 11  7  1  1  0  0  0
 11 13  1  0  0  0  0
 11 15  1  0  0  0  0
 12  8  1  6  0  0  0
 12 14  1  0  0  0  0
 12 16  1  0  0  0  0
 13 21  1  0  0  0  0
 14 22  1  0  0  0  0
 15 17  1  6  0  0  0
 15 19  1  0  0  0  0
 16 18  1  1  0  0  0
 16 20  1  0  0  0  0
 19 21  1  0  0  0  0
 20 22  1  0  0  0  0
 21 32  1  1  0  0  0
 22 42  1  6  0  0  0
 23 24  2  0  0  0  0
 23 28  1  0  0  0  0
 24 25  1  0  0  0  0
 25 26  2  0  0  0  0
 26 27  1  0  0  0  0
 26 32  1  0  0  0  0
 27 28  2  0  0  0  0
 27 30  1  0  0  0  0
 28 29  1  0  0  0  0
 30 31  2  0  0  0  0
 31 32  1  0  0  0  0
 33 34  2  0  0  0  0
 33 38  1  0  0  0  0
 34 35  1  0  0  0  0
 35 36  2  0  0  0  0
 36 37  1  0  0  0  0
 36 42  1  0  0  0  0
 37 38  2  0  0  0  0
 37 40  1  0  0  0  0
 38 39  1  0  0  0  0
 40 41  2  0  0  0  0
 41 42  1  0  0  0  0
M  CHG  2   3  -1   4  -1
M  END
>  <CHROM.1>
75.01100251,23.41388137,5.52094174,-34.63643871,-15.60811185,3.06867993,-0.71805909
-0.81894402

>  <Name>
ligand

>  <RI>
0

>  <Rbt.Current_Directory>
/home/itssahil/PROJECTS/Mol_Feturizer/New_Systems/rnas/4QLN

>  <Rbt.Executable>
rbdock ($Id: //depot/dev/client3/rdock/2013.1/src/exe/rbdock.cxx#4 $)

>  <Rbt.Library>
libRbt.so (2013.1, Build901 2013/11/27)

>  <Rbt.Parameter_File>
/export/apps/rDock/src/rDock_2013.1_src/data/scripts/dock_solv.prm

>  <Rbt.Receptor>
prm/pocket_docking_5.prm

>  <SCORE>
-23.131

>  <SCORE.INTER>
-22.9273

>  <SCORE.INTER.CONST>
1

>  <SCORE.INTER.POLAR>
0

>  <SCORE.INTER.ROT>
2

>  <SCORE.INTER.SOLV>
26.214

>  <SCORE.INTER.VDW>
-28.9562

>  <SCORE.INTER.norm>
-0.545889

>  <SCORE.INTRA>
-0.206315

>  <SCORE.INTRA.DIHEDRAL>
-0.00037355

>  <SCORE.INTRA.DIHEDRAL.0>
2.39985

>  <SCORE.INTRA.POLAR>
0

>  <SCORE.INTRA.POLAR.0>
0

>  <SCORE.INTRA.REPUL>
0

>  <SCORE.INTRA.REPUL.0>
0

>  <SCORE.INTRA.SOLV>
0.197556

>  <SCORE.INTRA.SOLV.lig_0>
-110.958

>  <SCORE.INTRA.VDW>
-0.304906

>  <SCORE.INTRA.VDW.0>
-2.34644

>  <SCORE.INTRA.norm>
-0.00491225

>  <SCORE.RESTR>
0.00268816

>  <SCORE.RESTR.CAVITY>
0.00268816

>  <SCORE.RESTR.norm>
6.40038e-05

>  <SCORE.SYSTEM>
0

>  <SCORE.SYSTEM.CONST>
0

>  <SCORE.SYSTEM.DIHEDRAL>
0

>  <SCORE.SYSTEM.SOLV>
0

>  <SCORE.SYSTEM.norm>
0

>  <SCORE.heavy>
42

>  <SCORE.norm>
-0.550737

>  <RMSD>
1.903

$$$$
ligand
 OpenBabel11021811513D
libRbt.so/2013.1/901 2013/11/27
 42 48  0  0  0  0  0  0  0  0999 V2000
    3.9494  -36.0208  -12.9739 P   0  0  2  0  0  0  0  0  0  0  0  0
    7.7247  -35.8621  -16.3259 P   0  0  1  0  0  0  0  0  0  0  0  0
    3.5227  -37.3615  -12.4231 O   0  5  0  0  0  0  0  0  0  0  0  0
    7.1376  -34.4782  -16.4690 O   0  5  0  0  0  0  0  0  0  0  0  0
    3.0558  -34.8162  -12.7995 O   0  0  0  0  0  0  0  0  0  0  0  0
    9.0650  -36.1801  -16.9439 O   0  0  0  0  0  0  0  0  0  0  0  0
    3.5127  -37.1259  -15.3287 C   0  0  0  0  0  0  0  0  0  0  0  0
    8.5611  -35.4148  -13.8655 C   0  0  0  0  0  0  0  0  0  0  0  0
    4.2580  -36.1966  -14.5439 O   0  0  0  0  0  0  0  0  0  0  0  0
    7.7947  -36.2205  -14.7577 O   0  0  0  0  0  0  0  0  0  0  0  0
    4.3894  -37.6551  -16.4573 C   0  0  1  0  0  0  0  0  0  0  0  0
    7.7123  -35.0438  -12.6559 C   0  0  1  0  0  0  0  0  0  0  0  0
    3.5653  -38.1418  -17.5201 O   0  0  0  0  0  0  0  0  0  0  0  0
    8.2279  -33.8555  -12.0510 O   0  0  0  0  0  0  0  0  0  0  0  0
    5.2796  -36.5613  -17.0225 C   0  0  1  0  0  0  0  0  0  0  0  0
    6.2704  -34.7737  -13.0553 C   0  0  1  0  0  0  0  0  0  0  0  0
    6.6496  -36.9247  -16.8818 O   0  0  0  0  0  0  0  0  0  0  0  0
    5.3980  -35.6660  -12.3684 O   0  0  0  0  0  0  0  0  0  0  0  0
    4.9237  -36.4345  -18.4922 C   0  0  0  0  0  0  0  0  0  0  0  0
    5.9737  -33.3425  -12.6513 C   0  0  0  0  0  0  0  0  0  0  0  0
    3.8292  -37.4596  -18.7491 C   0  0  2  0  0  0  0  0  0  0  0  0
    7.2533  -32.8098  -12.0223 C   0  0  2  0  0  0  0  0  0  0  0  0
    0.5735  -33.3956  -18.0689 N   0  0  0  0  0  0  0  0  0  0  0  0
    1.6925  -33.7322  -17.4013 C   0  0  0  0  0  0  0  0  0  0  0  0
    2.4366  -34.8163  -17.6880 N   0  0  0  0  0  0  0  0  0  0  0  0
    2.0883  -35.6519  -18.6956 C   0  0  0  0  0  0  0  0  0  0  0  0
    0.8762  -35.3513  -19.4736 C   0  0  0  0  0  0  0  0  0  0  0  0
    0.1092  -34.1400  -19.0974 C   0  0  0  0  0  0  0  0  0  0  0  0
   -1.0183  -33.7904  -19.7623 N   0  0  0  0  0  0  0  0  0  0  0  0
    0.7622  -36.3236  -20.3977 N   0  0  0  0  0  0  0  0  0  0  0  0
    1.8079  -37.1725  -20.2274 C   0  0  0  0  0  0  0  0  0  0  0  0
    2.5986  -36.7721  -19.2131 N   0  0  0  0  0  0  0  0  0  0  0  0
   10.4642  -31.1376  -15.8258 N   0  0  0  0  0  0  0  0  0  0  0  0
   10.2622  -32.3779  -15.3439 C   0  0  0  0  0  0  0  0  0  0  0  0
    9.3971  -32.6636  -14.3542 N   0  0  0  0  0  0  0  0  0  0  0  0
    8.6603  -31.6864  -13.7727 C   0  0  0  0  0  0  0  0  0  0  0  0
    8.8245  -30.3030  -14.2452 C   0  0  0  0  0  0  0  0  0  0  0  0
    9.7967  -30.0693  -15.3390 C   0  0  0  0  0  0  0  0  0  0  0  0
   10.0084  -28.8248  -15.8334 N   0  0  0  0  0  0  0  0  0  0  0  0
    7.9882  -29.5449  -13.5112 N   0  0  0  0  0  0  0  0  0  0  0  0
    7.3457  -30.3700  -12.6449 C   0  0  0  0  0  0  0  0  0  0  0  0
    7.7460  -31.6454  -12.8005 N   0  0  0  0  0  0  0  0  0  0  0  0
  1  3  1  1  0  0  0
  1  5  2  0  0  0  0
  1  9  1  0  0  0  0
  1 18  1  0  0  0  0
  2  4  1  6  0  0  0
  2  6  2  0  0  0  0
  2 10  1  0  0  0  0
  2 17  1  0  0  0  0
  7  9  1  0  0  0  0
  8 10  1  0  0  0  0
 11  7  1  1  0  0  0
 11 13  1  0  0  0  0
 11 15  1  0  0  0  0
 12  8  1  6  0  0  0
 12 14  1  0  0  0  0
 12 16  1  0  0  0  0
 13 21  1  0  0  0  0
 14 22  1  0  0  0  0
 15 17  1  6  0  0  0
 15 19  1  0  0  0  0
 16 18  1  1  0  0  0
 16 20  1  0  0  0  0
 19 21  1  0  0  0  0
 20 22  1  0  0  0  0
 21 32  1  1  0  0  0
 22 42  1  6  0  0  0
 23 24  2  0  0  0  0
 23 28  1  0  0  0  0
 24 25  1  0  0  0  0
 25 26  2  0  0  0  0
 26 27  1  0  0  0  0
 26 32  1  0  0  0  0
 27 28  2  0  0  0  0
 27 30  1  0  0  0  0
 28 29  1  0  0  0  0
 30 31  2  0  0  0  0
 31 32  1  0  0  0  0
 33 34  2  0  0  0  0
 33 38  1  0  0  0  0
 34 35  1  0  0  0  0
 35 36  2  0  0  0  0
 36 37  1  0  0  0  0
 36 42  1  0  0  0  0
 37 38  2  0  0  0  0
 37 40  1  0  0  0  0
 38 39  1  0  0  0  0
 40 41  2  0  0  0  0
 41 42  1  0  0  0  0
M  CHG  2   3  -1   4  -1
M  END
>  <CHROM.1>
74.81708621,23.41700141,5.52719566,-34.64144498,-15.60073269,3.06761646,-0.71527988
-0.82113254

>  <Name>
ligand

>  <RI>
0

>  <Rbt.Current_Directory>
/home/itssahil/PROJECTS/Mol_Feturizer/New_Systems/rnas/4QLN

>  <Rbt.Executable>
rbdock ($Id: //depot/dev/client3/rdock/2013.1/src/exe/rbdock.cxx#4 $)

>  <Rbt.Library>
libRbt.so (2013.1, Build901 2013/11/27)

>  <Rbt.Parameter_File>
/export/apps/rDock/src/rDock_2013.1_src/data/scripts/dock_solv.prm

>  <Rbt.Receptor>
prm/pocket_docking_5.prm

>  <SCORE>
-23.1708

>  <SCORE.INTER>
-22.9594

>  <SCORE.INTER.CONST>
1

>  <SCORE.INTER.POLAR>
0

>  <SCORE.INTER.ROT>
2

>  <SCORE.INTER.SOLV>
26.2339

>  <SCORE.INTER.VDW>
-28.9842

>  <SCORE.INTER.norm>
-0.546651

>  <SCORE.INTRA>
-0.213646

>  <SCORE.INTRA.DIHEDRAL>
-0.000375479

>  <SCORE.INTRA.DIHEDRAL.0>
2.39985

>  <SCORE.INTRA.POLAR>
0

>  <SCORE.INTRA.POLAR.0>
0

>  <SCORE.INTRA.REPUL>
0

>  <SCORE.INTRA.REPUL.0>
0

>  <SCORE.INTRA.SOLV>
0.197808

>  <SCORE.INTRA.SOLV.lig_0>
-110.958

>  <SCORE.INTRA.VDW>
-0.312362

>  <SCORE.INTRA.VDW.0>
-2.34644

>  <SCORE.INTRA.norm>
-0.00508682

>  <SCORE.RESTR>
0.00223918

>  <SCORE.RESTR.CAVITY>
0.00223918

>  <SCORE.RESTR.norm>
5.33138e-05

>  <SCORE.SYSTEM>
0

>  <SCORE.SYSTEM.CONST>
0

>  <SCORE.SYSTEM.DIHEDRAL>
0

>  <SCORE.SYSTEM.SOLV>
0

>  <SCORE.SYSTEM.norm>
0

>  <SCORE.heavy>
42

>  <SCORE.norm>
-0.551685

>  <RMSD>
1.905

$$$$
ligand
 OpenBabel11021811513D
libRbt.so/2013.1/901 2013/11/27
 42 48  0  0  0  0  0  0  0  0999 V2000
    3.9749  -36.0973  -13.0108 P   0  0  2  0  0  0  0  0  0  0  0  0
    7.7388  -35.8161  -16.3677 P   0  0  1  0  0  0  0  0  0  0  0  0
    3.5658  -37.4555  -12.4902 O   0  5  0  0  0  0  0  0  0  0  0  0
    7.1348  -34.4364  -16.4773 O   0  5  0  0  0  0  0  0  0  0  0  0
    3.0674  -34.9079  -12.8065 O   0  0  0  0  0  0  0  0  0  0  0  0
    9.0811  -36.1036  -16.9962 O   0  0  0  0  0  0  0  0  0  0  0  0
    3.5449  -37.1530  -15.3894 C   0  0  0  0  0  0  0  0  0  0  0  0
    8.5765  -35.4157  -13.8996 C   0  0  0  0  0  0  0  0  0  0  0  0
    4.2813  -36.2332  -14.5852 O   0  0  0  0  0  0  0  0  0  0  0  0
    7.8173  -36.2097  -14.8084 O   0  0  0  0  0  0  0  0  0  0  0  0
    4.4247  -37.6455  -16.5322 C   0  0  1  0  0  0  0  0  0  0  0  0
    7.7268  -35.0829  -12.6797 C   0  0  1  0  0  0  0  0  0  0  0  0
    3.6036  -38.1174  -17.6039 O   0  0  0  0  0  0  0  0  0  0  0  0
    8.2298  -33.9028  -12.0488 O   0  0  0  0  0  0  0  0  0  0  0  0
    5.3003  -36.5283  -17.0742 C   0  0  1  0  0  0  0  0  0  0  0  0
    6.2806  -34.8210  -13.0692 C   0  0  1  0  0  0  0  0  0  0  0  0
    6.6749  -36.8784  -16.9453 O   0  0  0  0  0  0  0  0  0  0  0  0
    5.4208  -35.7393  -12.4009 O   0  0  0  0  0  0  0  0  0  0  0  0
    4.9388  -36.3719  -18.5396 C   0  0  0  0  0  0  0  0  0  0  0  0
    5.9680  -33.4031  -12.6315 C   0  0  0  0  0  0  0  0  0  0  0  0
    3.8559  -37.4039  -18.8174 C   0  0  2  0  0  0  0  0  0  0  0  0
    7.2429  -32.8698  -11.9935 C   0  0  2  0  0  0  0  0  0  0  0  0
    0.5906  -33.3577  -18.0792 N   0  0  0  0  0  0  0  0  0  0  0  0
    1.7202  -33.6912  -17.4280 C   0  0  0  0  0  0  0  0  0  0  0  0
    2.4654  -34.7708  -17.7284 N   0  0  0  0  0  0  0  0  0  0  0  0
    2.1074  -35.6046  -18.7342 C   0  0  0  0  0  0  0  0  0  0  0  0
    0.8835  -35.3071  -19.4947 C   0  0  0  0  0  0  0  0  0  0  0  0
    0.1160  -34.1008  -19.1039 C   0  0  0  0  0  0  0  0  0  0  0  0
   -1.0221  -33.7543  -19.7523 N   0  0  0  0  0  0  0  0  0  0  0  0
    0.7615  -36.2768  -20.4205 N   0  0  0  0  0  0  0  0  0  0  0  0
    1.8135  -37.1213  -20.2673 C   0  0  0  0  0  0  0  0  0  0  0  0
    2.6159  -36.7206  -19.2624 N   0  0  0  0  0  0  0  0  0  0  0  0
   10.4102  -31.0743  -15.7772 N   0  0  0  0  0  0  0  0  0  0  0  0
   10.2228  -32.3280  -15.3251 C   0  0  0  0  0  0  0  0  0  0  0  0
    9.3676  -32.6461  -14.3366 N   0  0  0  0  0  0  0  0  0  0  0  0
    8.6267  -31.6904  -13.7253 C   0  0  0  0  0  0  0  0  0  0  0  0
    8.7753  -30.2942  -14.1642 C   0  0  0  0  0  0  0  0  0  0  0  0
    9.7371  -30.0245  -15.2588 C   0  0  0  0  0  0  0  0  0  0  0  0
    9.9342  -28.7662  -15.7234 N   0  0  0  0  0  0  0  0  0  0  0  0
    7.9379  -29.5623  -13.4052 N   0  0  0  0  0  0  0  0  0  0  0  0
    7.3092  -30.4145  -12.5553 C   0  0  0  0  0  0  0  0  0  0  0  0
    7.7195  -31.6819  -12.7458 N   0  0  0  0  0  0  0  0  0  0  0  0
  1  3  1  1  0  0  0
  1  5  2  0  0  0  0
  1  9  1  0  0  0  0
  1 18  1  0  0  0  0
  2  4  1  6  0  0  0
  2  6  2  0  0  0  0
  2 10  1  0  0  0  0
  2 17  1  0  0  0  0
  7  9  1  0  0  0  0
  8 10  1  0  0  0  0
 11  7  1  1  0  0  0
 11 13  1  0  0  0  0
 11 15  1  0  0  0  0
 12  8  1  6  0  0  0
 12 14  1  0  0  0  0
 12 16  1  0  0  0  0
 13 21  1  0  0  0  0
 14 22  1  0  0  0  0
 15 17  1  6  0  0  0
 15 19  1  0  0  0  0
 16 18  1  1  0  0  0
 16 20  1  0  0  0  0
 19 21  1  0  0  0  0
 20 22  1  0  0  0  0
 21 32  1  1  0  0  0
 22 42  1  6  0  0  0
 23 24  2  0  0  0  0
 23 28  1  0  0  0  0
 24 25  1  0  0  0  0
 25 26  2  0  0  0  0
 26 27  1  0  0  0  0
 26 32  1  0  0  0  0
 27 28  2  0  0  0  0
 27 30  1  0  0  0  0
 28 29  1  0  0  0  0
 30 31  2  0  0  0  0
 31 32  1  0  0  0  0
 33 34  2  0  0  0  0
 33 38  1  0  0  0  0
 34 35  1  0  0  0  0
 35 36  2  0  0  0  0
 36 37  1  0  0  0  0
 36 42  1  0  0  0  0
 37 38  2  0  0  0  0
 37 40  1  0  0  0  0
 38 39  1  0  0  0  0
 40 41  2  0  0  0  0
 41 42  1  0  0  0  0
M  CHG  2   3  -1   4  -1
M  END
>  <CHROM.1>
76.17081876,23.76438745,5.53083247,-34.63600847,-15.61358831,3.08465145,-0.72386789
-0.78116136

>  <Name>
ligand

>  <RI>
0

>  <Rbt.Current_Directory>
/home/itssahil/PROJECTS/Mol_Feturizer/New_Systems/rnas/4QLN

>  <Rbt.Executable>
rbdock ($Id: //depot/dev/client3/rdock/2013.1/src/exe/rbdock.cxx#4 $)

>  <Rbt.Library>
libRbt.so (2013.1, Build901 2013/11/27)

>  <Rbt.Parameter_File>
/export/apps/rDock/src/rDock_2013.1_src/data/scripts/dock_solv.prm

>  <Rbt.Receptor>
prm/pocket_docking_5.prm

>  <SCORE>
-23.1643

>  <SCORE.INTER>
-23.0417

>  <SCORE.INTER.CONST>
1

>  <SCORE.INTER.POLAR>
0

>  <SCORE.INTER.ROT>
2

>  <SCORE.INTER.SOLV>
26.034

>  <SCORE.INTER.VDW>
-28.9725

>  <SCORE.INTER.norm>
-0.548613

>  <SCORE.INTRA>
-0.160685

>  <SCORE.INTRA.DIHEDRAL>
-0.000367225

>  <SCORE.INTRA.DIHEDRAL.0>
2.39985

>  <SCORE.INTRA.POLAR>
0

>  <SCORE.INTRA.POLAR.0>
0

>  <SCORE.INTRA.REPUL>
0

>  <SCORE.INTRA.REPUL.0>
0

>  <SCORE.INTRA.SOLV>
0.208148

>  <SCORE.INTRA.SOLV.lig_0>
-110.958

>  <SCORE.INTRA.VDW>
-0.264575

>  <SCORE.INTRA.VDW.0>
-2.34644

>  <SCORE.INTRA.norm>
-0.00382584

>  <SCORE.RESTR>
0.0381776

>  <SCORE.RESTR.CAVITY>
0.0381776

>  <SCORE.RESTR.norm>
0.000908992

>  <SCORE.SYSTEM>
0

>  <SCORE.SYSTEM.CONST>
0

>  <SCORE.SYSTEM.DIHEDRAL>
0

>  <SCORE.SYSTEM.SOLV>
0

>  <SCORE.SYSTEM.norm>
0

>  <SCORE.heavy>
42

>  <SCORE.norm>
-0.55153

>  <RMSD>
1.920

$$$$
ligand
 OpenBabel11021811513D
libRbt.so/2013.1/901 2013/11/27
 42 48  0  0  0  0  0  0  0  0999 V2000
    9.4273  -35.4823  -15.7972 P   0  0  2  0  0  0  0  0  0  0  0  0
    5.3035  -34.5127  -13.0461 P   0  0  1  0  0  0  0  0  0  0  0  0
   10.6526  -36.0285  -15.1019 O   0  5  0  0  0  0  0  0  0  0  0  0
    4.9806  -33.7948  -14.3348 O   0  5  0  0  0  0  0  0  0  0  0  0
    9.5424  -34.9179  -17.1929 O   0  0  0  0  0  0  0  0  0  0  0  0
    4.2238  -34.7311  -12.0137 O   0  0  0  0  0  0  0  0  0  0  0  0
    9.5945  -33.5339  -14.0272 C   0  0  0  0  0  0  0  0  0  0  0  0
    5.2078  -36.8939  -14.1748 C   0  0  0  0  0  0  0  0  0  0  0  0
    8.7711  -34.3575  -14.8510 O   0  0  0  0  0  0  0  0  0  0  0  0
    5.9471  -35.9423  -13.4130 O   0  0  0  0  0  0  0  0  0  0  0  0
    8.8245  -33.1400  -12.7724 C   0  0  1  0  0  0  0  0  0  0  0  0
    6.0662  -37.4045  -15.3252 C   0  0  1  0  0  0  0  0  0  0  0  0
    9.3841  -31.9461  -12.2183 O   0  0  0  0  0  0  0  0  0  0  0  0
    5.2266  -37.9058  -16.3681 O   0  0  0  0  0  0  0  0  0  0  0  0
    7.3632  -32.8668  -13.0858 C   0  0  1  0  0  0  0  0  0  0  0  0
    6.9215  -36.2926  -15.9115 C   0  0  1  0  0  0  0  0  0  0  0  0
    6.5300  -33.7466  -12.3370 O   0  0  0  0  0  0  0  0  0  0  0  0
    8.3011  -36.6323  -15.8094 O   0  0  0  0  0  0  0  0  0  0  0  0
    7.0985  -31.4288  -12.6799 C   0  0  0  0  0  0  0  0  0  0  0  0
    6.5233  -36.1677  -17.3694 C   0  0  0  0  0  0  0  0  0  0  0  0
    8.4170  -30.8955  -12.1395 C   0  0  2  0  0  0  0  0  0  0  0  0
    5.4423  -37.2140  -17.6005 C   0  0  2  0  0  0  0  0  0  0  0  0
    8.5821  -28.7394  -16.9251 N   0  0  0  0  0  0  0  0  0  0  0  0
    8.0448  -29.9035  -16.5159 C   0  0  0  0  0  0  0  0  0  0  0  0
    8.0775  -30.3350  -15.2416 N   0  0  0  0  0  0  0  0  0  0  0  0
    8.6709  -29.5971  -14.2729 C   0  0  0  0  0  0  0  0  0  0  0  0
    9.2817  -28.3103  -14.6413 C   0  0  0  0  0  0  0  0  0  0  0  0
    9.2057  -27.9038  -16.0647 C   0  0  0  0  0  0  0  0  0  0  0  0
    9.7420  -26.7341  -16.4886 N   0  0  0  0  0  0  0  0  0  0  0  0
    9.7927  -27.7899  -13.5098 N   0  0  0  0  0  0  0  0  0  0  0  0
    9.5328  -28.6651  -12.5050 C   0  0  0  0  0  0  0  0  0  0  0  0
    8.8640  -29.7423  -12.9596 N   0  0  0  0  0  0  0  0  0  0  0  0
    1.6183  -33.8552  -16.3093 N   0  0  0  0  0  0  0  0  0  0  0  0
    2.6965  -34.2532  -15.6089 C   0  0  0  0  0  0  0  0  0  0  0  0
    3.6052  -35.1312  -16.0704 N   0  0  0  0  0  0  0  0  0  0  0  0
    3.4784  -35.6778  -17.3037 C   0  0  0  0  0  0  0  0  0  0  0  0
    2.3250  -35.2920  -18.1313 C   0  0  0  0  0  0  0  0  0  0  0  0
    1.3682  -34.3194  -17.5525 C   0  0  0  0  0  0  0  0  0  0  0  0
    0.2790  -33.9102  -18.2483 N   0  0  0  0  0  0  0  0  0  0  0  0
    2.4400  -35.9691  -19.2894 N   0  0  0  0  0  0  0  0  0  0  0  0
    3.5672  -36.7221  -19.2101 C   0  0  0  0  0  0  0  0  0  0  0  0
    4.1856  -36.5489  -18.0275 N   0  0  0  0  0  0  0  0  0  0  0  0
  1  3  1  1  0  0  0
  1  5  2  0  0  0  0
  1  9  1  0  0  0  0
  1 18  1  0  0  0  0
  2  4  1  6  0  0  0
  2  6  2  0  0  0  0
  2 10  1  0  0  0  0
  2 17  1  0  0  0  0
  7  9  1  0  0  0  0
  8 10  1  0  0  0  0
 11  7  1  6  0  0  0
 11 13  1  0  0  0  0
 11 15  1  0  0  0  0
 12  8  1  1  0  0  0
 12 14  1  0  0  0  0
 12 16  1  0  0  0  0
 13 21  1  0  0  0  0
 14 22  1  0  0  0  0
 15 17  1  1  0  0  0
 15 19  1  0  0  0  0
 16 18  1  6  0  0  0
 16 20  1  0  0  0  0
 19 21  1  0  0  0  0
 20 22  1  0  0  0  0
 21 32  1  6  0  0  0
 22 42  1  1  0  0  0
 23 24  2  0  0  0  0
 23 28  1  0  0  0  0
 24 25  1  0  0  0  0
 25 26  2  0  0  0  0
 26 27  1  0  0  0  0
 26 32  1  0  0  0  0
 27 28  2  0  0  0  0
 27 30  1  0  0  0  0
 28 29  1  0  0  0  0
 30 31  2  0  0  0  0
 31 32  1  0  0  0  0
 33 34  2  0  0  0  0
 33 38  1  0  0  0  0
 34 35  1  0  0  0  0
 35 36  2  0  0  0  0
 36 37  1  0  0  0  0
 36 42  1  0  0  0  0
 37 38  2  0  0  0  0
 37 40  1  0  0  0  0
 38 39  1  0  0  0  0
 40 41  2  0  0  0  0
 41 42  1  0  0  0  0
M  CHG  2   3  -1   4  -1
M  END
>  <CHROM.1>
84.49405096,55.86669766,6.63892336,-33.62655008,-15.19719538,-0.79761184
0.47736917,3.13622059

>  <Name>
ligand

>  <RI>
0

>  <Rbt.Current_Directory>
/home/itssahil/PROJECTS/Mol_Feturizer/New_Systems/rnas/4QLN

>  <Rbt.Executable>
rbdock ($Id: //depot/dev/client3/rdock/2013.1/src/exe/rbdock.cxx#4 $)

>  <Rbt.Library>
libRbt.so (2013.1, Build901 2013/11/27)

>  <Rbt.Parameter_File>
/export/apps/rDock/src/rDock_2013.1_src/data/scripts/dock_solv.prm

>  <Rbt.Receptor>
prm/pocket_docking_4.prm

>  <SCORE>
-23.4293

>  <SCORE.INTER>
-24.3209

>  <SCORE.INTER.CONST>
1

>  <SCORE.INTER.POLAR>
0

>  <SCORE.INTER.ROT>
2

>  <SCORE.INTER.SOLV>
26.3695

>  <SCORE.INTER.VDW>
-29.9371

>  <SCORE.INTER.norm>
-0.579069

>  <SCORE.INTRA>
0.891576

>  <SCORE.INTRA.DIHEDRAL>
0.000238181

>  <SCORE.INTRA.DIHEDRAL.0>
2.39985

>  <SCORE.INTRA.POLAR>
0

>  <SCORE.INTRA.POLAR.0>
0

>  <SCORE.INTRA.REPUL>
0

>  <SCORE.INTRA.REPUL.0>
0

>  <SCORE.INTRA.SOLV>
1.23332

>  <SCORE.INTRA.SOLV.lig_0>
-110.958

>  <SCORE.INTRA.VDW>
0.274797

>  <SCORE.INTRA.VDW.0>
-2.34644

>  <SCORE.INTRA.norm>
0.021228

>  <SCORE.RESTR>
0

>  <SCORE.RESTR.CAVITY>
0

>  <SCORE.RESTR.norm>
0

>  <SCORE.SYSTEM>
0

>  <SCORE.SYSTEM.CONST>
0

>  <SCORE.SYSTEM.DIHEDRAL>
0

>  <SCORE.SYSTEM.SOLV>
0

>  <SCORE.SYSTEM.norm>
0

>  <SCORE.heavy>
42

>  <SCORE.norm>
-0.557841

>  <RMSD>
1.929

$$$$
ligand
 OpenBabel11021811513D
libRbt.so/2013.1/901 2013/11/27
 42 48  0  0  0  0  0  0  0  0999 V2000
    9.4171  -35.5136  -15.7645 P   0  0  2  0  0  0  0  0  0  0  0  0
    5.2999  -34.5106  -13.0156 P   0  0  1  0  0  0  0  0  0  0  0  0
   10.6404  -36.0617  -15.0673 O   0  5  0  0  0  0  0  0  0  0  0  0
    4.9793  -33.7980  -14.3078 O   0  5  0  0  0  0  0  0  0  0  0  0
    9.5338  -34.9571  -17.1633 O   0  0  0  0  0  0  0  0  0  0  0  0
    4.2199  -34.7186  -11.9812 O   0  0  0  0  0  0  0  0  0  0  0  0
    9.5945  -33.5567  -14.0049 C   0  0  0  0  0  0  0  0  0  0  0  0
    5.1923  -36.8973  -14.1317 C   0  0  0  0  0  0  0  0  0  0  0  0
    8.7667  -34.3809  -14.8238 O   0  0  0  0  0  0  0  0  0  0  0  0
    5.9366  -35.9451  -13.3754 O   0  0  0  0  0  0  0  0  0  0  0  0
    8.8273  -33.1527  -12.7516 C   0  0  1  0  0  0  0  0  0  0  0  0
    6.0475  -37.4179  -15.2800 C   0  0  1  0  0  0  0  0  0  0  0  0
    9.3928  -31.9585  -12.2042 O   0  0  0  0  0  0  0  0  0  0  0  0
    5.2049  -37.9208  -16.3196 O   0  0  0  0  0  0  0  0  0  0  0  0
    7.3670  -32.8744  -13.0654 C   0  0  1  0  0  0  0  0  0  0  0  0
    6.9075  -36.3130  -15.8727 C   0  0  1  0  0  0  0  0  0  0  0  0
    6.5304  -33.7464  -12.3114 O   0  0  0  0  0  0  0  0  0  0  0  0
    8.2857  -36.6585  -15.7698 O   0  0  0  0  0  0  0  0  0  0  0  0
    7.1092  -31.4332  -12.6668 C   0  0  0  0  0  0  0  0  0  0  0  0
    6.5088  -36.1939  -17.3309 C   0  0  0  0  0  0  0  0  0  0  0  0
    8.4306  -30.9031  -12.1303 C   0  0  2  0  0  0  0  0  0  0  0  0
    5.4229  -37.2365  -17.5558 C   0  0  2  0  0  0  0  0  0  0  0  0
    8.6139  -28.7793  -16.9297 N   0  0  0  0  0  0  0  0  0  0  0  0
    8.0730  -29.9396  -16.5143 C   0  0  0  0  0  0  0  0  0  0  0  0
    8.1013  -30.3626  -15.2370 N   0  0  0  0  0  0  0  0  0  0  0  0
    8.6933  -29.6195  -14.2715 C   0  0  0  0  0  0  0  0  0  0  0  0
    9.3077  -28.3364  -14.6468 C   0  0  0  0  0  0  0  0  0  0  0  0
    9.2366  -27.9392  -16.0730 C   0  0  0  0  0  0  0  0  0  0  0  0
    9.7765  -26.7734  -16.5032 N   0  0  0  0  0  0  0  0  0  0  0  0
    9.8164  -27.8094  -13.5172 N   0  0  0  0  0  0  0  0  0  0  0  0
    9.5519  -28.6774  -12.5073 C   0  0  0  0  0  0  0  0  0  0  0  0
    8.8822  -29.7562  -12.9567 N   0  0  0  0  0  0  0  0  0  0  0  0
    1.5525  -33.9426  -16.2353 N   0  0  0  0  0  0  0  0  0  0  0  0
    2.6213  -34.3534  -15.5280 C   0  0  0  0  0  0  0  0  0  0  0  0
    3.5443  -35.2115  -15.9986 N   0  0  0  0  0  0  0  0  0  0  0  0
    3.4429  -35.7229  -17.2492 C   0  0  0  0  0  0  0  0  0  0  0  0
    2.3012  -35.3212  -18.0854 C   0  0  0  0  0  0  0  0  0  0  0  0
    1.3275  -34.3723  -17.4957 C   0  0  0  0  0  0  0  0  0  0  0  0
    0.2474  -33.9505  -18.1983 N   0  0  0  0  0  0  0  0  0  0  0  0
    2.4412  -35.9636  -19.2604 N   0  0  0  0  0  0  0  0  0  0  0  0
    3.5723  -36.7109  -19.1831 C   0  0  0  0  0  0  0  0  0  0  0  0
    4.1689  -36.5678  -17.9853 N   0  0  0  0  0  0  0  0  0  0  0  0
  1  3  1  1  0  0  0
  1  5  2  0  0  0  0
  1  9  1  0  0  0  0
  1 18  1  0  0  0  0
  2  4  1  6  0  0  0
  2  6  2  0  0  0  0
  2 10  1  0  0  0  0
  2 17  1  0  0  0  0
  7  9  1  0  0  0  0
  8 10  1  0  0  0  0
 11  7  1  6  0  0  0
 11 13  1  0  0  0  0
 11 15  1  0  0  0  0
 12  8  1  1  0  0  0
 12 14  1  0  0  0  0
 12 16  1  0  0  0  0
 13 21  1  0  0  0  0
 14 22  1  0  0  0  0
 15 17  1  1  0  0  0
 15 19  1  0  0  0  0
 16 18  1  6  0  0  0
 16 20  1  0  0  0  0
 19 21  1  0  0  0  0
 20 22  1  0  0  0  0
 21 32  1  6  0  0  0
 22 42  1  1  0  0  0
 23 24  2  0  0  0  0
 23 28  1  0  0  0  0
 24 25  1  0  0  0  0
 25 26  2  0  0  0  0
 26 27  1  0  0  0  0
 26 32  1  0  0  0  0
 27 28  2  0  0  0  0
 27 30  1  0  0  0  0
 28 29  1  0  0  0  0
 30 31  2  0  0  0  0
 31 32  1  0  0  0  0
 33 34  2  0  0  0  0
 33 38  1  0  0  0  0
 34 35  1  0  0  0  0
 35 36  2  0  0  0  0
 36 37  1  0  0  0  0
 36 42  1  0  0  0  0
 37 38  2  0  0  0  0
 37 40  1  0  0  0  0
 38 39  1  0  0  0  0
 40 41  2  0  0  0  0
 41 42  1  0  0  0  0
M  CHG  2   3  -1   4  -1
M  END
>  <CHROM.1>
84.22446167,53.54934602,6.63352871,-33.64980377,-15.16883030,-0.79265717
0.46866216,3.13242997

>  <Name>
ligand

>  <RI>
0

>  <Rbt.Current_Directory>
/home/itssahil/PROJECTS/Mol_Feturizer/New_Systems/rnas/4QLN

>  <Rbt.Executable>
rbdock ($Id: //depot/dev/client3/rdock/2013.1/src/exe/rbdock.cxx#4 $)

>  <Rbt.Library>
libRbt.so (2013.1, Build901 2013/11/27)

>  <Rbt.Parameter_File>
/export/apps/rDock/src/rDock_2013.1_src/data/scripts/dock_solv.prm

>  <Rbt.Receptor>
prm/pocket_docking_4.prm

>  <SCORE>
-23.4129

>  <SCORE.INTER>
-24.0307

>  <SCORE.INTER.CONST>
1

>  <SCORE.INTER.POLAR>
0

>  <SCORE.INTER.ROT>
2

>  <SCORE.INTER.SOLV>
26.118

>  <SCORE.INTER.VDW>
-29.6598

>  <SCORE.INTER.norm>
-0.57216

>  <SCORE.INTRA>
0.617813

>  <SCORE.INTRA.DIHEDRAL>
0.000149353

>  <SCORE.INTRA.DIHEDRAL.0>
2.39985

>  <SCORE.INTRA.POLAR>
0

>  <SCORE.INTRA.POLAR.0>
0

>  <SCORE.INTRA.REPUL>
0

>  <SCORE.INTRA.REPUL.0>
0

>  <SCORE.INTRA.SOLV>
1.20583

>  <SCORE.INTRA.SOLV.lig_0>
-110.958

>  <SCORE.INTRA.VDW>
0.0148255

>  <SCORE.INTRA.VDW.0>
-2.34644

>  <SCORE.INTRA.norm>
0.0147098

>  <SCORE.RESTR>
0

>  <SCORE.RESTR.CAVITY>
0

>  <SCORE.RESTR.norm>
0

>  <SCORE.SYSTEM>
0

>  <SCORE.SYSTEM.CONST>
0

>  <SCORE.SYSTEM.DIHEDRAL>
0

>  <SCORE.SYSTEM.SOLV>
0

>  <SCORE.SYSTEM.norm>
0

>  <SCORE.heavy>
42

>  <SCORE.norm>
-0.55745

>  <RMSD>
1.933

$$$$
ligand
 OpenBabel11021811513D
libRbt.so/2013.1/901 2013/11/27
 42 48  0  0  0  0  0  0  0  0999 V2000
    9.4269  -35.4371  -15.6029 P   0  0  2  0  0  0  0  0  0  0  0  0
    5.2244  -34.3560  -13.0174 P   0  0  1  0  0  0  0  0  0  0  0  0
   10.6245  -35.9712  -14.8523 O   0  5  0  0  0  0  0  0  0  0  0  0
    4.9492  -33.6745  -14.3366 O   0  5  0  0  0  0  0  0  0  0  0  0
    9.5917  -34.9154  -17.0102 O   0  0  0  0  0  0  0  0  0  0  0  0
    4.1100  -34.5357  -12.0147 O   0  0  0  0  0  0  0  0  0  0  0  0
    9.5527  -33.4381  -13.8868 C   0  0  0  0  0  0  0  0  0  0  0  0
    5.1456  -36.7690  -14.0778 C   0  0  0  0  0  0  0  0  0  0  0  0
    8.7496  -34.2799  -14.7123 O   0  0  0  0  0  0  0  0  0  0  0  0
    5.8677  -35.8005  -13.3207 O   0  0  0  0  0  0  0  0  0  0  0  0
    8.7459  -33.0014  -12.6698 C   0  0  1  0  0  0  0  0  0  0  0  0
    6.0365  -37.3200  -15.1840 C   0  0  1  0  0  0  0  0  0  0  0  0
    9.2971  -31.7956  -12.1334 O   0  0  0  0  0  0  0  0  0  0  0  0
    5.2270  -37.8460  -16.2384 O   0  0  0  0  0  0  0  0  0  0  0  0
    7.2977  -32.7270  -13.0386 C   0  0  1  0  0  0  0  0  0  0  0  0
    6.9195  -36.2322  -15.7747 C   0  0  1  0  0  0  0  0  0  0  0  0
    6.4336  -33.5780  -12.2917 O   0  0  0  0  0  0  0  0  0  0  0  0
    8.2922  -36.5787  -15.6178 O   0  0  0  0  0  0  0  0  0  0  0  0
    7.0319  -31.2757  -12.6842 C   0  0  0  0  0  0  0  0  0  0  0  0
    6.5696  -36.1479  -17.2479 C   0  0  0  0  0  0  0  0  0  0  0  0
    8.3366  -30.7362  -12.1172 C   0  0  2  0  0  0  0  0  0  0  0  0
    5.4881  -37.1928  -17.4831 C   0  0  2  0  0  0  0  0  0  0  0  0
    8.6542  -28.7139  -16.9533 N   0  0  0  0  0  0  0  0  0  0  0  0
    8.0918  -29.8600  -16.5272 C   0  0  0  0  0  0  0  0  0  0  0  0
    8.0857  -30.2568  -15.2413 N   0  0  0  0  0  0  0  0  0  0  0  0
    8.6626  -29.4997  -14.2774 C   0  0  0  0  0  0  0  0  0  0  0  0
    9.2989  -28.2308  -14.6641 C   0  0  0  0  0  0  0  0  0  0  0  0
    9.2654  -27.8625  -16.0995 C   0  0  0  0  0  0  0  0  0  0  0  0
    9.8272  -26.7112  -16.5405 N   0  0  0  0  0  0  0  0  0  0  0  0
    9.7864  -27.6856  -13.5339 N   0  0  0  0  0  0  0  0  0  0  0  0
    9.4894  -28.5299  -12.5130 C   0  0  0  0  0  0  0  0  0  0  0  0
    8.8193  -29.6112  -12.9560 N   0  0  0  0  0  0  0  0  0  0  0  0
    1.6639  -33.7535  -16.4253 N   0  0  0  0  0  0  0  0  0  0  0  0
    2.7171  -34.1362  -15.6799 C   0  0  0  0  0  0  0  0  0  0  0  0
    3.6295  -35.0389  -16.0828 N   0  0  0  0  0  0  0  0  0  0  0  0
    3.5327  -35.6283  -17.2990 C   0  0  0  0  0  0  0  0  0  0  0  0
    2.4079  -35.2616  -18.1733 C   0  0  0  0  0  0  0  0  0  0  0  0
    1.4451  -34.2598  -17.6580 C   0  0  0  0  0  0  0  0  0  0  0  0
    0.3808  -33.8655  -18.3996 N   0  0  0  0  0  0  0  0  0  0  0  0
    2.5493  -35.9810  -19.3027 N   0  0  0  0  0  0  0  0  0  0  0  0
    3.6657  -36.7414  -19.1635 C   0  0  0  0  0  0  0  0  0  0  0  0
    4.2514  -36.5315  -17.9702 N   0  0  0  0  0  0  0  0  0  0  0  0
  1  3  1  1  0  0  0
  1  5  2  0  0  0  0
  1  9  1  0  0  0  0
  1 18  1  0  0  0  0
  2  4  1  6  0  0  0
  2  6  2  0  0  0  0
  2 10  1  0  0  0  0
  2 17  1  0  0  0  0
  7  9  1  0  0  0  0
  8 10  1  0  0  0  0
 11  7  1  6  0  0  0
 11 13  1  0  0  0  0
 11 15  1  0  0  0  0
 12  8  1  1  0  0  0
 12 14  1  0  0  0  0
 12 16  1  0  0  0  0
 13 21  1  0  0  0  0
 14 22  1  0  0  0  0
 15 17  1  1  0  0  0
 15 19  1  0  0  0  0
 16 18  1  6  0  0  0
 16 20  1  0  0  0  0
 19 21  1  0  0  0  0
 20 22  1  0  0  0  0
 21 32  1  6  0  0  0
 22 42  1  1  0  0  0
 23 24  2  0  0  0  0
 23 28  1  0  0  0  0
 24 25  1  0  0  0  0
 25 26  2  0  0  0  0
 26 27  1  0  0  0  0
 26 32  1  0  0  0  0
 27 28  2  0  0  0  0
 27 30  1  0  0  0  0
 28 29  1  0  0  0  0
 30 31  2  0  0  0  0
 31 32  1  0  0  0  0
 33 34  2  0  0  0  0
 33 38  1  0  0  0  0
 34 35  1  0  0  0  0
 35 36  2  0  0  0  0
 36 37  1  0  0  0  0
 36 42  1  0  0  0  0
 37 38  2  0  0  0  0
 37 40  1  0  0  0  0
 38 39  1  0  0  0  0
 40 41  2  0  0  0  0
 41 42  1  0  0  0  0
M  CHG  2   3  -1   4  -1
M  END
>  <CHROM.1>
84.94362843,56.28921810,6.63521987,-33.54188840,-15.14955500,-0.78850206
0.51161461,3.10132603

>  <Name>
ligand

>  <RI>
0

>  <Rbt.Current_Directory>
/home/itssahil/PROJECTS/Mol_Feturizer/New_Systems/rnas/4QLN

>  <Rbt.Executable>
rbdock ($Id: //depot/dev/client3/rdock/2013.1/src/exe/rbdock.cxx#4 $)

>  <Rbt.Library>
libRbt.so (2013.1, Build901 2013/11/27)

>  <Rbt.Parameter_File>
/export/apps/rDock/src/rDock_2013.1_src/data/scripts/dock_solv.prm

>  <Rbt.Receptor>
prm/pocket_docking_6.prm

>  <SCORE>
-23.3301

>  <SCORE.INTER>
-24.2974

>  <SCORE.INTER.CONST>
1

>  <SCORE.INTER.POLAR>
0

>  <SCORE.INTER.ROT>
2

>  <SCORE.INTER.SOLV>
26.8402

>  <SCORE.INTER.VDW>
-30.0784

>  <SCORE.INTER.norm>
-0.57851

>  <SCORE.INTRA>
0.967286

>  <SCORE.INTRA.DIHEDRAL>
0.000256159

>  <SCORE.INTRA.DIHEDRAL.0>
2.39985

>  <SCORE.INTRA.POLAR>
0

>  <SCORE.INTRA.POLAR.0>
0

>  <SCORE.INTRA.REPUL>
0

>  <SCORE.INTRA.REPUL.0>
0

>  <SCORE.INTRA.SOLV>
1.23643

>  <SCORE.INTRA.SOLV.lig_0>
-110.958

>  <SCORE.INTRA.VDW>
0.348941

>  <SCORE.INTRA.VDW.0>
-2.34644

>  <SCORE.INTRA.norm>
0.0230306

>  <SCORE.RESTR>
0

>  <SCORE.RESTR.CAVITY>
0

>  <SCORE.RESTR.norm>
0

>  <SCORE.SYSTEM>
0

>  <SCORE.SYSTEM.CONST>
0

>  <SCORE.SYSTEM.DIHEDRAL>
0

>  <SCORE.SYSTEM.SOLV>
0

>  <SCORE.SYSTEM.norm>
0

>  <SCORE.heavy>
42

>  <SCORE.norm>
-0.55548

>  <RMSD>
1.949

$$$$
ligand
 OpenBabel11021811513D
libRbt.so/2013.1/901 2013/11/27
 42 48  0  0  0  0  0  0  0  0999 V2000
    9.4716  -35.4323  -15.7818 P   0  0  2  0  0  0  0  0  0  0  0  0
    5.3406  -34.4809  -13.0351 P   0  0  1  0  0  0  0  0  0  0  0  0
   10.6985  -35.9733  -15.0852 O   0  5  0  0  0  0  0  0  0  0  0  0
    5.0160  -33.7642  -14.3241 O   0  5  0  0  0  0  0  0  0  0  0  0
    9.5858  -34.8672  -17.1773 O   0  0  0  0  0  0  0  0  0  0  0  0
    4.2606  -34.7041  -12.0040 O   0  0  0  0  0  0  0  0  0  0  0  0
    9.6284  -33.4834  -14.0114 C   0  0  0  0  0  0  0  0  0  0  0  0
    5.2564  -36.8623  -14.1642 C   0  0  0  0  0  0  0  0  0  0  0  0
    8.8094  -34.3105  -14.8362 O   0  0  0  0  0  0  0  0  0  0  0  0
    5.9908  -35.9076  -13.4015 O   0  0  0  0  0  0  0  0  0  0  0  0
    8.8553  -33.0930  -12.7574 C   0  0  1  0  0  0  0  0  0  0  0  0
    6.1183  -37.3691  -15.3138 C   0  0  1  0  0  0  0  0  0  0  0  0
    9.4092  -31.8968  -12.2025 O   0  0  0  0  0  0  0  0  0  0  0  0
    5.2820  -37.8739  -16.3576 O   0  0  0  0  0  0  0  0  0  0  0  0
    7.3932  -32.8261  -13.0724 C   0  0  1  0  0  0  0  0  0  0  0  0
    6.9694  -36.2535  -15.8989 C   0  0  1  0  0  0  0  0  0  0  0  0
    6.5630  -33.7095  -12.3246 O   0  0  0  0  0  0  0  0  0  0  0  0
    8.3504  -36.5872  -15.7954 O   0  0  0  0  0  0  0  0  0  0  0  0
    7.1218  -31.3894  -12.6665 C   0  0  0  0  0  0  0  0  0  0  0  0
    6.5723  -36.1301  -17.3573 C   0  0  0  0  0  0  0  0  0  0  0  0
    8.4374  -30.8504  -12.1247 C   0  0  2  0  0  0  0  0  0  0  0  0
    5.4961  -37.1810  -17.5898 C   0  0  2  0  0  0  0  0  0  0  0  0
    8.6090  -28.6986  -16.9120 N   0  0  0  0  0  0  0  0  0  0  0  0
    8.0776  -29.8657  -16.5038 C   0  0  0  0  0  0  0  0  0  0  0  0
    8.1078  -30.2955  -15.2289 N   0  0  0  0  0  0  0  0  0  0  0  0
    8.6920  -29.5527  -14.2584 C   0  0  0  0  0  0  0  0  0  0  0  0
    9.2959  -28.2623  -14.6256 C   0  0  0  0  0  0  0  0  0  0  0  0
    9.2233  -27.8579  -16.0498 C   0  0  0  0  0  0  0  0  0  0  0  0
    9.7538  -26.6851  -16.4727 N   0  0  0  0  0  0  0  0  0  0  0  0
    9.7985  -27.7373  -13.4925 N   0  0  0  0  0  0  0  0  0  0  0  0
    9.5401  -28.6131  -12.4878 C   0  0  0  0  0  0  0  0  0  0  0  0
    8.8803  -29.6952  -12.9441 N   0  0  0  0  0  0  0  0  0  0  0  0
    1.7381  -33.7238  -16.3659 N   0  0  0  0  0  0  0  0  0  0  0  0
    2.8278  -34.1024  -15.6726 C   0  0  0  0  0  0  0  0  0  0  0  0
    3.7165  -35.0107  -16.1143 N   0  0  0  0  0  0  0  0  0  0  0  0
    3.5557  -35.6105  -17.3186 C   0  0  0  0  0  0  0  0  0  0  0  0
    2.3878  -35.2490  -18.1367 C   0  0  0  0  0  0  0  0  0  0  0  0
    1.4548  -34.2404  -17.5811 C   0  0  0  0  0  0  0  0  0  0  0  0
    0.3542  -33.8503  -18.2700 N   0  0  0  0  0  0  0  0  0  0  0  0
    2.4692  -35.9785  -19.2654 N   0  0  0  0  0  0  0  0  0  0  0  0
    3.5899  -36.7402  -19.1774 C   0  0  0  0  0  0  0  0  0  0  0  0
    4.2370  -36.5212  -18.0180 N   0  0  0  0  0  0  0  0  0  0  0  0
  1  3  1  1  0  0  0
  1  5  2  0  0  0  0
  1  9  1  0  0  0  0
  1 18  1  0  0  0  0
  2  4  1  6  0  0  0
  2  6  2  0  0  0  0
  2 10  1  0  0  0  0
  2 17  1  0  0  0  0
  7  9  1  0  0  0  0
  8 10  1  0  0  0  0
 11  7  1  6  0  0  0
 11 13  1  0  0  0  0
 11 15  1  0  0  0  0
 12  8  1  1  0  0  0
 12 14  1  0  0  0  0
 12 16  1  0  0  0  0
 13 21  1  0  0  0  0
 14 22  1  0  0  0  0
 15 17  1  1  0  0  0
 15 19  1  0  0  0  0
 16 18  1  6  0  0  0
 16 20  1  0  0  0  0
 19 21  1  0  0  0  0
 20 22  1  0  0  0  0
 21 32  1  6  0  0  0
 22 42  1  1  0  0  0
 23 24  2  0  0  0  0
 23 28  1  0  0  0  0
 24 25  1  0  0  0  0
 25 26  2  0  0  0  0
 26 27  1  0  0  0  0
 26 32  1  0  0  0  0
 27 28  2  0  0  0  0
 27 30  1  0  0  0  0
 28 29  1  0  0  0  0
 30 31  2  0  0  0  0
 31 32  1  0  0  0  0
 33 34  2  0  0  0  0
 33 38  1  0  0  0  0
 34 35  1  0  0  0  0
 35 36  2  0  0  0  0
 36 37  1  0  0  0  0
 36 42  1  0  0  0  0
 37 38  2  0  0  0  0
 37 40  1  0  0  0  0
 38 39  1  0  0  0  0
 40 41  2  0  0  0  0
 41 42  1  0  0  0  0
M  CHG  2   3  -1   4  -1
M  END
>  <CHROM.1>
84.25600430,58.91679718,6.68214074,-33.57971866,-15.19006336,-0.80097424
0.48883338,3.13283830

>  <Name>
ligand

>  <RI>
0

>  <Rbt.Current_Directory>
/home/itssahil/PROJECTS/Mol_Feturizer/New_Systems/rnas/4QLN

>  <Rbt.Executable>
rbdock ($Id: //depot/dev/client3/rdock/2013.1/src/exe/rbdock.cxx#4 $)

>  <Rbt.Library>
libRbt.so (2013.1, Build901 2013/11/27)

>  <Rbt.Parameter_File>
/export/apps/rDock/src/rDock_2013.1_src/data/scripts/dock_solv.prm

>  <Rbt.Receptor>
prm/pocket_docking_3.prm

>  <SCORE>
-23.2985

>  <SCORE.INTER>
-24.607

>  <SCORE.INTER.CONST>
1

>  <SCORE.INTER.POLAR>
0

>  <SCORE.INTER.ROT>
2

>  <SCORE.INTER.SOLV>
26.7944

>  <SCORE.INTER.VDW>
-30.2695

>  <SCORE.INTER.norm>
-0.58588

>  <SCORE.INTRA>
1.30847

>  <SCORE.INTRA.DIHEDRAL>
0.000356153

>  <SCORE.INTRA.DIHEDRAL.0>
2.39985

>  <SCORE.INTRA.POLAR>
0

>  <SCORE.INTRA.POLAR.0>
0

>  <SCORE.INTRA.REPUL>
0

>  <SCORE.INTRA.REPUL.0>
0

>  <SCORE.INTRA.SOLV>
1.25213

>  <SCORE.INTRA.SOLV.lig_0>
-110.958

>  <SCORE.INTRA.VDW>
0.68223

>  <SCORE.INTRA.VDW.0>
-2.34644

>  <SCORE.INTRA.norm>
0.0311541

>  <SCORE.RESTR>
0

>  <SCORE.RESTR.CAVITY>
0

>  <SCORE.RESTR.norm>
0

>  <SCORE.SYSTEM>
0

>  <SCORE.SYSTEM.CONST>
0

>  <SCORE.SYSTEM.DIHEDRAL>
0

>  <SCORE.SYSTEM.SOLV>
0

>  <SCORE.SYSTEM.norm>
0

>  <SCORE.heavy>
42

>  <SCORE.norm>
-0.554726

>  <RMSD>
1.950

$$$$
ligand
 OpenBabel11021811513D
libRbt.so/2013.1/901 2013/11/27
 42 48  0  0  0  0  0  0  0  0999 V2000
    9.5069  -35.3748  -15.6855 P   0  0  2  0  0  0  0  0  0  0  0  0
    5.3329  -34.3789  -13.0207 P   0  0  1  0  0  0  0  0  0  0  0  0
   10.7244  -35.8984  -14.9599 O   0  5  0  0  0  0  0  0  0  0  0  0
    5.0261  -33.6892  -14.3286 O   0  5  0  0  0  0  0  0  0  0  0  0
    9.6407  -34.8376  -17.0903 O   0  0  0  0  0  0  0  0  0  0  0  0
    4.2381  -34.5840  -12.0015 O   0  0  0  0  0  0  0  0  0  0  0  0
    9.6326  -33.3902  -13.9527 C   0  0  0  0  0  0  0  0  0  0  0  0
    5.2711  -36.7828  -14.1027 C   0  0  0  0  0  0  0  0  0  0  0  0
    8.8280  -34.2359  -14.7728 O   0  0  0  0  0  0  0  0  0  0  0  0
    5.9918  -35.8110  -13.3484 O   0  0  0  0  0  0  0  0  0  0  0  0
    8.8399  -32.9766  -12.7185 C   0  0  1  0  0  0  0  0  0  0  0  0
    6.1514  -37.3104  -15.2287 C   0  0  1  0  0  0  0  0  0  0  0  0
    9.3826  -31.7680  -12.1797 O   0  0  0  0  0  0  0  0  0  0  0  0
    5.3320  -37.8383  -16.2745 O   0  0  0  0  0  0  0  0  0  0  0  0
    7.3820  -32.7198  -13.0607 C   0  0  1  0  0  0  0  0  0  0  0  0
    7.0086  -36.2046  -15.8235 C   0  0  1  0  0  0  0  0  0  0  0  0
    6.5427  -33.5902  -12.3077 O   0  0  0  0  0  0  0  0  0  0  0  0
    8.3887  -36.5325  -15.6925 O   0  0  0  0  0  0  0  0  0  0  0  0
    7.1013  -31.2759  -12.6880 C   0  0  0  0  0  0  0  0  0  0  0  0
    6.6331  -36.1116  -17.2898 C   0  0  0  0  0  0  0  0  0  0  0  0
    8.4074  -30.7228  -12.1375 C   0  0  2  0  0  0  0  0  0  0  0  0
    5.5630  -37.1698  -17.5171 C   0  0  2  0  0  0  0  0  0  0  0  0
    8.6212  -28.6543  -16.9598 N   0  0  0  0  0  0  0  0  0  0  0  0
    8.0832  -29.8127  -16.5355 C   0  0  0  0  0  0  0  0  0  0  0  0
    8.1025  -30.2206  -15.2532 N   0  0  0  0  0  0  0  0  0  0  0  0
    8.6818  -29.4628  -14.2913 C   0  0  0  0  0  0  0  0  0  0  0  0
    9.2923  -28.1807  -14.6762 C   0  0  0  0  0  0  0  0  0  0  0  0
    9.2316  -27.8007  -16.1076 C   0  0  0  0  0  0  0  0  0  0  0  0
    9.7687  -26.6369  -16.5467 N   0  0  0  0  0  0  0  0  0  0  0  0
    9.7880  -27.6377  -13.5485 N   0  0  0  0  0  0  0  0  0  0  0  0
    9.5195  -28.4953  -12.5309 C   0  0  0  0  0  0  0  0  0  0  0  0
    8.8599  -29.5831  -12.9734 N   0  0  0  0  0  0  0  0  0  0  0  0
    1.7172  -33.7835  -16.3705 N   0  0  0  0  0  0  0  0  0  0  0  0
    2.7892  -34.1562  -15.6471 C   0  0  0  0  0  0  0  0  0  0  0  0
    3.7049  -35.0455  -16.0716 N   0  0  0  0  0  0  0  0  0  0  0  0
    3.5921  -35.6309  -17.2884 C   0  0  0  0  0  0  0  0  0  0  0  0
    2.4462  -35.2746  -18.1393 C   0  0  0  0  0  0  0  0  0  0  0  0
    1.4810  -34.2872  -17.6011 C   0  0  0  0  0  0  0  0  0  0  0  0
    0.3978  -33.9032  -18.3203 N   0  0  0  0  0  0  0  0  0  0  0  0
    2.5748  -35.9873  -19.2744 N   0  0  0  0  0  0  0  0  0  0  0  0
    3.7031  -36.7342  -19.1601 C   0  0  0  0  0  0  0  0  0  0  0  0
    4.3089  -36.5221  -17.9773 N   0  0  0  0  0  0  0  0  0  0  0  0
  1  3  1  1  0  0  0
  1  5  2  0  0  0  0
  1  9  1  0  0  0  0
  1 18  1  0  0  0  0
  2  4  1  6  0  0  0
  2  6  2  0  0  0  0
  2 10  1  0  0  0  0
  2 17  1  0  0  0  0
  7  9  1  0  0  0  0
  8 10  1  0  0  0  0
 11  7  1  6  0  0  0
 11 13  1  0  0  0  0
 11 15  1  0  0  0  0
 12  8  1  1  0  0  0
 12 14  1  0  0  0  0
 12 16  1  0  0  0  0
 13 21  1  0  0  0  0
 14 22  1  0  0  0  0
 15 17  1  1  0  0  0
 15 19  1  0  0  0  0
 16 18  1  6  0  0  0
 16 20  1  0  0  0  0
 19 21  1  0  0  0  0
 20 22  1  0  0  0  0
 21 32  1  6  0  0  0
 22 42  1  1  0  0  0
 23 24  2  0  0  0  0
 23 28  1  0  0  0  0
 24 25  1  0  0  0  0
 25 26  2  0  0  0  0
 26 27  1  0  0  0  0
 26 32  1  0  0  0  0
 27 28  2  0  0  0  0
 27 30  1  0  0  0  0
 28 29  1  0  0  0  0
 30 31  2  0  0  0  0
 31 32  1  0  0  0  0
 33 34  2  0  0  0  0
 33 38  1  0  0  0  0
 34 35  1  0  0  0  0
 35 36  2  0  0  0  0
 36 37  1  0  0  0  0
 36 42  1  0  0  0  0
 37 38  2  0  0  0  0
 37 40  1  0  0  0  0
 38 39  1  0  0  0  0
 40 41  2  0  0  0  0
 41 42  1  0  0  0  0
M  CHG  2   3  -1   4  -1
M  END
>  <CHROM.1>
84.81290709,56.63096901,6.69747522,-33.52375752,-15.16869793,-0.80525607
0.49650244,3.11834802

>  <Name>
ligand

>  <RI>
0

>  <Rbt.Current_Directory>
/home/itssahil/PROJECTS/Mol_Feturizer/New_Systems/rnas/4QLN

>  <Rbt.Executable>
rbdock ($Id: //depot/dev/client3/rdock/2013.1/src/exe/rbdock.cxx#4 $)

>  <Rbt.Library>
libRbt.so (2013.1, Build901 2013/11/27)

>  <Rbt.Parameter_File>
/export/apps/rDock/src/rDock_2013.1_src/data/scripts/dock_solv.prm

>  <Rbt.Receptor>
prm/pocket_docking_3.prm

>  <SCORE>
-23.3943

>  <SCORE.INTER>
-24.3991

>  <SCORE.INTER.CONST>
1

>  <SCORE.INTER.POLAR>
0

>  <SCORE.INTER.ROT>
2

>  <SCORE.INTER.SOLV>
26.7444

>  <SCORE.INTER.VDW>
-30.1142

>  <SCORE.INTER.norm>
-0.580932

>  <SCORE.INTRA>
1.0048

>  <SCORE.INTRA.DIHEDRAL>
0.000268917

>  <SCORE.INTRA.DIHEDRAL.0>
2.39985

>  <SCORE.INTRA.POLAR>
0

>  <SCORE.INTRA.POLAR.0>
0

>  <SCORE.INTRA.REPUL>
0

>  <SCORE.INTRA.REPUL.0>
0

>  <SCORE.INTRA.SOLV>
1.23941

>  <SCORE.INTRA.SOLV.lig_0>
-110.958

>  <SCORE.INTRA.VDW>
0.384962

>  <SCORE.INTRA.VDW.0>
-2.34644

>  <SCORE.INTRA.norm>
0.0239239

>  <SCORE.RESTR>
0

>  <SCORE.RESTR.CAVITY>
0

>  <SCORE.RESTR.norm>
0

>  <SCORE.SYSTEM>
0

>  <SCORE.SYSTEM.CONST>
0

>  <SCORE.SYSTEM.DIHEDRAL>
0

>  <SCORE.SYSTEM.SOLV>
0

>  <SCORE.SYSTEM.norm>
0

>  <SCORE.heavy>
42

>  <SCORE.norm>
-0.557008

>  <RMSD>
1.980

$$$$
ligand
 OpenBabel11021811513D
libRbt.so/2013.1/901 2013/11/27
 42 48  0  0  0  0  0  0  0  0999 V2000
    3.6843  -35.9470  -12.9624 P   0  0  2  0  0  0  0  0  0  0  0  0
    7.5577  -35.9071  -16.2042 P   0  0  1  0  0  0  0  0  0  0  0  0
    3.2122  -37.2721  -12.4109 O   0  5  0  0  0  0  0  0  0  0  0  0
    7.0059  -34.5123  -16.3783 O   0  5  0  0  0  0  0  0  0  0  0  0
    2.8130  -34.7214  -12.8264 O   0  0  0  0  0  0  0  0  0  0  0  0
    8.9080  -36.2610  -16.7796 O   0  0  0  0  0  0  0  0  0  0  0  0
    3.2916  -37.0675  -15.3177 C   0  0  0  0  0  0  0  0  0  0  0  0
    8.3322  -35.4519  -13.7250 C   0  0  0  0  0  0  0  0  0  0  0  0
    4.0343  -36.1464  -14.5208 O   0  0  0  0  0  0  0  0  0  0  0  0
    7.5742  -36.2501  -14.6311 O   0  0  0  0  0  0  0  0  0  0  0  0
    4.1886  -37.6279  -16.4149 C   0  0  1  0  0  0  0  0  0  0  0  0
    7.4572  -35.0494  -12.5445 C   0  0  1  0  0  0  0  0  0  0  0  0
    3.3851  -38.1078  -17.4963 O   0  0  0  0  0  0  0  0  0  0  0  0
    7.9813  -33.8663  -11.9368 O   0  0  0  0  0  0  0  0  0  0  0  0
    5.1189  -36.5600  -16.9648 C   0  0  1  0  0  0  0  0  0  0  0  0
    6.0338  -34.7521  -12.9886 C   0  0  1  0  0  0  0  0  0  0  0  0
    6.4759  -36.9518  -16.7805 O   0  0  0  0  0  0  0  0  0  0  0  0
    5.1223  -35.6176  -12.3185 O   0  0  0  0  0  0  0  0  0  0  0  0
    4.8086  -36.4412  -18.4454 C   0  0  0  0  0  0  0  0  0  0  0  0
    5.7574  -33.3104  -12.6079 C   0  0  0  0  0  0  0  0  0  0  0  0
    3.6995  -37.4448  -18.7238 C   0  0  2  0  0  0  0  0  0  0  0  0
    7.0298  -32.7993  -11.9472 C   0  0  2  0  0  0  0  0  0  0  0  0
    0.5270  -33.2938  -18.1915 N   0  0  0  0  0  0  0  0  0  0  0  0
    1.6199  -33.6464  -17.4897 C   0  0  0  0  0  0  0  0  0  0  0  0
    2.3446  -34.7524  -17.7401 N   0  0  0  0  0  0  0  0  0  0  0  0
    2.0023  -35.5953  -18.7438 C   0  0  0  0  0  0  0  0  0  0  0  0
    0.8185  -35.2781  -19.5579 C   0  0  0  0  0  0  0  0  0  0  0  0
    0.0716  -34.0431  -19.2205 C   0  0  0  0  0  0  0  0  0  0  0  0
   -1.0294  -33.6772  -19.9201 N   0  0  0  0  0  0  0  0  0  0  0  0
    0.7048  -36.2620  -20.4697 N   0  0  0  0  0  0  0  0  0  0  0  0
    1.7249  -37.1328  -20.2590 C   0  0  0  0  0  0  0  0  0  0  0  0
    2.4985  -36.7355  -19.2305 N   0  0  0  0  0  0  0  0  0  0  0  0
   10.2197  -31.2640  -15.8253 N   0  0  0  0  0  0  0  0  0  0  0  0
    9.9549  -32.4977  -15.3568 C   0  0  0  0  0  0  0  0  0  0  0  0
    9.1047  -32.7462  -14.3444 N   0  0  0  0  0  0  0  0  0  0  0  0
    8.4496  -31.7352  -13.7240 C   0  0  0  0  0  0  0  0  0  0  0  0
    8.6861  -30.3566  -14.1796 C   0  0  0  0  0  0  0  0  0  0  0  0
    9.6366  -30.1649  -15.3004 C   0  0  0  0  0  0  0  0  0  0  0  0
    9.9110  -28.9275  -15.7817 N   0  0  0  0  0  0  0  0  0  0  0  0
    7.9227  -29.5609  -13.4071 N   0  0  0  0  0  0  0  0  0  0  0  0
    7.2567  -30.3594  -12.5338 C   0  0  0  0  0  0  0  0  0  0  0  0
    7.5706  -31.6543  -12.7223 N   0  0  0  0  0  0  0  0  0  0  0  0
  1  3  1  1  0  0  0
  1  5  2  0  0  0  0
  1  9  1  0  0  0  0
  1 18  1  0  0  0  0
  2  4  1  6  0  0  0
  2  6  2  0  0  0  0
  2 10  1  0  0  0  0
  2 17  1  0  0  0  0
  7  9  1  0  0  0  0
  8 10  1  0  0  0  0
 11  7  1  1  0  0  0
 11 13  1  0  0  0  0
 11 15  1  0  0  0  0
 12  8  1  6  0  0  0
 12 14  1  0  0  0  0
 12 16  1  0  0  0  0
 13 21  1  0  0  0  0
 14 22  1  0  0  0  0
 15 17  1  6  0  0  0
 15 19  1  0  0  0  0
 16 18  1  1  0  0  0
 16 20  1  0  0  0  0
 19 21  1  0  0  0  0
 20 22  1  0  0  0  0
 21 32  1  1  0  0  0
 22 42  1  6  0  0  0
 23 24  2  0  0  0  0
 23 28  1  0  0  0  0
 24 25  1  0  0  0  0
 25 26  2  0  0  0  0
 26 27  1  0  0  0  0
 26 32  1  0  0  0  0
 27 28  2  0  0  0  0
 27 30  1  0  0  0  0
 28 29  1  0  0  0  0
 30 31  2  0  0  0  0
 31 32  1  0  0  0  0
 33 34  2  0  0  0  0
 33 38  1  0  0  0  0
 34 35  1  0  0  0  0
 35 36  2  0  0  0  0
 36 37  1  0  0  0  0
 36 42  1  0  0  0  0
 37 38  2  0  0  0  0
 37 40  1  0  0  0  0
 38 39  1  0  0  0  0
 40 41  2  0  0  0  0
 41 42  1  0  0  0  0
M  CHG  2   3  -1   4  -1
M  END
>  <CHROM.1>
75.17669402,27.89797698,5.35500265,-34.63219057,-15.56936219,3.01497772,-0.72112709
-0.86717946

>  <Name>
ligand

>  <RI>
0

>  <Rbt.Current_Directory>
/home/itssahil/PROJECTS/Mol_Feturizer/New_Systems/rnas/4QLN

>  <Rbt.Executable>
rbdock ($Id: //depot/dev/client3/rdock/2013.1/src/exe/rbdock.cxx#4 $)

>  <Rbt.Library>
libRbt.so (2013.1, Build901 2013/11/27)

>  <Rbt.Parameter_File>
/export/apps/rDock/src/rDock_2013.1_src/data/scripts/dock_solv.prm

>  <Rbt.Receptor>
prm/pocket_docking_6.prm

>  <SCORE>
-23.5991

>  <SCORE.INTER>
-23.3782

>  <SCORE.INTER.CONST>
1

>  <SCORE.INTER.POLAR>
0

>  <SCORE.INTER.ROT>
2

>  <SCORE.INTER.SOLV>
25.7001

>  <SCORE.INTER.VDW>
-29.0855

>  <SCORE.INTER.norm>
-0.556624

>  <SCORE.INTRA>
-0.220887

>  <SCORE.INTRA.DIHEDRAL>
-0.000411809

>  <SCORE.INTRA.DIHEDRAL.0>
2.39985

>  <SCORE.INTRA.POLAR>
0

>  <SCORE.INTRA.POLAR.0>
0

>  <SCORE.INTRA.REPUL>
0

>  <SCORE.INTRA.REPUL.0>
0

>  <SCORE.INTRA.SOLV>
0.338838

>  <SCORE.INTRA.SOLV.lig_0>
-110.958

>  <SCORE.INTRA.VDW>
-0.3901

>  <SCORE.INTRA.VDW.0>
-2.34644

>  <SCORE.INTRA.norm>
-0.00525922

>  <SCORE.RESTR>
0

>  <SCORE.RESTR.CAVITY>
0

>  <SCORE.RESTR.norm>
0

>  <SCORE.SYSTEM>
0

>  <SCORE.SYSTEM.CONST>
0

>  <SCORE.SYSTEM.DIHEDRAL>
0

>  <SCORE.SYSTEM.SOLV>
0

>  <SCORE.SYSTEM.norm>
0

>  <SCORE.heavy>
42

>  <SCORE.norm>
-0.561884

>  <RMSD>
1.984

$$$$
ligand
 OpenBabel11021811513D
libRbt.so/2013.1/901 2013/11/27
 42 48  0  0  0  0  0  0  0  0999 V2000
    3.6905  -35.9855  -12.9961 P   0  0  2  0  0  0  0  0  0  0  0  0
    7.5466  -35.9430  -16.2584 P   0  0  1  0  0  0  0  0  0  0  0  0
    3.2224  -37.3108  -12.4417 O   0  5  0  0  0  0  0  0  0  0  0  0
    6.9926  -34.5487  -16.4298 O   0  5  0  0  0  0  0  0  0  0  0  0
    2.8188  -34.7605  -12.8557 O   0  0  0  0  0  0  0  0  0  0  0  0
    8.8941  -36.2958  -16.8408 O   0  0  0  0  0  0  0  0  0  0  0  0
    3.2861  -37.1068  -15.3490 C   0  0  0  0  0  0  0  0  0  0  0  0
    8.3338  -35.4865  -13.7835 C   0  0  0  0  0  0  0  0  0  0  0  0
    4.0323  -36.1849  -14.5563 O   0  0  0  0  0  0  0  0  0  0  0  0
    7.5717  -36.2856  -14.6853 O   0  0  0  0  0  0  0  0  0  0  0  0
    4.1778  -37.6667  -16.4508 C   0  0  1  0  0  0  0  0  0  0  0  0
    7.4647  -35.0846  -12.5984 C   0  0  1  0  0  0  0  0  0  0  0  0
    3.3690  -38.1475  -17.5279 O   0  0  0  0  0  0  0  0  0  0  0  0
    7.9911  -33.9008  -11.9938 O   0  0  0  0  0  0  0  0  0  0  0  0
    5.1043  -36.5981  -17.0059 C   0  0  1  0  0  0  0  0  0  0  0  0
    6.0388  -34.7885  -13.0350 C   0  0  1  0  0  0  0  0  0  0  0  0
    6.4625  -36.9887  -16.8287 O   0  0  0  0  0  0  0  0  0  0  0  0
    5.1315  -35.6547  -12.3599 O   0  0  0  0  0  0  0  0  0  0  0  0
    4.7860  -36.4799  -18.4849 C   0  0  0  0  0  0  0  0  0  0  0  0
    5.7632  -33.3470  -12.6531 C   0  0  0  0  0  0  0  0  0  0  0  0
    3.6763  -37.4845  -18.7572 C   0  0  2  0  0  0  0  0  0  0  0  0
    7.0386  -32.8346  -11.9993 C   0  0  2  0  0  0  0  0  0  0  0  0
    0.4584  -33.3776  -18.1599 N   0  0  0  0  0  0  0  0  0  0  0  0
    1.5495  -33.7344  -17.4574 C   0  0  0  0  0  0  0  0  0  0  0  0
    2.2871  -34.8275  -17.7261 N   0  0  0  0  0  0  0  0  0  0  0  0
    1.9608  -35.6519  -18.7502 C   0  0  0  0  0  0  0  0  0  0  0  0
    0.7799  -35.3289  -19.5664 C   0  0  0  0  0  0  0  0  0  0  0  0
    0.0182  -34.1089  -19.2081 C   0  0  0  0  0  0  0  0  0  0  0  0
   -1.0812  -33.7389  -19.9081 N   0  0  0  0  0  0  0  0  0  0  0  0
    0.6830  -36.2940  -20.5000 N   0  0  0  0  0  0  0  0  0  0  0  0
    1.7101  -37.1590  -20.3004 C   0  0  0  0  0  0  0  0  0  0  0  0
    2.4720  -36.7763  -19.2576 N   0  0  0  0  0  0  0  0  0  0  0  0
   10.3222  -31.2812  -15.7910 N   0  0  0  0  0  0  0  0  0  0  0  0
   10.0759  -32.5129  -15.3075 C   0  0  0  0  0  0  0  0  0  0  0  0
    9.1969  -32.7667  -14.3213 N   0  0  0  0  0  0  0  0  0  0  0  0
    8.4911  -31.7637  -13.7453 C   0  0  0  0  0  0  0  0  0  0  0  0
    8.7045  -30.3877  -14.2199 C   0  0  0  0  0  0  0  0  0  0  0  0
    9.6892  -30.1897  -15.3096 C   0  0  0  0  0  0  0  0  0  0  0  0
    9.9455  -28.9543  -15.8056 N   0  0  0  0  0  0  0  0  0  0  0  0
    7.8911  -29.6000  -13.4915 N   0  0  0  0  0  0  0  0  0  0  0  0
    7.2169  -30.4008  -12.6266 C   0  0  0  0  0  0  0  0  0  0  0  0
    7.5742  -31.6894  -12.7776 N   0  0  0  0  0  0  0  0  0  0  0  0
  1  3  1  1  0  0  0
  1  5  2  0  0  0  0
  1  9  1  0  0  0  0
  1 18  1  0  0  0  0
  2  4  1  6  0  0  0
  2  6  2  0  0  0  0
  2 10  1  0  0  0  0
  2 17  1  0  0  0  0
  7  9  1  0  0  0  0
  8 10  1  0  0  0  0
 11  7  1  1  0  0  0
 11 13  1  0  0  0  0
 11 15  1  0  0  0  0
 12  8  1  6  0  0  0
 12 14  1  0  0  0  0
 12 16  1  0  0  0  0
 13 21  1  0  0  0  0
 14 22  1  0  0  0  0
 15 17  1  6  0  0  0
 15 19  1  0  0  0  0
 16 18  1  1  0  0  0
 16 20  1  0  0  0  0
 19 21  1  0  0  0  0
 20 22  1  0  0  0  0
 21 32  1  1  0  0  0
 22 42  1  6  0  0  0
 23 24  2  0  0  0  0
 23 28  1  0  0  0  0
 24 25  1  0  0  0  0
 25 26  2  0  0  0  0
 26 27  1  0  0  0  0
 26 32  1  0  0  0  0
 27 28  2  0  0  0  0
 27 30  1  0  0  0  0
 28 29  1  0  0  0  0
 30 31  2  0  0  0  0
 31 32  1  0  0  0  0
 33 34  2  0  0  0  0
 33 38  1  0  0  0  0
 34 35  1  0  0  0  0
 35 36  2  0  0  0  0
 36 37  1  0  0  0  0
 36 42  1  0  0  0  0
 37 38  2  0  0  0  0
 37 40  1  0  0  0  0
 38 39  1  0  0  0  0
 40 41  2  0  0  0  0
 41 42  1  0  0  0  0
M  CHG  2   3  -1   4  -1
M  END
>  <CHROM.1>
73.63472042,24.82284102,5.35196180,-34.67185058,-15.59961084,3.01940681,-0.71419355
-0.87028152

>  <Name>
ligand

>  <RI>
0

>  <Rbt.Current_Directory>
/home/itssahil/PROJECTS/Mol_Feturizer/New_Systems/rnas/4QLN

>  <Rbt.Executable>
rbdock ($Id: //depot/dev/client3/rdock/2013.1/src/exe/rbdock.cxx#4 $)

>  <Rbt.Library>
libRbt.so (2013.1, Build901 2013/11/27)

>  <Rbt.Parameter_File>
/export/apps/rDock/src/rDock_2013.1_src/data/scripts/dock_solv.prm

>  <Rbt.Receptor>
prm/pocket_docking_5.prm

>  <SCORE>
-23.2357

>  <SCORE.INTER>
-23.0022

>  <SCORE.INTER.CONST>
1

>  <SCORE.INTER.POLAR>
0

>  <SCORE.INTER.ROT>
2

>  <SCORE.INTER.SOLV>
25.8488

>  <SCORE.INTER.VDW>
-28.8844

>  <SCORE.INTER.norm>
-0.547672

>  <SCORE.INTRA>
-0.255846

>  <SCORE.INTRA.DIHEDRAL>
-0.000404202

>  <SCORE.INTRA.DIHEDRAL.0>
2.39985

>  <SCORE.INTRA.POLAR>
0

>  <SCORE.INTRA.POLAR.0>
0

>  <SCORE.INTRA.REPUL>
0

>  <SCORE.INTRA.REPUL.0>
0

>  <SCORE.INTRA.SOLV>
0.244161

>  <SCORE.INTRA.SOLV.lig_0>
-110.958

>  <SCORE.INTRA.VDW>
-0.377725

>  <SCORE.INTRA.VDW.0>
-2.34644

>  <SCORE.INTRA.norm>
-0.00609158

>  <SCORE.RESTR>
0.022381

>  <SCORE.RESTR.CAVITY>
0.022381

>  <SCORE.RESTR.norm>
0.000532881

>  <SCORE.SYSTEM>
0

>  <SCORE.SYSTEM.CONST>
0

>  <SCORE.SYSTEM.DIHEDRAL>
0

>  <SCORE.SYSTEM.SOLV>
0

>  <SCORE.SYSTEM.norm>
0

>  <SCORE.heavy>
42

>  <SCORE.norm>
-0.553231

>  <RMSD>
1.990

$$$$
ligand
 OpenBabel11021811513D
libRbt.so/2013.1/901 2013/11/27
 42 48  0  0  0  0  0  0  0  0999 V2000
    9.5331  -35.3387  -15.7264 P   0  0  2  0  0  0  0  0  0  0  0  0
    5.3807  -34.3570  -13.0231 P   0  0  1  0  0  0  0  0  0  0  0  0
   10.7566  -35.8655  -15.0132 O   0  5  0  0  0  0  0  0  0  0  0  0
    5.0631  -33.6610  -14.3250 O   0  5  0  0  0  0  0  0  0  0  0  0
    9.6554  -34.7947  -17.1296 O   0  0  0  0  0  0  0  0  0  0  0  0
    4.2942  -34.5674  -11.9960 O   0  0  0  0  0  0  0  0  0  0  0  0
    9.6723  -33.3625  -13.9850 C   0  0  0  0  0  0  0  0  0  0  0  0
    5.3107  -36.7556  -14.1161 C   0  0  0  0  0  0  0  0  0  0  0  0
    8.8614  -34.2044  -14.8027 O   0  0  0  0  0  0  0  0  0  0  0  0
    6.0372  -35.7873  -13.3630 O   0  0  0  0  0  0  0  0  0  0  0  0
    8.8896  -32.9551  -12.7424 C   0  0  1  0  0  0  0  0  0  0  0  0
    6.1819  -37.2775  -15.2518 C   0  0  1  0  0  0  0  0  0  0  0  0
    9.4364  -31.7491  -12.2021 O   0  0  0  0  0  0  0  0  0  0  0  0
    5.3542  -37.8005  -16.2935 O   0  0  0  0  0  0  0  0  0  0  0  0
    7.4289  -32.6972  -13.0715 C   0  0  1  0  0  0  0  0  0  0  0  0
    7.0341  -36.1685  -15.8481 C   0  0  1  0  0  0  0  0  0  0  0  0
    6.5960  -33.5714  -12.3160 O   0  0  0  0  0  0  0  0  0  0  0  0
    8.4152  -36.4967  -15.7300 O   0  0  0  0  0  0  0  0  0  0  0  0
    7.1509  -31.2552  -12.6896 C   0  0  0  0  0  0  0  0  0  0  0  0
    6.6466  -36.0686  -17.3109 C   0  0  0  0  0  0  0  0  0  0  0  0
    8.4613  -30.7043  -12.1470 C   0  0  2  0  0  0  0  0  0  0  0  0
    5.5750  -37.1260  -17.5346 C   0  0  2  0  0  0  0  0  0  0  0  0
    8.6800  -28.6358  -16.9690 N   0  0  0  0  0  0  0  0  0  0  0  0
    8.1515  -29.7994  -16.5471 C   0  0  0  0  0  0  0  0  0  0  0  0
    8.1681  -30.2065  -15.2645 N   0  0  0  0  0  0  0  0  0  0  0  0
    8.7345  -29.4426  -14.2999 C   0  0  0  0  0  0  0  0  0  0  0  0
    9.3340  -28.1545  -14.6821 C   0  0  0  0  0  0  0  0  0  0  0  0
    9.2772  -27.7757  -16.1140 C   0  0  0  0  0  0  0  0  0  0  0  0
    9.8048  -26.6067  -16.5507 N   0  0  0  0  0  0  0  0  0  0  0  0
    9.8182  -27.6060  -13.5520 N   0  0  0  0  0  0  0  0  0  0  0  0
    9.5529  -28.4659  -12.5354 C   0  0  0  0  0  0  0  0  0  0  0  0
    8.9067  -29.5605  -12.9810 N   0  0  0  0  0  0  0  0  0  0  0  0
    1.7334  -33.7525  -16.3371 N   0  0  0  0  0  0  0  0  0  0  0  0
    2.8108  -34.1292  -15.6238 C   0  0  0  0  0  0  0  0  0  0  0  0
    3.7245  -35.0144  -16.0611 N   0  0  0  0  0  0  0  0  0  0  0  0
    3.6040  -35.5910  -17.2813 C   0  0  0  0  0  0  0  0  0  0  0  0
    2.4518  -35.2299  -18.1217 C   0  0  0  0  0  0  0  0  0  0  0  0
    1.4893  -34.2475  -17.5696 C   0  0  0  0  0  0  0  0  0  0  0  0
    0.4008  -33.8596  -18.2786 N   0  0  0  0  0  0  0  0  0  0  0  0
    2.5734  -35.9342  -19.2628 N   0  0  0  0  0  0  0  0  0  0  0  0
    3.7033  -36.6805  -19.1616 C   0  0  0  0  0  0  0  0  0  0  0  0
    4.3170  -36.4764  -17.9816 N   0  0  0  0  0  0  0  0  0  0  0  0
  1  3  1  1  0  0  0
  1  5  2  0  0  0  0
  1  9  1  0  0  0  0
  1 18  1  0  0  0  0
  2  4  1  6  0  0  0
  2  6  2  0  0  0  0
  2 10  1  0  0  0  0
  2 17  1  0  0  0  0
  7  9  1  0  0  0  0
  8 10  1  0  0  0  0
 11  7  1  6  0  0  0
 11 13  1  0  0  0  0
 11 15  1  0  0  0  0
 12  8  1  1  0  0  0
 12 14  1  0  0  0  0
 12 16  1  0  0  0  0
 13 21  1  0  0  0  0
 14 22  1  0  0  0  0
 15 17  1  1  0  0  0
 15 19  1  0  0  0  0
 16 18  1  6  0  0  0
 16 20  1  0  0  0  0
 19 21  1  0  0  0  0
 20 22  1  0  0  0  0
 21 32  1  6  0  0  0
 22 42  1  1  0  0  0
 23 24  2  0  0  0  0
 23 28  1  0  0  0  0
 24 25  1  0  0  0  0
 25 26  2  0  0  0  0
 26 27  1  0  0  0  0
 26 32  1  0  0  0  0
 27 28  2  0  0  0  0
 27 30  1  0  0  0  0
 28 29  1  0  0  0  0
 30 31  2  0  0  0  0
 31 32  1  0  0  0  0
 33 34  2  0  0  0  0
 33 38  1  0  0  0  0
 34 35  1  0  0  0  0
 35 36  2  0  0  0  0
 36 37  1  0  0  0  0
 36 42  1  0  0  0  0
 37 38  2  0  0  0  0
 37 40  1  0  0  0  0
 38 39  1  0  0  0  0
 40 41  2  0  0  0  0
 41 42  1  0  0  0  0
M  CHG  2   3  -1   4  -1
M  END
>  <CHROM.1>
83.80909665,56.46839662,6.73084132,-33.49345349,-15.17822961,-0.80430545
0.48655980,3.12349766

>  <Name>
ligand

>  <RI>
0

>  <Rbt.Current_Directory>
/home/itssahil/PROJECTS/Mol_Feturizer/New_Systems/rnas/4QLN

>  <Rbt.Executable>
rbdock ($Id: //depot/dev/client3/rdock/2013.1/src/exe/rbdock.cxx#4 $)

>  <Rbt.Library>
libRbt.so (2013.1, Build901 2013/11/27)

>  <Rbt.Parameter_File>
/export/apps/rDock/src/rDock_2013.1_src/data/scripts/dock_solv.prm

>  <Rbt.Receptor>
prm/pocket_docking_3.prm

>  <SCORE>
-23.4653

>  <SCORE.INTER>
-24.399

>  <SCORE.INTER.CONST>
1

>  <SCORE.INTER.POLAR>
0

>  <SCORE.INTER.ROT>
2

>  <SCORE.INTER.SOLV>
27.1461

>  <SCORE.INTER.VDW>
-30.2481

>  <SCORE.INTER.norm>
-0.580929

>  <SCORE.INTRA>
0.933717

>  <SCORE.INTRA.DIHEDRAL>
0.000258578

>  <SCORE.INTRA.DIHEDRAL.0>
2.39985

>  <SCORE.INTRA.POLAR>
0

>  <SCORE.INTRA.POLAR.0>
0

>  <SCORE.INTRA.REPUL>
0

>  <SCORE.INTRA.REPUL.0>
0

>  <SCORE.INTRA.SOLV>
1.23964

>  <SCORE.INTRA.SOLV.lig_0>
-110.958

>  <SCORE.INTRA.VDW>
0.313769

>  <SCORE.INTRA.VDW.0>
-2.34644

>  <SCORE.INTRA.norm>
0.0222314

>  <SCORE.RESTR>
0

>  <SCORE.RESTR.CAVITY>
0

>  <SCORE.RESTR.norm>
0

>  <SCORE.SYSTEM>
0

>  <SCORE.SYSTEM.CONST>
0

>  <SCORE.SYSTEM.DIHEDRAL>
0

>  <SCORE.SYSTEM.SOLV>
0

>  <SCORE.SYSTEM.norm>
0

>  <SCORE.heavy>
42

>  <SCORE.norm>
-0.558698

>  <RMSD>
1.994

$$$$
ligand
 OpenBabel11021811513D
libRbt.so/2013.1/901 2013/11/27
 42 48  0  0  0  0  0  0  0  0999 V2000
    3.5024  -35.7844  -13.0187 P   0  0  2  0  0  0  0  0  0  0  0  0
    7.4607  -35.8372  -16.1561 P   0  0  1  0  0  0  0  0  0  0  0  0
    3.0077  -37.0944  -12.4511 O   0  5  0  0  0  0  0  0  0  0  0  0
    6.9222  -34.4435  -16.3753 O   0  5  0  0  0  0  0  0  0  0  0  0
    2.6352  -34.5513  -12.9329 O   0  0  0  0  0  0  0  0  0  0  0  0
    8.8237  -36.2110  -16.6873 O   0  0  0  0  0  0  0  0  0  0  0  0
    3.1656  -36.9544  -15.3585 C   0  0  0  0  0  0  0  0  0  0  0  0
    8.1718  -35.3316  -13.6677 C   0  0  0  0  0  0  0  0  0  0  0  0
    3.8924  -36.0200  -14.5625 O   0  0  0  0  0  0  0  0  0  0  0  0
    7.4334  -36.1455  -14.5760 O   0  0  0  0  0  0  0  0  0  0  0  0
    4.0880  -37.5438  -16.4189 C   0  0  1  0  0  0  0  0  0  0  0  0
    7.2682  -34.8985  -12.5201 C   0  0  1  0  0  0  0  0  0  0  0  0
    3.3106  -38.0430  -17.5106 O   0  0  0  0  0  0  0  0  0  0  0  0
    7.7832  -33.7051  -11.9246 O   0  0  0  0  0  0  0  0  0  0  0  0
    5.0391  -36.4933  -16.9671 C   0  0  1  0  0  0  0  0  0  0  0  0
    5.8590  -34.6032  -13.0084 C   0  0  1  0  0  0  0  0  0  0  0  0
    6.3883  -36.8884  -16.7380 O   0  0  0  0  0  0  0  0  0  0  0  0
    4.9247  -35.4488  -12.3440 O   0  0  0  0  0  0  0  0  0  0  0  0
    4.7689  -36.4056  -18.4576 C   0  0  0  0  0  0  0  0  0  0  0  0
    5.5813  -33.1520  -12.6668 C   0  0  0  0  0  0  0  0  0  0  0  0
    3.6615  -37.4089  -18.7435 C   0  0  2  0  0  0  0  0  0  0  0  0
    6.8387  -32.6334  -11.9838 C   0  0  2  0  0  0  0  0  0  0  0  0
    0.3902  -33.3277  -18.2743 N   0  0  0  0  0  0  0  0  0  0  0  0
    1.4475  -33.6833  -17.5214 C   0  0  0  0  0  0  0  0  0  0  0  0
    2.2049  -34.7694  -17.7618 N   0  0  0  0  0  0  0  0  0  0  0  0
    1.9354  -35.5874  -18.8073 C   0  0  0  0  0  0  0  0  0  0  0  0
    0.7942  -35.2654  -19.6784 C   0  0  0  0  0  0  0  0  0  0  0  0
    0.0074  -34.0533  -19.3488 C   0  0  0  0  0  0  0  0  0  0  0  0
   -1.0585  -33.6845  -20.0995 N   0  0  0  0  0  0  0  0  0  0  0  0
    0.7502  -36.2234  -20.6232 N   0  0  0  0  0  0  0  0  0  0  0  0
    1.7720  -37.0834  -20.3797 C   0  0  0  0  0  0  0  0  0  0  0  0
    2.4787  -36.7044  -19.2975 N   0  0  0  0  0  0  0  0  0  0  0  0
    9.8376  -31.2225  -16.0567 N   0  0  0  0  0  0  0  0  0  0  0  0
    9.5140  -32.4467  -15.6005 C   0  0  0  0  0  0  0  0  0  0  0  0
    8.7256  -32.6619  -14.5321 N   0  0  0  0  0  0  0  0  0  0  0  0
    8.1992  -31.6244  -13.8374 C   0  0  0  0  0  0  0  0  0  0  0  0
    8.5069  -30.2539  -14.2749 C   0  0  0  0  0  0  0  0  0  0  0  0
    9.3825  -30.0994  -15.4605 C   0  0  0  0  0  0  0  0  0  0  0  0
    9.7150  -28.8718  -15.9300 N   0  0  0  0  0  0  0  0  0  0  0  0
    7.8676  -29.4274  -13.4257 N   0  0  0  0  0  0  0  0  0  0  0  0
    7.2093  -30.2004  -12.5241 C   0  0  0  0  0  0  0  0  0  0  0  0
    7.4068  -31.5088  -12.7691 N   0  0  0  0  0  0  0  0  0  0  0  0
  1  3  1  1  0  0  0
  1  5  2  0  0  0  0
  1  9  1  0  0  0  0
  1 18  1  0  0  0  0
  2  4  1  6  0  0  0
  2  6  2  0  0  0  0
  2 10  1  0  0  0  0
  2 17  1  0  0  0  0
  7  9  1  0  0  0  0
  8 10  1  0  0  0  0
 11  7  1  1  0  0  0
 11 13  1  0  0  0  0
 11 15  1  0  0  0  0
 12  8  1  6  0  0  0
 12 14  1  0  0  0  0
 12 16  1  0  0  0  0
 13 21  1  0  0  0  0
 14 22  1  0  0  0  0
 15 17  1  6  0  0  0
 15 19  1  0  0  0  0
 16 18  1  1  0  0  0
 16 20  1  0  0  0  0
 19 21  1  0  0  0  0
 20 22  1  0  0  0  0
 21 32  1  1  0  0  0
 22 42  1  6  0  0  0
 23 24  2  0  0  0  0
 23 28  1  0  0  0  0
 24 25  1  0  0  0  0
 25 26  2  0  0  0  0
 26 27  1  0  0  0  0
 26 32  1  0  0  0  0
 27 28  2  0  0  0  0
 27 30  1  0  0  0  0
 28 29  1  0  0  0  0
 30 31  2  0  0  0  0
 31 32  1  0  0  0  0
 33 34  2  0  0  0  0
 33 38  1  0  0  0  0
 34 35  1  0  0  0  0
 35 36  2  0  0  0  0
 36 37  1  0  0  0  0
 36 42  1  0  0  0  0
 37 38  2  0  0  0  0
 37 40  1  0  0  0  0
 38 39  1  0  0  0  0
 40 41  2  0  0  0  0
 41 42  1  0  0  0  0
M  CHG  2   3  -1   4  -1
M  END
>  <CHROM.1>
71.51402636,35.61783058,5.21572289,-34.54629060,-15.61949731,2.96796493,-0.73362683
-0.93510376

>  <Name>
ligand

>  <RI>
0

>  <Rbt.Current_Directory>
/home/itssahil/PROJECTS/Mol_Feturizer/New_Systems/rnas/4QLN

>  <Rbt.Executable>
rbdock ($Id: //depot/dev/client3/rdock/2013.1/src/exe/rbdock.cxx#4 $)

>  <Rbt.Library>
libRbt.so (2013.1, Build901 2013/11/27)

>  <Rbt.Parameter_File>
/export/apps/rDock/src/rDock_2013.1_src/data/scripts/dock_solv.prm

>  <Rbt.Receptor>
prm/pocket_docking_2.prm

>  <SCORE>
-22.0703

>  <SCORE.INTER>
-22.065

>  <SCORE.INTER.CONST>
1

>  <SCORE.INTER.POLAR>
0

>  <SCORE.INTER.ROT>
2

>  <SCORE.INTER.SOLV>
25.6658

>  <SCORE.INTER.VDW>
-28.1986

>  <SCORE.INTER.norm>
-0.525357

>  <SCORE.INTRA>
-0.422792

>  <SCORE.INTRA.DIHEDRAL>
-0.000422594

>  <SCORE.INTRA.DIHEDRAL.0>
2.39985

>  <SCORE.INTRA.POLAR>
0

>  <SCORE.INTRA.POLAR.0>
0

>  <SCORE.INTRA.REPUL>
0

>  <SCORE.INTRA.REPUL.0>
0

>  <SCORE.INTRA.SOLV>
0.68533

>  <SCORE.INTRA.SOLV.lig_0>
-110.958

>  <SCORE.INTRA.VDW>
-0.765246

>  <SCORE.INTRA.VDW.0>
-2.34644

>  <SCORE.INTRA.norm>
-0.0100665

>  <SCORE.RESTR>
0.417416

>  <SCORE.RESTR.CAVITY>
0.417416

>  <SCORE.RESTR.norm>
0.00993847

>  <SCORE.SYSTEM>
0

>  <SCORE.SYSTEM.CONST>
0

>  <SCORE.SYSTEM.DIHEDRAL>
0

>  <SCORE.SYSTEM.SOLV>
0

>  <SCORE.SYSTEM.norm>
0

>  <SCORE.heavy>
42

>  <SCORE.norm>
-0.525485

>  <RMSD>
1.997

$$$$
ligand
 OpenBabel11021811513D
libRbt.so/2013.1/901 2013/11/27
 42 48  0  0  0  0  0  0  0  0999 V2000
    9.5446  -35.3290  -15.7111 P   0  0  2  0  0  0  0  0  0  0  0  0
    5.3837  -34.3553  -13.0180 P   0  0  1  0  0  0  0  0  0  0  0  0
   10.7677  -35.8522  -14.9948 O   0  5  0  0  0  0  0  0  0  0  0  0
    5.0673  -33.6612  -14.3212 O   0  5  0  0  0  0  0  0  0  0  0  0
    9.6687  -34.7858  -17.1145 O   0  0  0  0  0  0  0  0  0  0  0  0
    4.2954  -34.5676  -11.9932 O   0  0  0  0  0  0  0  0  0  0  0  0
    9.6750  -33.3511  -13.9711 C   0  0  0  0  0  0  0  0  0  0  0  0
    5.3220  -36.7550  -14.1092 C   0  0  0  0  0  0  0  0  0  0  0  0
    8.8680  -34.1957  -14.7898 O   0  0  0  0  0  0  0  0  0  0  0  0
    6.0445  -35.7843  -13.3553 O   0  0  0  0  0  0  0  0  0  0  0  0
    8.8885  -32.9446  -12.7306 C   0  0  1  0  0  0  0  0  0  0  0  0
    6.1971  -37.2757  -15.2425 C   0  0  1  0  0  0  0  0  0  0  0  0
    9.4311  -31.7368  -12.1901 O   0  0  0  0  0  0  0  0  0  0  0  0
    5.3730  -37.8016  -16.2857 O   0  0  0  0  0  0  0  0  0  0  0  0
    7.4280  -32.6905  -13.0632 C   0  0  1  0  0  0  0  0  0  0  0  0
    7.0478  -36.1651  -15.8378 C   0  0  1  0  0  0  0  0  0  0  0  0
    6.5955  -33.5662  -12.3089 O   0  0  0  0  0  0  0  0  0  0  0  0
    8.4295  -36.4898  -15.7163 O   0  0  0  0  0  0  0  0  0  0  0  0
    7.1456  -31.2489  -12.6831 C   0  0  0  0  0  0  0  0  0  0  0  0
    6.6635  -36.0673  -17.3015 C   0  0  0  0  0  0  0  0  0  0  0  0
    8.4533  -30.6944  -12.1380 C   0  0  2  0  0  0  0  0  0  0  0  0
    5.5949  -37.1275  -17.5268 C   0  0  2  0  0  0  0  0  0  0  0  0
    8.6586  -28.6193  -16.9577 N   0  0  0  0  0  0  0  0  0  0  0  0
    8.1295  -29.7825  -16.5357 C   0  0  0  0  0  0  0  0  0  0  0  0
    8.1499  -30.1915  -15.2537 N   0  0  0  0  0  0  0  0  0  0  0  0
    8.7211  -29.4300  -14.2900 C   0  0  0  0  0  0  0  0  0  0  0  0
    9.3216  -28.1424  -14.6725 C   0  0  0  0  0  0  0  0  0  0  0  0
    9.2603  -27.7614  -16.1036 C   0  0  0  0  0  0  0  0  0  0  0  0
    9.7885  -26.5928  -16.5405 N   0  0  0  0  0  0  0  0  0  0  0  0
    9.8107  -27.5964  -13.5433 N   0  0  0  0  0  0  0  0  0  0  0  0
    9.5475  -28.4573  -12.5271 C   0  0  0  0  0  0  0  0  0  0  0  0
    8.8978  -29.5501  -12.9719 N   0  0  0  0  0  0  0  0  0  0  0  0
    1.7603  -33.7373  -16.3546 N   0  0  0  0  0  0  0  0  0  0  0  0
    2.8393  -34.1075  -15.6404 C   0  0  0  0  0  0  0  0  0  0  0  0
    3.7508  -34.9983  -16.0707 N   0  0  0  0  0  0  0  0  0  0  0  0
    3.6263  -35.5878  -17.2843 C   0  0  0  0  0  0  0  0  0  0  0  0
    2.4721  -35.2344  -18.1253 C   0  0  0  0  0  0  0  0  0  0  0  0
    1.5122  -34.2452  -17.5810 C   0  0  0  0  0  0  0  0  0  0  0  0
    0.4220  -33.8636  -18.2910 N   0  0  0  0  0  0  0  0  0  0  0  0
    2.5897  -35.9510  -19.2591 N   0  0  0  0  0  0  0  0  0  0  0  0
    3.7191  -36.6975  -19.1532 C   0  0  0  0  0  0  0  0  0  0  0  0
    4.3364  -36.4813  -17.9771 N   0  0  0  0  0  0  0  0  0  0  0  0
  1  3  1  1  0  0  0
  1  5  2  0  0  0  0
  1  9  1  0  0  0  0
  1 18  1  0  0  0  0
  2  4  1  6  0  0  0
  2  6  2  0  0  0  0
  2 10  1  0  0  0  0
  2 17  1  0  0  0  0
  7  9  1  0  0  0  0
  8 10  1  0  0  0  0
 11  7  1  6  0  0  0
 11 13  1  0  0  0  0
 11 15  1  0  0  0  0
 12  8  1  1  0  0  0
 12 14  1  0  0  0  0
 12 16  1  0  0  0  0
 13 21  1  0  0  0  0
 14 22  1  0  0  0  0
 15 17  1  1  0  0  0
 15 19  1  0  0  0  0
 16 18  1  6  0  0  0
 16 20  1  0  0  0  0
 19 21  1  0  0  0  0
 20 22  1  0  0  0  0
 21 32  1  6  0  0  0
 22 42  1  1  0  0  0
 23 24  2  0  0  0  0
 23 28  1  0  0  0  0
 24 25  1  0  0  0  0
 25 26  2  0  0  0  0
 26 27  1  0  0  0  0
 26 32  1  0  0  0  0
 27 28  2  0  0  0  0
 27 30  1  0  0  0  0
 28 29  1  0  0  0  0
 30 31  2  0  0  0  0
 31 32  1  0  0  0  0
 33 34  2  0  0  0  0
 33 38  1  0  0  0  0
 34 35  1  0  0  0  0
 35 36  2  0  0  0  0
 36 37  1  0  0  0  0
 36 42  1  0  0  0  0
 37 38  2  0  0  0  0
 37 40  1  0  0  0  0
 38 39  1  0  0  0  0
 40 41  2  0  0  0  0
 41 42  1  0  0  0  0
M  CHG  2   3  -1   4  -1
M  END
>  <CHROM.1>
84.24183798,57.13546036,6.73644816,-33.48732590,-15.17165322,-0.80743761
0.49173360,3.12283850

>  <Name>
ligand

>  <RI>
0

>  <Rbt.Current_Directory>
/home/itssahil/PROJECTS/Mol_Feturizer/New_Systems/rnas/4QLN

>  <Rbt.Executable>
rbdock ($Id: //depot/dev/client3/rdock/2013.1/src/exe/rbdock.cxx#4 $)

>  <Rbt.Library>
libRbt.so (2013.1, Build901 2013/11/27)

>  <Rbt.Parameter_File>
/export/apps/rDock/src/rDock_2013.1_src/data/scripts/dock_solv.prm

>  <Rbt.Receptor>
prm/pocket_docking_4.prm

>  <SCORE>
-23.4589

>  <SCORE.INTER>
-24.5187

>  <SCORE.INTER.CONST>
1

>  <SCORE.INTER.POLAR>
0

>  <SCORE.INTER.ROT>
2

>  <SCORE.INTER.SOLV>
27.152

>  <SCORE.INTER.VDW>
-30.3298

>  <SCORE.INTER.norm>
-0.58378

>  <SCORE.INTRA>
1.05985

>  <SCORE.INTRA.DIHEDRAL>
0.000286315

>  <SCORE.INTRA.DIHEDRAL.0>
2.39985

>  <SCORE.INTRA.POLAR>
0

>  <SCORE.INTRA.POLAR.0>
0

>  <SCORE.INTRA.REPUL>
0

>  <SCORE.INTRA.REPUL.0>
0

>  <SCORE.INTRA.SOLV>
1.2439

>  <SCORE.INTRA.SOLV.lig_0>
-110.958

>  <SCORE.INTRA.VDW>
0.437753

>  <SCORE.INTRA.VDW.0>
-2.34644

>  <SCORE.INTRA.norm>
0.0252344

>  <SCORE.RESTR>
0

>  <SCORE.RESTR.CAVITY>
0

>  <SCORE.RESTR.norm>
0

>  <SCORE.SYSTEM>
0

>  <SCORE.SYSTEM.CONST>
0

>  <SCORE.SYSTEM.DIHEDRAL>
0

>  <SCORE.SYSTEM.SOLV>
0

>  <SCORE.SYSTEM.norm>
0

>  <SCORE.heavy>
42

>  <SCORE.norm>
-0.558545

>  <RMSD>
2.000

$$$$
ligand
 OpenBabel11021811513D
libRbt.so/2013.1/901 2013/11/27
 42 48  0  0  0  0  0  0  0  0999 V2000
    3.6205  -35.8926  -13.0076 P   0  0  2  0  0  0  0  0  0  0  0  0
    7.5006  -35.9591  -16.2409 P   0  0  1  0  0  0  0  0  0  0  0  0
    3.1207  -37.2030  -12.4454 O   0  5  0  0  0  0  0  0  0  0  0  0
    6.9772  -34.5551  -16.4285 O   0  5  0  0  0  0  0  0  0  0  0  0
    2.7736  -34.6486  -12.8844 O   0  0  0  0  0  0  0  0  0  0  0  0
    8.8447  -36.3450  -16.8100 O   0  0  0  0  0  0  0  0  0  0  0  0
    3.2102  -37.0258  -15.3537 C   0  0  0  0  0  0  0  0  0  0  0  0
    8.2789  -35.4974  -13.7641 C   0  0  0  0  0  0  0  0  0  0  0  0
    3.9696  -36.1127  -14.5634 O   0  0  0  0  0  0  0  0  0  0  0  0
    7.5070  -36.2883  -14.6647 O   0  0  0  0  0  0  0  0  0  0  0  0
    4.0981  -37.6139  -16.4439 C   0  0  1  0  0  0  0  0  0  0  0  0
    7.4097  -35.0670  -12.5892 C   0  0  1  0  0  0  0  0  0  0  0  0
    3.2874  -38.0872  -17.5228 O   0  0  0  0  0  0  0  0  0  0  0  0
    7.9562  -33.8892  -11.9908 O   0  0  0  0  0  0  0  0  0  0  0  0
    5.0508  -36.5697  -17.0012 C   0  0  1  0  0  0  0  0  0  0  0  0
    5.9935  -34.7452  -13.0391 C   0  0  1  0  0  0  0  0  0  0  0  0
    6.3992  -36.9870  -16.8103 O   0  0  0  0  0  0  0  0  0  0  0  0
    5.0634  -35.5863  -12.3633 O   0  0  0  0  0  0  0  0  0  0  0  0
    4.7460  -36.4580  -18.4834 C   0  0  0  0  0  0  0  0  0  0  0  0
    5.7452  -33.2950  -12.6717 C   0  0  0  0  0  0  0  0  0  0  0  0
    3.6175  -37.4416  -18.7555 C   0  0  2  0  0  0  0  0  0  0  0  0
    7.0262  -32.8035  -12.0128 C   0  0  2  0  0  0  0  0  0  0  0  0
    0.4855  -33.2601  -18.2219 N   0  0  0  0  0  0  0  0  0  0  0  0
    1.5642  -33.6330  -17.5087 C   0  0  0  0  0  0  0  0  0  0  0  0
    2.2797  -34.7445  -17.7612 N   0  0  0  0  0  0  0  0  0  0  0  0
    1.9421  -35.5724  -18.7788 C   0  0  0  0  0  0  0  0  0  0  0  0
    0.7736  -35.2327  -19.6059 C   0  0  0  0  0  0  0  0  0  0  0  0
    0.0362  -33.9928  -19.2654 C   0  0  0  0  0  0  0  0  0  0  0  0
   -1.0505  -33.6065  -19.9764 N   0  0  0  0  0  0  0  0  0  0  0  0
    0.6617  -36.2051  -20.5301 N   0  0  0  0  0  0  0  0  0  0  0  0
    1.6686  -37.0900  -20.3148 C   0  0  0  0  0  0  0  0  0  0  0  0
    2.4320  -36.7129  -19.2711 N   0  0  0  0  0  0  0  0  0  0  0  0
   10.4162  -31.3444  -15.7479 N   0  0  0  0  0  0  0  0  0  0  0  0
   10.1467  -32.5654  -15.2499 C   0  0  0  0  0  0  0  0  0  0  0  0
    9.2414  -32.7945  -14.2815 N   0  0  0  0  0  0  0  0  0  0  0  0
    8.5310  -31.7756  -13.7402 C   0  0  0  0  0  0  0  0  0  0  0  0
    8.7688  -30.4099  -14.2326 C   0  0  0  0  0  0  0  0  0  0  0  0
    9.7818  -30.2393  -15.3008 C   0  0  0  0  0  0  0  0  0  0  0  0
   10.0616  -29.0149  -15.8112 N   0  0  0  0  0  0  0  0  0  0  0  0
    7.9451  -29.6026  -13.5378 N   0  0  0  0  0  0  0  0  0  0  0  0
    7.2424  -30.3825  -12.6765 C   0  0  0  0  0  0  0  0  0  0  0  0
    7.5914  -31.6766  -12.7968 N   0  0  0  0  0  0  0  0  0  0  0  0
  1  3  1  1  0  0  0
  1  5  2  0  0  0  0
  1  9  1  0  0  0  0
  1 18  1  0  0  0  0
  2  4  1  6  0  0  0
  2  6  2  0  0  0  0
  2 10  1  0  0  0  0
  2 17  1  0  0  0  0
  7  9  1  0  0  0  0
  8 10  1  0  0  0  0
 11  7  1  1  0  0  0
 11 13  1  0  0  0  0
 11 15  1  0  0  0  0
 12  8  1  6  0  0  0
 12 14  1  0  0  0  0
 12 16  1  0  0  0  0
 13 21  1  0  0  0  0
 14 22  1  0  0  0  0
 15 17  1  6  0  0  0
 15 19  1  0  0  0  0
 16 18  1  1  0  0  0
 16 20  1  0  0  0  0
 19 21  1  0  0  0  0
 20 22  1  0  0  0  0
 21 32  1  1  0  0  0
 22 42  1  6  0  0  0
 23 24  2  0  0  0  0
 23 28  1  0  0  0  0
 24 25  1  0  0  0  0
 25 26  2  0  0  0  0
 26 27  1  0  0  0  0
 26 32  1  0  0  0  0
 27 28  2  0  0  0  0
 27 30  1  0  0  0  0
 28 29  1  0  0  0  0
 30 31  2  0  0  0  0
 31 32  1  0  0  0  0
 33 34  2  0  0  0  0
 33 38  1  0  0  0  0
 34 35  1  0  0  0  0
 35 36  2  0  0  0  0
 36 37  1  0  0  0  0
 36 42  1  0  0  0  0
 37 38  2  0  0  0  0
 37 40  1  0  0  0  0
 38 39  1  0  0  0  0
 40 41  2  0  0  0  0
 41 42  1  0  0  0  0
M  CHG  2   3  -1   4  -1
M  END
>  <CHROM.1>
73.76019261,23.53957593,5.33236868,-34.63585331,-15.60633677,2.99660854,-0.70250822
-0.89211149

>  <Name>
ligand

>  <RI>
0

>  <Rbt.Current_Directory>
/home/itssahil/PROJECTS/Mol_Feturizer/New_Systems/rnas/4QLN

>  <Rbt.Executable>
rbdock ($Id: //depot/dev/client3/rdock/2013.1/src/exe/rbdock.cxx#4 $)

>  <Rbt.Library>
libRbt.so (2013.1, Build901 2013/11/27)

>  <Rbt.Parameter_File>
/export/apps/rDock/src/rDock_2013.1_src/data/scripts/dock_solv.prm

>  <Rbt.Receptor>
prm/pocket_docking_7.prm

>  <SCORE>
-23.6371

>  <SCORE.INTER>
-23.3848

>  <SCORE.INTER.CONST>
1

>  <SCORE.INTER.POLAR>
0

>  <SCORE.INTER.ROT>
2

>  <SCORE.INTER.SOLV>
26.3438

>  <SCORE.INTER.VDW>
-29.3045

>  <SCORE.INTER.norm>
-0.556781

>  <SCORE.INTRA>
-0.25233

>  <SCORE.INTRA.DIHEDRAL>
-0.000387711

>  <SCORE.INTRA.DIHEDRAL.0>
2.39985

>  <SCORE.INTRA.POLAR>
0

>  <SCORE.INTRA.POLAR.0>
0

>  <SCORE.INTRA.REPUL>
0

>  <SCORE.INTRA.REPUL.0>
0

>  <SCORE.INTRA.SOLV>
0.202678

>  <SCORE.INTRA.SOLV.lig_0>
-110.958

>  <SCORE.INTRA.VDW>
-0.353475

>  <SCORE.INTRA.VDW.0>
-2.34644

>  <SCORE.INTRA.norm>
-0.00600785

>  <SCORE.RESTR>
0

>  <SCORE.RESTR.CAVITY>
0

>  <SCORE.RESTR.norm>
0

>  <SCORE.SYSTEM>
0

>  <SCORE.SYSTEM.CONST>
0

>  <SCORE.SYSTEM.DIHEDRAL>
0

>  <SCORE.SYSTEM.SOLV>
0

>  <SCORE.SYSTEM.norm>
0

>  <SCORE.heavy>
42

>  <SCORE.norm>
-0.562789

>  <RMSD>
2.001

$$$$
ligand
 OpenBabel11021811513D
libRbt.so/2013.1/901 2013/11/27
 42 48  0  0  0  0  0  0  0  0999 V2000
    9.5477  -35.3427  -15.6908 P   0  0  2  0  0  0  0  0  0  0  0  0
    5.3810  -34.3572  -13.0108 P   0  0  1  0  0  0  0  0  0  0  0  0
   10.7684  -35.8653  -14.9700 O   0  5  0  0  0  0  0  0  0  0  0  0
    5.0687  -33.6663  -14.3167 O   0  5  0  0  0  0  0  0  0  0  0  0
    9.6759  -34.8034  -17.0953 O   0  0  0  0  0  0  0  0  0  0  0  0
    4.2900  -34.5656  -11.9882 O   0  0  0  0  0  0  0  0  0  0  0  0
    9.6759  -33.3602  -13.9557 C   0  0  0  0  0  0  0  0  0  0  0  0
    5.3196  -36.7598  -14.0958 C   0  0  0  0  0  0  0  0  0  0  0  0
    8.8700  -34.2061  -14.7743 O   0  0  0  0  0  0  0  0  0  0  0  0
    6.0411  -35.7878  -13.3426 O   0  0  0  0  0  0  0  0  0  0  0  0
    8.8867  -32.9496  -12.7183 C   0  0  1  0  0  0  0  0  0  0  0  0
    6.1969  -37.2844  -15.2254 C   0  0  1  0  0  0  0  0  0  0  0  0
    9.4292  -31.7408  -12.1797 O   0  0  0  0  0  0  0  0  0  0  0  0
    5.3749  -37.8122  -16.2693 O   0  0  0  0  0  0  0  0  0  0  0  0
    7.4272  -32.6948  -13.0553 C   0  0  1  0  0  0  0  0  0  0  0  0
    7.0504  -36.1764  -15.8216 C   0  0  1  0  0  0  0  0  0  0  0  0
    6.5919  -33.5675  -12.3007 O   0  0  0  0  0  0  0  0  0  0  0  0
    8.4313  -36.5022  -15.6957 O   0  0  0  0  0  0  0  0  0  0  0  0
    7.1454  -31.2518  -12.6797 C   0  0  0  0  0  0  0  0  0  0  0  0
    6.6698  -36.0820  -17.2865 C   0  0  0  0  0  0  0  0  0  0  0  0
    8.4524  -30.6973  -12.1328 C   0  0  2  0  0  0  0  0  0  0  0  0
    5.6006  -37.1417  -17.5117 C   0  0  2  0  0  0  0  0  0  0  0  0
    8.6903  -28.6447  -16.9608 N   0  0  0  0  0  0  0  0  0  0  0  0
    8.1612  -29.8075  -16.5373 C   0  0  0  0  0  0  0  0  0  0  0  0
    8.1725  -30.2103  -15.2533 N   0  0  0  0  0  0  0  0  0  0  0  0
    8.7338  -29.4425  -14.2887 C   0  0  0  0  0  0  0  0  0  0  0  0
    9.3336  -28.1550  -14.6726 C   0  0  0  0  0  0  0  0  0  0  0  0
    9.2826  -27.7811  -16.1060 C   0  0  0  0  0  0  0  0  0  0  0  0
    9.8109  -26.6130  -16.5443 N   0  0  0  0  0  0  0  0  0  0  0  0
    9.8121  -27.6022  -13.5422 N   0  0  0  0  0  0  0  0  0  0  0  0
    9.5433  -28.4589  -12.5240 C   0  0  0  0  0  0  0  0  0  0  0  0
    8.9003  -29.5558  -12.9687 N   0  0  0  0  0  0  0  0  0  0  0  0
    1.7694  -33.7404  -16.3603 N   0  0  0  0  0  0  0  0  0  0  0  0
    2.8466  -34.1094  -15.6426 C   0  0  0  0  0  0  0  0  0  0  0  0
    3.7575  -35.0035  -16.0677 N   0  0  0  0  0  0  0  0  0  0  0  0
    3.6341  -35.5978  -17.2791 C   0  0  0  0  0  0  0  0  0  0  0  0
    2.4820  -35.2461  -18.1235 C   0  0  0  0  0  0  0  0  0  0  0  0
    1.5227  -34.2530  -17.5851 C   0  0  0  0  0  0  0  0  0  0  0  0
    0.4344  -33.8727  -18.2986 N   0  0  0  0  0  0  0  0  0  0  0  0
    2.6004  -35.9676  -19.2541 N   0  0  0  0  0  0  0  0  0  0  0  0
    3.7284  -36.7154  -19.1431 C   0  0  0  0  0  0  0  0  0  0  0  0
    4.3440  -36.4954  -17.9668 N   0  0  0  0  0  0  0  0  0  0  0  0
  1  3  1  1  0  0  0
  1  5  2  0  0  0  0
  1  9  1  0  0  0  0
  1 18  1  0  0  0  0
  2  4  1  6  0  0  0
  2  6  2  0  0  0  0
  2 10  1  0  0  0  0
  2 17  1  0  0  0  0
  7  9  1  0  0  0  0
  8 10  1  0  0  0  0
 11  7  1  6  0  0  0
 11 13  1  0  0  0  0
 11 15  1  0  0  0  0
 12  8  1  1  0  0  0
 12 14  1  0  0  0  0
 12 16  1  0  0  0  0
 13 21  1  0  0  0  0
 14 22  1  0  0  0  0
 15 17  1  1  0  0  0
 15 19  1  0  0  0  0
 16 18  1  6  0  0  0
 16 20  1  0  0  0  0
 19 21  1  0  0  0  0
 20 22  1  0  0  0  0
 21 32  1  6  0  0  0
 22 42  1  1  0  0  0
 23 24  2  0  0  0  0
 23 28  1  0  0  0  0
 24 25  1  0  0  0  0
 25 26  2  0  0  0  0
 26 27  1  0  0  0  0
 26 32  1  0  0  0  0
 27 28  2  0  0  0  0
 27 30  1  0  0  0  0
 28 29  1  0  0  0  0
 30 31  2  0  0  0  0
 31 32  1  0  0  0  0
 33 34  2  0  0  0  0
 33 38  1  0  0  0  0
 34 35  1  0  0  0  0
 35 36  2  0  0  0  0
 36 37  1  0  0  0  0
 36 42  1  0  0  0  0
 37 38  2  0  0  0  0
 37 40  1  0  0  0  0
 38 39  1  0  0  0  0
 40 41  2  0  0  0  0
 41 42  1  0  0  0  0
M  CHG  2   3  -1   4  -1
M  END
>  <CHROM.1>
83.83459922,57.23557659,6.74190365,-33.49695536,-15.16379777,-0.80550318
0.49406124,3.11927276

>  <Name>
ligand

>  <RI>
0

>  <Rbt.Current_Directory>
/home/itssahil/PROJECTS/Mol_Feturizer/New_Systems/rnas/4QLN

>  <Rbt.Executable>
rbdock ($Id: //depot/dev/client3/rdock/2013.1/src/exe/rbdock.cxx#4 $)

>  <Rbt.Library>
libRbt.so (2013.1, Build901 2013/11/27)

>  <Rbt.Parameter_File>
/export/apps/rDock/src/rDock_2013.1_src/data/scripts/dock_solv.prm

>  <Rbt.Receptor>
prm/pocket_docking_3.prm

>  <SCORE>
-23.5009

>  <SCORE.INTER>
-24.554

>  <SCORE.INTER.CONST>
1

>  <SCORE.INTER.POLAR>
0

>  <SCORE.INTER.ROT>
2

>  <SCORE.INTER.SOLV>
27.1243

>  <SCORE.INTER.VDW>
-30.3441

>  <SCORE.INTER.norm>
-0.58462

>  <SCORE.INTRA>
1.05313

>  <SCORE.INTRA.DIHEDRAL>
0.000288502

>  <SCORE.INTRA.DIHEDRAL.0>
2.39985

>  <SCORE.INTRA.POLAR>
0

>  <SCORE.INTRA.POLAR.0>
0

>  <SCORE.INTRA.REPUL>
0

>  <SCORE.INTRA.REPUL.0>
0

>  <SCORE.INTRA.SOLV>
1.24517

>  <SCORE.INTRA.SOLV.lig_0>
-110.958

>  <SCORE.INTRA.VDW>
0.430402

>  <SCORE.INTRA.VDW.0>
-2.34644

>  <SCORE.INTRA.norm>
0.0250745

>  <SCORE.RESTR>
0

>  <SCORE.RESTR.CAVITY>
0

>  <SCORE.RESTR.norm>
0

>  <SCORE.SYSTEM>
0

>  <SCORE.SYSTEM.CONST>
0

>  <SCORE.SYSTEM.DIHEDRAL>
0

>  <SCORE.SYSTEM.SOLV>
0

>  <SCORE.SYSTEM.norm>
0

>  <SCORE.heavy>
42

>  <SCORE.norm>
-0.559545

>  <RMSD>
2.002

$$$$
ligand
 OpenBabel11021811513D
libRbt.so/2013.1/901 2013/11/27
 42 48  0  0  0  0  0  0  0  0999 V2000
    3.4972  -35.7899  -13.0180 P   0  0  2  0  0  0  0  0  0  0  0  0
    7.4656  -35.8519  -16.1425 P   0  0  1  0  0  0  0  0  0  0  0  0
    2.9987  -37.0985  -12.4506 O   0  5  0  0  0  0  0  0  0  0  0  0
    6.9298  -34.4577  -16.3650 O   0  5  0  0  0  0  0  0  0  0  0  0
    2.6315  -34.5554  -12.9363 O   0  0  0  0  0  0  0  0  0  0  0  0
    8.8296  -36.2284  -16.6689 O   0  0  0  0  0  0  0  0  0  0  0  0
    3.1662  -36.9618  -15.3577 C   0  0  0  0  0  0  0  0  0  0  0  0
    8.1693  -35.3448  -13.6523 C   0  0  0  0  0  0  0  0  0  0  0  0
    3.8918  -36.0277  -14.5603 O   0  0  0  0  0  0  0  0  0  0  0  0
    7.4326  -36.1585  -14.5621 O   0  0  0  0  0  0  0  0  0  0  0  0
    4.0912  -37.5537  -16.4144 C   0  0  1  0  0  0  0  0  0  0  0  0
    7.2627  -34.9090  -12.5081 C   0  0  1  0  0  0  0  0  0  0  0  0
    3.3166  -38.0530  -17.5081 O   0  0  0  0  0  0  0  0  0  0  0  0
    7.7775  -33.7158  -11.9123 O   0  0  0  0  0  0  0  0  0  0  0  0
    5.0456  -36.5053  -16.9606 C   0  0  1  0  0  0  0  0  0  0  0  0
    5.8554  -34.6122  -13.0013 C   0  0  1  0  0  0  0  0  0  0  0  0
    6.3934  -36.9022  -16.7268 O   0  0  0  0  0  0  0  0  0  0  0  0
    4.9178  -35.4556  -12.3391 O   0  0  0  0  0  0  0  0  0  0  0  0
    4.7804  -36.4187  -18.4521 C   0  0  0  0  0  0  0  0  0  0  0  0
    5.5788  -33.1602  -12.6622 C   0  0  0  0  0  0  0  0  0  0  0  0
    3.6724  -37.4208  -18.7405 C   0  0  2  0  0  0  0  0  0  0  0  0
    6.8348  -32.6427  -11.9756 C   0  0  2  0  0  0  0  0  0  0  0  0
    0.4104  -33.3299  -18.2908 N   0  0  0  0  0  0  0  0  0  0  0  0
    1.4653  -33.6857  -17.5348 C   0  0  0  0  0  0  0  0  0  0  0  0
    2.2205  -34.7745  -17.7701 N   0  0  0  0  0  0  0  0  0  0  0  0
    1.9509  -35.5952  -18.8135 C   0  0  0  0  0  0  0  0  0  0  0  0
    0.8123  -35.2731  -19.6879 C   0  0  0  0  0  0  0  0  0  0  0  0
    0.0279  -34.0579  -19.3638 C   0  0  0  0  0  0  0  0  0  0  0  0
   -1.0356  -33.6890  -20.1178 N   0  0  0  0  0  0  0  0  0  0  0  0
    0.7677  -36.2340  -20.6298 N   0  0  0  0  0  0  0  0  0  0  0  0
    1.7869  -37.0958  -20.3815 C   0  0  0  0  0  0  0  0  0  0  0  0
    2.4925  -36.7151  -19.2991 N   0  0  0  0  0  0  0  0  0  0  0  0
    9.8165  -31.2408  -16.0643 N   0  0  0  0  0  0  0  0  0  0  0  0
    9.4854  -32.4641  -15.6110 C   0  0  0  0  0  0  0  0  0  0  0  0
    8.7028  -32.6769  -14.5377 N   0  0  0  0  0  0  0  0  0  0  0  0
    8.1907  -31.6378  -13.8349 C   0  0  0  0  0  0  0  0  0  0  0  0
    8.5074  -30.2683  -14.2687 C   0  0  0  0  0  0  0  0  0  0  0  0
    9.3757  -30.1164  -15.4601 C   0  0  0  0  0  0  0  0  0  0  0  0
    9.7156  -28.8898  -15.9268 N   0  0  0  0  0  0  0  0  0  0  0  0
    7.8816  -29.4398  -13.4115 N   0  0  0  0  0  0  0  0  0  0  0  0
    7.2229  -30.2108  -12.5083 C   0  0  0  0  0  0  0  0  0  0  0  0
    7.4071  -31.5198  -12.7603 N   0  0  0  0  0  0  0  0  0  0  0  0
  1  3  1  1  0  0  0
  1  5  2  0  0  0  0
  1  9  1  0  0  0  0
  1 18  1  0  0  0  0
  2  4  1  6  0  0  0
  2  6  2  0  0  0  0
  2 10  1  0  0  0  0
  2 17  1  0  0  0  0
  7  9  1  0  0  0  0
  8 10  1  0  0  0  0
 11  7  1  1  0  0  0
 11 13  1  0  0  0  0
 11 15  1  0  0  0  0
 12  8  1  6  0  0  0
 12 14  1  0  0  0  0
 12 16  1  0  0  0  0
 13 21  1  0  0  0  0
 14 22  1  0  0  0  0
 15 17  1  6  0  0  0
 15 19  1  0  0  0  0
 16 18  1  1  0  0  0
 16 20  1  0  0  0  0
 19 21  1  0  0  0  0
 20 22  1  0  0  0  0
 21 32  1  1  0  0  0
 22 42  1  6  0  0  0
 23 24  2  0  0  0  0
 23 28  1  0  0  0  0
 24 25  1  0  0  0  0
 25 26  2  0  0  0  0
 26 27  1  0  0  0  0
 26 32  1  0  0  0  0
 27 28  2  0  0  0  0
 27 30  1  0  0  0  0
 28 29  1  0  0  0  0
 30 31  2  0  0  0  0
 31 32  1  0  0  0  0
 33 34  2  0  0  0  0
 33 38  1  0  0  0  0
 34 35  1  0  0  0  0
 35 36  2  0  0  0  0
 36 37  1  0  0  0  0
 36 42  1  0  0  0  0
 37 38  2  0  0  0  0
 37 40  1  0  0  0  0
 38 39  1  0  0  0  0
 40 41  2  0  0  0  0
 41 42  1  0  0  0  0
M  CHG  2   3  -1   4  -1
M  END
>  <CHROM.1>
71.66825465,36.41268578,5.21845973,-34.55675689,-15.61689455,2.96437354,-0.73557174
-0.93686720

>  <Name>
ligand

>  <RI>
0

>  <Rbt.Current_Directory>
/home/itssahil/PROJECTS/Mol_Feturizer/New_Systems/rnas/4QLN

>  <Rbt.Executable>
rbdock ($Id: //depot/dev/client3/rdock/2013.1/src/exe/rbdock.cxx#4 $)

>  <Rbt.Library>
libRbt.so (2013.1, Build901 2013/11/27)

>  <Rbt.Parameter_File>
/export/apps/rDock/src/rDock_2013.1_src/data/scripts/dock_solv.prm

>  <Rbt.Receptor>
prm/pocket_docking_2.prm

>  <SCORE>
-22.086

>  <SCORE.INTER>
-22.0911

>  <SCORE.INTER.CONST>
1

>  <SCORE.INTER.POLAR>
0

>  <SCORE.INTER.ROT>
2

>  <SCORE.INTER.SOLV>
25.6302

>  <SCORE.INTER.VDW>
-28.2041

>  <SCORE.INTER.norm>
-0.525978

>  <SCORE.INTRA>
-0.421334

>  <SCORE.INTRA.DIHEDRAL>
-0.000411176

>  <SCORE.INTRA.DIHEDRAL.0>
2.39985

>  <SCORE.INTRA.POLAR>
0

>  <SCORE.INTRA.POLAR.0>
0

>  <SCORE.INTRA.REPUL>
0

>  <SCORE.INTRA.REPUL.0>
0

>  <SCORE.INTRA.SOLV>
0.719141

>  <SCORE.INTRA.SOLV.lig_0>
-110.958

>  <SCORE.INTRA.VDW>
-0.780699

>  <SCORE.INTRA.VDW.0>
-2.34644

>  <SCORE.INTRA.norm>
-0.0100318

>  <SCORE.RESTR>
0.426418

>  <SCORE.RESTR.CAVITY>
0.426418

>  <SCORE.RESTR.norm>
0.0101528

>  <SCORE.SYSTEM>
0

>  <SCORE.SYSTEM.CONST>
0

>  <SCORE.SYSTEM.DIHEDRAL>
0

>  <SCORE.SYSTEM.SOLV>
0

>  <SCORE.SYSTEM.norm>
0

>  <SCORE.heavy>
42

>  <SCORE.norm>
-0.525857

>  <RMSD>
2.005

$$$$
ligand
 OpenBabel11021811513D
libRbt.so/2013.1/901 2013/11/27
 42 48  0  0  0  0  0  0  0  0999 V2000
    3.6031  -35.8717  -13.0025 P   0  0  2  0  0  0  0  0  0  0  0  0
    7.4963  -35.9613  -16.2195 P   0  0  1  0  0  0  0  0  0  0  0  0
    3.0978  -37.1785  -12.4369 O   0  5  0  0  0  0  0  0  0  0  0  0
    6.9771  -34.5569  -16.4152 O   0  5  0  0  0  0  0  0  0  0  0  0
    2.7588  -34.6251  -12.8880 O   0  0  0  0  0  0  0  0  0  0  0  0
    8.8418  -36.3529  -16.7815 O   0  0  0  0  0  0  0  0  0  0  0  0
    3.1997  -37.0139  -15.3455 C   0  0  0  0  0  0  0  0  0  0  0  0
    8.2656  -35.4911  -13.7415 C   0  0  0  0  0  0  0  0  0  0  0  0
    3.9581  -36.0993  -14.5559 O   0  0  0  0  0  0  0  0  0  0  0  0
    7.4954  -36.2839  -14.6420 O   0  0  0  0  0  0  0  0  0  0  0  0
    4.0906  -37.6086  -16.4295 C   0  0  1  0  0  0  0  0  0  0  0  0
    7.3927  -35.0537  -12.5720 C   0  0  1  0  0  0  0  0  0  0  0  0
    3.2831  -38.0845  -17.5098 O   0  0  0  0  0  0  0  0  0  0  0  0
    7.9396  -33.8747  -11.9763 O   0  0  0  0  0  0  0  0  0  0  0  0
    5.0481  -36.5692  -16.9873 C   0  0  1  0  0  0  0  0  0  0  0  0
    5.9791  -34.7303  -13.0291 C   0  0  1  0  0  0  0  0  0  0  0  0
    6.3947  -36.9889  -16.7891 O   0  0  0  0  0  0  0  0  0  0  0  0
    5.0442  -35.5663  -12.3536 O   0  0  0  0  0  0  0  0  0  0  0  0
    4.7497  -36.4629  -18.4713 C   0  0  0  0  0  0  0  0  0  0  0  0
    5.7329  -33.2779  -12.6689 C   0  0  0  0  0  0  0  0  0  0  0  0
    3.6199  -37.4449  -18.7438 C   0  0  2  0  0  0  0  0  0  0  0  0
    7.0124  -32.7868  -12.0067 C   0  0  2  0  0  0  0  0  0  0  0  0
    0.5249  -33.2287  -18.2711 N   0  0  0  0  0  0  0  0  0  0  0  0
    1.6035  -33.5980  -17.5558 C   0  0  0  0  0  0  0  0  0  0  0  0
    2.3086  -34.7197  -17.7916 N   0  0  0  0  0  0  0  0  0  0  0  0
    1.9599  -35.5625  -18.7932 C   0  0  0  0  0  0  0  0  0  0  0  0
    0.7909  -35.2276  -19.6214 C   0  0  0  0  0  0  0  0  0  0  0  0
    0.0652  -33.9758  -19.2997 C   0  0  0  0  0  0  0  0  0  0  0  0
   -1.0213  -33.5930  -20.0130 N   0  0  0  0  0  0  0  0  0  0  0  0
    0.6670  -36.2152  -20.5279 N   0  0  0  0  0  0  0  0  0  0  0  0
    1.6675  -37.1045  -20.3011 C   0  0  0  0  0  0  0  0  0  0  0  0
    2.4383  -36.7155  -19.2673 N   0  0  0  0  0  0  0  0  0  0  0  0
   10.3516  -31.3631  -15.8008 N   0  0  0  0  0  0  0  0  0  0  0  0
   10.0680  -32.5828  -15.3073 C   0  0  0  0  0  0  0  0  0  0  0  0
    9.1790  -32.8022  -14.3219 N   0  0  0  0  0  0  0  0  0  0  0  0
    8.5009  -31.7741  -13.7571 C   0  0  0  0  0  0  0  0  0  0  0  0
    8.7557  -30.4091  -14.2430 C   0  0  0  0  0  0  0  0  0  0  0  0
    9.7492  -30.2495  -15.3311 C   0  0  0  0  0  0  0  0  0  0  0  0
   10.0428  -29.0265  -15.8370 N   0  0  0  0  0  0  0  0  0  0  0  0
    7.9633  -29.5917  -13.5242 N   0  0  0  0  0  0  0  0  0  0  0  0
    7.2634  -30.3649  -12.6546 C   0  0  0  0  0  0  0  0  0  0  0  0
    7.5836  -31.6646  -12.7931 N   0  0  0  0  0  0  0  0  0  0  0  0
  1  3  1  1  0  0  0
  1  5  2  0  0  0  0
  1  9  1  0  0  0  0
  1 18  1  0  0  0  0
  2  4  1  6  0  0  0
  2  6  2  0  0  0  0
  2 10  1  0  0  0  0
  2 17  1  0  0  0  0
  7  9  1  0  0  0  0
  8 10  1  0  0  0  0
 11  7  1  1  0  0  0
 11 13  1  0  0  0  0
 11 15  1  0  0  0  0
 12  8  1  6  0  0  0
 12 14  1  0  0  0  0
 12 16  1  0  0  0  0
 13 21  1  0  0  0  0
 14 22  1  0  0  0  0
 15 17  1  6  0  0  0
 15 19  1  0  0  0  0
 16 18  1  1  0  0  0
 16 20  1  0  0  0  0
 19 21  1  0  0  0  0
 20 22  1  0  0  0  0
 21 32  1  1  0  0  0
 22 42  1  6  0  0  0
 23 24  2  0  0  0  0
 23 28  1  0  0  0  0
 24 25  1  0  0  0  0
 25 26  2  0  0  0  0
 26 27  1  0  0  0  0
 26 32  1  0  0  0  0
 27 28  2  0  0  0  0
 27 30  1  0  0  0  0
 28 29  1  0  0  0  0
 30 31  2  0  0  0  0
 31 32  1  0  0  0  0
 33 34  2  0  0  0  0
 33 38  1  0  0  0  0
 34 35  1  0  0  0  0
 35 36  2  0  0  0  0
 36 37  1  0  0  0  0
 36 42  1  0  0  0  0
 37 38  2  0  0  0  0
 37 40  1  0  0  0  0
 38 39  1  0  0  0  0
 40 41  2  0  0  0  0
 41 42  1  0  0  0  0
M  CHG  2   3  -1   4  -1
M  END
>  <CHROM.1>
74.71980853,25.45221921,5.32541308,-34.62903779,-15.60746073,2.99083287,-0.70560142
-0.89701425

>  <Name>
ligand

>  <RI>
0

>  <Rbt.Current_Directory>
/home/itssahil/PROJECTS/Mol_Feturizer/New_Systems/rnas/4QLN

>  <Rbt.Executable>
rbdock ($Id: //depot/dev/client3/rdock/2013.1/src/exe/rbdock.cxx#4 $)

>  <Rbt.Library>
libRbt.so (2013.1, Build901 2013/11/27)

>  <Rbt.Parameter_File>
/export/apps/rDock/src/rDock_2013.1_src/data/scripts/dock_solv.prm

>  <Rbt.Receptor>
prm/pocket_docking_4.prm

>  <SCORE>
-23.6844

>  <SCORE.INTER>
-23.4683

>  <SCORE.INTER.CONST>
1

>  <SCORE.INTER.POLAR>
0

>  <SCORE.INTER.ROT>
2

>  <SCORE.INTER.SOLV>
26.3256

>  <SCORE.INTER.VDW>
-29.354

>  <SCORE.INTER.norm>
-0.558768

>  <SCORE.INTRA>
-0.216193

>  <SCORE.INTRA.DIHEDRAL>
-0.000399508

>  <SCORE.INTRA.DIHEDRAL.0>
2.39985

>  <SCORE.INTRA.POLAR>
0

>  <SCORE.INTRA.POLAR.0>
0

>  <SCORE.INTRA.REPUL>
0

>  <SCORE.INTRA.REPUL.0>
0

>  <SCORE.INTRA.SOLV>
0.263338

>  <SCORE.INTRA.SOLV.lig_0>
-110.958

>  <SCORE.INTRA.VDW>
-0.347663

>  <SCORE.INTRA.VDW.0>
-2.34644

>  <SCORE.INTRA.norm>
-0.00514746

>  <SCORE.RESTR>
0

>  <SCORE.RESTR.CAVITY>
0

>  <SCORE.RESTR.norm>
0

>  <SCORE.SYSTEM>
0

>  <SCORE.SYSTEM.CONST>
0

>  <SCORE.SYSTEM.DIHEDRAL>
0

>  <SCORE.SYSTEM.SOLV>
0

>  <SCORE.SYSTEM.norm>
0

>  <SCORE.heavy>
42

>  <SCORE.norm>
-0.563915

>  <RMSD>
2.006

$$$$
ligand
 OpenBabel11021811513D
libRbt.so/2013.1/901 2013/11/27
 42 48  0  0  0  0  0  0  0  0999 V2000
    3.4986  -35.8034  -13.0266 P   0  0  2  0  0  0  0  0  0  0  0  0
    7.4577  -35.8539  -16.1630 P   0  0  1  0  0  0  0  0  0  0  0  0
    3.0032  -37.1138  -12.4607 O   0  5  0  0  0  0  0  0  0  0  0  0
    6.9198  -34.4598  -16.3806 O   0  5  0  0  0  0  0  0  0  0  0  0
    2.6318  -34.5700  -12.9395 O   0  0  0  0  0  0  0  0  0  0  0  0
    8.8206  -36.2277  -16.6943 O   0  0  0  0  0  0  0  0  0  0  0  0
    3.1619  -36.9703  -15.3679 C   0  0  0  0  0  0  0  0  0  0  0  0
    8.1683  -35.3517  -13.6737 C   0  0  0  0  0  0  0  0  0  0  0  0
    3.8889  -36.0372  -14.5706 O   0  0  0  0  0  0  0  0  0  0  0  0
    7.4298  -36.1642  -14.5832 O   0  0  0  0  0  0  0  0  0  0  0  0
    4.0844  -37.5588  -16.4287 C   0  0  1  0  0  0  0  0  0  0  0  0
    7.2646  -34.9196  -12.5259 C   0  0  1  0  0  0  0  0  0  0  0  0
    3.3070  -38.0563  -17.5213 O   0  0  0  0  0  0  0  0  0  0  0  0
    7.7799  -33.7272  -11.9288 O   0  0  0  0  0  0  0  0  0  0  0  0
    5.0360  -36.5080  -16.9754 C   0  0  1  0  0  0  0  0  0  0  0  0
    5.8556  -34.6231  -13.0142 C   0  0  1  0  0  0  0  0  0  0  0  0
    6.3850  -36.9040  -16.7465 O   0  0  0  0  0  0  0  0  0  0  0  0
    4.9209  -35.4691  -12.3511 O   0  0  0  0  0  0  0  0  0  0  0  0
    4.7663  -36.4184  -18.4659 C   0  0  0  0  0  0  0  0  0  0  0  0
    5.5785  -33.1723  -12.6709 C   0  0  0  0  0  0  0  0  0  0  0  0
    3.6585  -37.4209  -18.7533 C   0  0  2  0  0  0  0  0  0  0  0  0
    6.8359  -32.6550  -11.9869 C   0  0  2  0  0  0  0  0  0  0  0  0
    0.3980  -33.3305  -18.2890 N   0  0  0  0  0  0  0  0  0  0  0  0
    1.4563  -33.6863  -17.5375 C   0  0  0  0  0  0  0  0  0  0  0  0
    2.2105  -34.7749  -17.7763 N   0  0  0  0  0  0  0  0  0  0  0  0
    1.9366  -35.5955  -18.8187 C   0  0  0  0  0  0  0  0  0  0  0  0
    0.7943  -35.2733  -19.6882 C   0  0  0  0  0  0  0  0  0  0  0  0
    0.0111  -34.0583  -19.3605 C   0  0  0  0  0  0  0  0  0  0  0  0
   -1.0556  -33.6893  -20.1099 N   0  0  0  0  0  0  0  0  0  0  0  0
    0.7458  -36.2340  -20.6300 N   0  0  0  0  0  0  0  0  0  0  0  0
    1.7661  -37.0958  -20.3862 C   0  0  0  0  0  0  0  0  0  0  0  0
    2.4762  -36.7152  -19.3067 N   0  0  0  0  0  0  0  0  0  0  0  0
    9.8254  -31.2404  -16.0655 N   0  0  0  0  0  0  0  0  0  0  0  0
    9.4997  -32.4651  -15.6120 C   0  0  0  0  0  0  0  0  0  0  0  0
    8.7142  -32.6812  -14.5415 N   0  0  0  0  0  0  0  0  0  0  0  0
    8.1932  -31.6443  -13.8420 C   0  0  0  0  0  0  0  0  0  0  0  0
    8.5035  -30.2735  -14.2763 C   0  0  0  0  0  0  0  0  0  0  0  0
    9.3755  -30.1179  -15.4644 C   0  0  0  0  0  0  0  0  0  0  0  0
    9.7101  -28.8898  -15.9313 N   0  0  0  0  0  0  0  0  0  0  0  0
    7.8695  -29.4477  -13.4225 N   0  0  0  0  0  0  0  0  0  0  0  0
    7.2118  -30.2214  -12.5210 C   0  0  0  0  0  0  0  0  0  0  0  0
    7.4047  -31.5297  -12.7707 N   0  0  0  0  0  0  0  0  0  0  0  0
  1  3  1  1  0  0  0
  1  5  2  0  0  0  0
  1  9  1  0  0  0  0
  1 18  1  0  0  0  0
  2  4  1  6  0  0  0
  2  6  2  0  0  0  0
  2 10  1  0  0  0  0
  2 17  1  0  0  0  0
  7  9  1  0  0  0  0
  8 10  1  0  0  0  0
 11  7  1  1  0  0  0
 11 13  1  0  0  0  0
 11 15  1  0  0  0  0
 12  8  1  6  0  0  0
 12 14  1  0  0  0  0
 12 16  1  0  0  0  0
 13 21  1  0  0  0  0
 14 22  1  0  0  0  0
 15 17  1  6  0  0  0
 15 19  1  0  0  0  0
 16 18  1  1  0  0  0
 16 20  1  0  0  0  0
 19 21  1  0  0  0  0
 20 22  1  0  0  0  0
 21 32  1  1  0  0  0
 22 42  1  6  0  0  0
 23 24  2  0  0  0  0
 23 28  1  0  0  0  0
 24 25  1  0  0  0  0
 25 26  2  0  0  0  0
 26 27  1  0  0  0  0
 26 32  1  0  0  0  0
 27 28  2  0  0  0  0
 27 30  1  0  0  0  0
 28 29  1  0  0  0  0
 30 31  2  0  0  0  0
 31 32  1  0  0  0  0
 33 34  2  0  0  0  0
 33 38  1  0  0  0  0
 34 35  1  0  0  0  0
 35 36  2  0  0  0  0
 36 37  1  0  0  0  0
 36 42  1  0  0  0  0
 37 38  2  0  0  0  0
 37 40  1  0  0  0  0
 38 39  1  0  0  0  0
 40 41  2  0  0  0  0
 41 42  1  0  0  0  0
M  CHG  2   3  -1   4  -1
M  END
>  <CHROM.1>
71.81883364,35.89014986,5.21294678,-34.56206507,-15.62680130,2.96871813,-0.73435062
-0.93148092

>  <Name>
ligand

>  <RI>
0

>  <Rbt.Current_Directory>
/home/itssahil/PROJECTS/Mol_Feturizer/New_Systems/rnas/4QLN

>  <Rbt.Executable>
rbdock ($Id: //depot/dev/client3/rdock/2013.1/src/exe/rbdock.cxx#4 $)

>  <Rbt.Library>
libRbt.so (2013.1, Build901 2013/11/27)

>  <Rbt.Parameter_File>
/export/apps/rDock/src/rDock_2013.1_src/data/scripts/dock_solv.prm

>  <Rbt.Receptor>
prm/pocket_docking_2.prm

>  <SCORE>
-22.1732

>  <SCORE.INTER>
-22.2321

>  <SCORE.INTER.CONST>
1

>  <SCORE.INTER.POLAR>
0

>  <SCORE.INTER.ROT>
2

>  <SCORE.INTER.SOLV>
25.6671

>  <SCORE.INTER.VDW>
-28.3104

>  <SCORE.INTER.norm>
-0.529335

>  <SCORE.INTRA>
-0.384905

>  <SCORE.INTRA.DIHEDRAL>
-0.000415995

>  <SCORE.INTRA.DIHEDRAL.0>
2.39985

>  <SCORE.INTRA.POLAR>
0

>  <SCORE.INTRA.POLAR.0>
0

>  <SCORE.INTRA.REPUL>
0

>  <SCORE.INTRA.REPUL.0>
0

>  <SCORE.INTRA.SOLV>
0.696797

>  <SCORE.INTRA.SOLV.lig_0>
-110.958

>  <SCORE.INTRA.VDW>
-0.733096

>  <SCORE.INTRA.VDW.0>
-2.34644

>  <SCORE.INTRA.norm>
-0.00916441

>  <SCORE.RESTR>
0.443806

>  <SCORE.RESTR.CAVITY>
0.443806

>  <SCORE.RESTR.norm>
0.0105668

>  <SCORE.SYSTEM>
0

>  <SCORE.SYSTEM.CONST>
0

>  <SCORE.SYSTEM.DIHEDRAL>
0

>  <SCORE.SYSTEM.SOLV>
0

>  <SCORE.SYSTEM.norm>
0

>  <SCORE.heavy>
42

>  <SCORE.norm>
-0.527933

>  <RMSD>
2.008

$$$$
ligand
 OpenBabel11021811513D
libRbt.so/2013.1/901 2013/11/27
 42 48  0  0  0  0  0  0  0  0999 V2000
    3.5858  -35.8771  -13.0219 P   0  0  2  0  0  0  0  0  0  0  0  0
    7.4881  -35.9419  -16.2285 P   0  0  1  0  0  0  0  0  0  0  0  0
    3.0834  -37.1876  -12.4623 O   0  5  0  0  0  0  0  0  0  0  0  0
    6.9646  -34.5386  -16.4207 O   0  5  0  0  0  0  0  0  0  0  0  0
    2.7368  -34.6339  -12.9054 O   0  0  0  0  0  0  0  0  0  0  0  0
    8.8364  -36.3269  -16.7882 O   0  0  0  0  0  0  0  0  0  0  0  0
    3.1927  -37.0123  -15.3701 C   0  0  0  0  0  0  0  0  0  0  0  0
    8.2489  -35.4778  -13.7467 C   0  0  0  0  0  0  0  0  0  0  0  0
    3.9458  -36.0980  -14.5752 O   0  0  0  0  0  0  0  0  0  0  0  0
    7.4839  -36.2701  -14.6522 O   0  0  0  0  0  0  0  0  0  0  0  0
    4.0887  -37.6002  -16.4537 C   0  0  1  0  0  0  0  0  0  0  0  0
    7.3712  -35.0475  -12.5781 C   0  0  1  0  0  0  0  0  0  0  0  0
    3.2858  -38.0750  -17.5379 O   0  0  0  0  0  0  0  0  0  0  0  0
    7.9124  -33.8689  -11.9768 O   0  0  0  0  0  0  0  0  0  0  0  0
    5.0441  -36.5555  -17.0052 C   0  0  1  0  0  0  0  0  0  0  0  0
    5.9578  -34.7274  -13.0379 C   0  0  1  0  0  0  0  0  0  0  0  0
    6.3916  -36.9713  -16.8048 O   0  0  0  0  0  0  0  0  0  0  0  0
    5.0239  -35.5690  -12.3680 O   0  0  0  0  0  0  0  0  0  0  0  0
    4.7494  -36.4450  -18.4896 C   0  0  0  0  0  0  0  0  0  0  0  0
    5.7057  -33.2772  -12.6733 C   0  0  0  0  0  0  0  0  0  0  0  0
    3.6238  -37.4299  -18.7687 C   0  0  2  0  0  0  0  0  0  0  0  0
    6.9816  -32.7840  -12.0058 C   0  0  2  0  0  0  0  0  0  0  0  0
    0.4786  -33.2560  -18.2537 N   0  0  0  0  0  0  0  0  0  0  0  0
    1.5520  -33.6280  -17.5321 C   0  0  0  0  0  0  0  0  0  0  0  0
    2.2719  -34.7375  -17.7806 N   0  0  0  0  0  0  0  0  0  0  0  0
    1.9447  -35.5642  -18.8026 C   0  0  0  0  0  0  0  0  0  0  0  0
    0.7825  -35.2253  -19.6390 C   0  0  0  0  0  0  0  0  0  0  0  0
    0.0397  -33.9877  -19.3023 C   0  0  0  0  0  0  0  0  0  0  0  0
   -1.0418  -33.6023  -20.0217 N   0  0  0  0  0  0  0  0  0  0  0  0
    0.6805  -36.1963  -20.5659 N   0  0  0  0  0  0  0  0  0  0  0  0
    1.6874  -37.0794  -20.3437 C   0  0  0  0  0  0  0  0  0  0  0  0
    2.4412  -36.7027  -19.2929 N   0  0  0  0  0  0  0  0  0  0  0  0
   10.3132  -31.3373  -15.7979 N   0  0  0  0  0  0  0  0  0  0  0  0
   10.0308  -32.5599  -15.3111 C   0  0  0  0  0  0  0  0  0  0  0  0
    9.1437  -32.7853  -14.3253 N   0  0  0  0  0  0  0  0  0  0  0  0
    8.4665  -31.7607  -13.7531 C   0  0  0  0  0  0  0  0  0  0  0  0
    8.7202  -30.3929  -14.2314 C   0  0  0  0  0  0  0  0  0  0  0  0
    9.7115  -30.2266  -15.3204 C   0  0  0  0  0  0  0  0  0  0  0  0
   10.0040  -29.0005  -15.8197 N   0  0  0  0  0  0  0  0  0  0  0  0
    7.9290  -29.5798  -13.5062 N   0  0  0  0  0  0  0  0  0  0  0  0
    7.2309  -30.3583  -12.6399 C   0  0  0  0  0  0  0  0  0  0  0  0
    7.5511  -31.6571  -12.7867 N   0  0  0  0  0  0  0  0  0  0  0  0
  1  3  1  1  0  0  0
  1  5  2  0  0  0  0
  1  9  1  0  0  0  0
  1 18  1  0  0  0  0
  2  4  1  6  0  0  0
  2  6  2  0  0  0  0
  2 10  1  0  0  0  0
  2 17  1  0  0  0  0
  7  9  1  0  0  0  0
  8 10  1  0  0  0  0
 11  7  1  1  0  0  0
 11 13  1  0  0  0  0
 11 15  1  0  0  0  0
 12  8  1  6  0  0  0
 12 14  1  0  0  0  0
 12 16  1  0  0  0  0
 13 21  1  0  0  0  0
 14 22  1  0  0  0  0
 15 17  1  6  0  0  0
 15 19  1  0  0  0  0
 16 18  1  1  0  0  0
 16 20  1  0  0  0  0
 19 21  1  0  0  0  0
 20 22  1  0  0  0  0
 21 32  1  1  0  0  0
 22 42  1  6  0  0  0
 23 24  2  0  0  0  0
 23 28  1  0  0  0  0
 24 25  1  0  0  0  0
 25 26  2  0  0  0  0
 26 27  1  0  0  0  0
 26 32  1  0  0  0  0
 27 28  2  0  0  0  0
 27 30  1  0  0  0  0
 28 29  1  0  0  0  0
 30 31  2  0  0  0  0
 31 32  1  0  0  0  0
 33 34  2  0  0  0  0
 33 38  1  0  0  0  0
 34 35  1  0  0  0  0
 35 36  2  0  0  0  0
 36 37  1  0  0  0  0
 36 42  1  0  0  0  0
 37 38  2  0  0  0  0
 37 40  1  0  0  0  0
 38 39  1  0  0  0  0
 40 41  2  0  0  0  0
 41 42  1  0  0  0  0
M  CHG  2   3  -1   4  -1
M  END
>  <CHROM.1>
73.57697582,25.80630996,5.30702008,-34.62191081,-15.61577720,2.98667664,-0.70823936
-0.90187993

>  <Name>
ligand

>  <RI>
0

>  <Rbt.Current_Directory>
/home/itssahil/PROJECTS/Mol_Feturizer/New_Systems/rnas/4QLN

>  <Rbt.Executable>
rbdock ($Id: //depot/dev/client3/rdock/2013.1/src/exe/rbdock.cxx#4 $)

>  <Rbt.Library>
libRbt.so (2013.1, Build901 2013/11/27)

>  <Rbt.Parameter_File>
/export/apps/rDock/src/rDock_2013.1_src/data/scripts/dock_solv.prm

>  <Rbt.Receptor>
prm/pocket_docking_7.prm

>  <SCORE>
-23.709

>  <SCORE.INTER>
-23.4508

>  <SCORE.INTER.CONST>
1

>  <SCORE.INTER.POLAR>
0

>  <SCORE.INTER.ROT>
2

>  <SCORE.INTER.SOLV>
26.1971

>  <SCORE.INTER.VDW>
-29.2996

>  <SCORE.INTER.norm>
-0.558353

>  <SCORE.INTRA>
-0.258162

>  <SCORE.INTRA.DIHEDRAL>
-0.000414234

>  <SCORE.INTRA.DIHEDRAL.0>
2.39985

>  <SCORE.INTRA.POLAR>
0

>  <SCORE.INTRA.POLAR.0>
0

>  <SCORE.INTRA.REPUL>
0

>  <SCORE.INTRA.REPUL.0>
0

>  <SCORE.INTRA.SOLV>
0.275385

>  <SCORE.INTRA.SOLV.lig_0>
-110.958

>  <SCORE.INTRA.VDW>
-0.395647

>  <SCORE.INTRA.VDW.0>
-2.34644

>  <SCORE.INTRA.norm>
-0.00614671

>  <SCORE.RESTR>
0

>  <SCORE.RESTR.CAVITY>
0

>  <SCORE.RESTR.norm>
0

>  <SCORE.SYSTEM>
0

>  <SCORE.SYSTEM.CONST>
0

>  <SCORE.SYSTEM.DIHEDRAL>
0

>  <SCORE.SYSTEM.SOLV>
0

>  <SCORE.SYSTEM.norm>
0

>  <SCORE.heavy>
42

>  <SCORE.norm>
-0.5645

>  <RMSD>
2.008

$$$$
ligand
 OpenBabel11021811513D
libRbt.so/2013.1/901 2013/11/27
 42 48  0  0  0  0  0  0  0  0999 V2000
    9.5761  -35.3256  -15.7427 P   0  0  2  0  0  0  0  0  0  0  0  0
    5.4301  -34.3892  -13.0136 P   0  0  1  0  0  0  0  0  0  0  0  0
   10.8072  -35.8464  -15.0384 O   0  5  0  0  0  0  0  0  0  0  0  0
    5.1005  -33.6895  -14.3106 O   0  5  0  0  0  0  0  0  0  0  0  0
    9.6870  -34.7739  -17.1439 O   0  0  0  0  0  0  0  0  0  0  0  0
    4.3506  -34.6131  -11.9821 O   0  0  0  0  0  0  0  0  0  0  0  0
    9.7090  -33.3569  -13.9925 C   0  0  0  0  0  0  0  0  0  0  0  0
    5.3730  -36.7831  -14.1181 C   0  0  0  0  0  0  0  0  0  0  0  0
    8.9004  -34.2011  -14.8101 O   0  0  0  0  0  0  0  0  0  0  0  0
    6.0959  -35.8128  -13.3639 O   0  0  0  0  0  0  0  0  0  0  0  0
    8.9295  -32.9617  -12.7439 C   0  0  1  0  0  0  0  0  0  0  0  0
    6.2424  -37.2926  -15.2607 C   0  0  1  0  0  0  0  0  0  0  0  0
    9.4697  -31.7540  -12.2006 O   0  0  0  0  0  0  0  0  0  0  0  0
    5.4135  -37.8170  -16.3007 O   0  0  0  0  0  0  0  0  0  0  0  0
    7.4652  -32.7134  -13.0644 C   0  0  1  0  0  0  0  0  0  0  0  0
    7.0829  -36.1742  -15.8559 C   0  0  1  0  0  0  0  0  0  0  0  0
    6.6429  -33.5978  -12.3090 O   0  0  0  0  0  0  0  0  0  0  0  0
    8.4671  -36.4923  -15.7463 O   0  0  0  0  0  0  0  0  0  0  0  0
    7.1780  -31.2755  -12.6740 C   0  0  0  0  0  0  0  0  0  0  0  0
    6.6873  -36.0701  -17.3161 C   0  0  0  0  0  0  0  0  0  0  0  0
    8.4868  -30.7172  -12.1354 C   0  0  2  0  0  0  0  0  0  0  0  0
    5.6227  -37.1347  -17.5396 C   0  0  2  0  0  0  0  0  0  0  0  0
    8.6487  -28.6153  -16.9452 N   0  0  0  0  0  0  0  0  0  0  0  0
    8.1293  -29.7839  -16.5259 C   0  0  0  0  0  0  0  0  0  0  0  0
    8.1603  -30.1996  -15.2463 N   0  0  0  0  0  0  0  0  0  0  0  0
    8.7332  -29.4398  -14.2822 C   0  0  0  0  0  0  0  0  0  0  0  0
    9.3236  -28.1466  -14.6617 C   0  0  0  0  0  0  0  0  0  0  0  0
    9.2508  -27.7584  -16.0903 C   0  0  0  0  0  0  0  0  0  0  0  0
    9.7692  -26.5843  -16.5244 N   0  0  0  0  0  0  0  0  0  0  0  0
    9.8167  -27.6037  -13.5328 N   0  0  0  0  0  0  0  0  0  0  0  0
    9.5652  -28.4715  -12.5195 C   0  0  0  0  0  0  0  0  0  0  0  0
    8.9192  -29.5659  -12.9660 N   0  0  0  0  0  0  0  0  0  0  0  0
    1.8060  -33.7332  -16.3418 N   0  0  0  0  0  0  0  0  0  0  0  0
    2.8957  -34.0967  -15.6404 C   0  0  0  0  0  0  0  0  0  0  0  0
    3.8007  -34.9917  -16.0760 N   0  0  0  0  0  0  0  0  0  0  0  0
    3.6579  -35.5926  -17.2820 C   0  0  0  0  0  0  0  0  0  0  0  0
    2.4912  -35.2471  -18.1088 C   0  0  0  0  0  0  0  0  0  0  0  0
    1.5395  -34.2526  -17.5595 C   0  0  0  0  0  0  0  0  0  0  0  0
    0.4388  -33.8777  -18.2566 N   0  0  0  0  0  0  0  0  0  0  0  0
    2.5917  -35.9743  -19.2375 N   0  0  0  0  0  0  0  0  0  0  0  0
    3.7226  -36.7198  -19.1416 C   0  0  0  0  0  0  0  0  0  0  0  0
    4.3575  -36.4927  -17.9770 N   0  0  0  0  0  0  0  0  0  0  0  0
  1  3  1  1  0  0  0
  1  5  2  0  0  0  0
  1  9  1  0  0  0  0
  1 18  1  0  0  0  0
  2  4  1  6  0  0  0
  2  6  2  0  0  0  0
  2 10  1  0  0  0  0
  2 17  1  0  0  0  0
  7  9  1  0  0  0  0
  8 10  1  0  0  0  0
 11  7  1  6  0  0  0
 11 13  1  0  0  0  0
 11 15  1  0  0  0  0
 12  8  1  1  0  0  0
 12 14  1  0  0  0  0
 12 16  1  0  0  0  0
 13 21  1  0  0  0  0
 14 22  1  0  0  0  0
 15 17  1  1  0  0  0
 15 19  1  0  0  0  0
 16 18  1  6  0  0  0
 16 20  1  0  0  0  0
 19 21  1  0  0  0  0
 20 22  1  0  0  0  0
 21 32  1  6  0  0  0
 22 42  1  1  0  0  0
 23 24  2  0  0  0  0
 23 28  1  0  0  0  0
 24 25  1  0  0  0  0
 25 26  2  0  0  0  0
 26 27  1  0  0  0  0
 26 32  1  0  0  0  0
 27 28  2  0  0  0  0
 27 30  1  0  0  0  0
 28 29  1  0  0  0  0
 30 31  2  0  0  0  0
 31 32  1  0  0  0  0
 33 34  2  0  0  0  0
 33 38  1  0  0  0  0
 34 35  1  0  0  0  0
 35 36  2  0  0  0  0
 36 37  1  0  0  0  0
 36 42  1  0  0  0  0
 37 38  2  0  0  0  0
 37 40  1  0  0  0  0
 38 39  1  0  0  0  0
 40 41  2  0  0  0  0
 41 42  1  0  0  0  0
M  CHG  2   3  -1   4  -1
M  END
>  <CHROM.1>
84.17346094,58.15412870,6.76483709,-33.49891574,-15.17404786,-0.81305839
0.48796857,3.12947979

>  <Name>
ligand

>  <RI>
0

>  <Rbt.Current_Directory>
/home/itssahil/PROJECTS/Mol_Feturizer/New_Systems/rnas/4QLN

>  <Rbt.Executable>
rbdock ($Id: //depot/dev/client3/rdock/2013.1/src/exe/rbdock.cxx#4 $)

>  <Rbt.Library>
libRbt.so (2013.1, Build901 2013/11/27)

>  <Rbt.Parameter_File>
/export/apps/rDock/src/rDock_2013.1_src/data/scripts/dock_solv.prm

>  <Rbt.Receptor>
prm/pocket_docking_3.prm

>  <SCORE>
-23.4239

>  <SCORE.INTER>
-24.6202

>  <SCORE.INTER.CONST>
1

>  <SCORE.INTER.POLAR>
0

>  <SCORE.INTER.ROT>
2

>  <SCORE.INTER.SOLV>
27.0775

>  <SCORE.INTER.VDW>
-30.3726

>  <SCORE.INTER.norm>
-0.586194

>  <SCORE.INTRA>
1.19625

>  <SCORE.INTRA.DIHEDRAL>
0.000325858

>  <SCORE.INTRA.DIHEDRAL.0>
2.39985

>  <SCORE.INTRA.POLAR>
0

>  <SCORE.INTRA.POLAR.0>
0

>  <SCORE.INTRA.REPUL>
0

>  <SCORE.INTRA.REPUL.0>
0

>  <SCORE.INTRA.SOLV>
1.24959

>  <SCORE.INTRA.SOLV.lig_0>
-110.958

>  <SCORE.INTRA.VDW>
0.571296

>  <SCORE.INTRA.VDW.0>
-2.34644

>  <SCORE.INTRA.norm>
0.0284822

>  <SCORE.RESTR>
0

>  <SCORE.RESTR.CAVITY>
0

>  <SCORE.RESTR.norm>
0

>  <SCORE.SYSTEM>
0

>  <SCORE.SYSTEM.CONST>
0

>  <SCORE.SYSTEM.DIHEDRAL>
0

>  <SCORE.SYSTEM.SOLV>
0

>  <SCORE.SYSTEM.norm>
0

>  <SCORE.heavy>
42

>  <SCORE.norm>
-0.557712

>  <RMSD>
2.011

$$$$
ligand
 OpenBabel11021811513D
libRbt.so/2013.1/901 2013/11/27
 42 48  0  0  0  0  0  0  0  0999 V2000
    9.5681  -35.3189  -15.7130 P   0  0  2  0  0  0  0  0  0  0  0  0
    5.4137  -34.3423  -13.0108 P   0  0  1  0  0  0  0  0  0  0  0  0
   10.7936  -35.8395  -14.9988 O   0  5  0  0  0  0  0  0  0  0  0  0
    5.0932  -33.6515  -14.3148 O   0  5  0  0  0  0  0  0  0  0  0  0
    9.6880  -34.7789  -17.1179 O   0  0  0  0  0  0  0  0  0  0  0  0
    4.3284  -34.5531  -11.9826 O   0  0  0  0  0  0  0  0  0  0  0  0
    9.7016  -33.3369  -13.9779 C   0  0  0  0  0  0  0  0  0  0  0  0
    5.3510  -36.7446  -14.0964 C   0  0  0  0  0  0  0  0  0  0  0  0
    8.8931  -34.1840  -14.7925 O   0  0  0  0  0  0  0  0  0  0  0  0
    6.0747  -35.7716  -13.3467 O   0  0  0  0  0  0  0  0  0  0  0  0
    8.9182  -32.9282  -12.7362 C   0  0  1  0  0  0  0  0  0  0  0  0
    6.2234  -37.2672  -15.2308 C   0  0  1  0  0  0  0  0  0  0  0  0
    9.4612  -31.7187  -12.1999 O   0  0  0  0  0  0  0  0  0  0  0  0
    5.3970  -37.7961  -16.2706 O   0  0  0  0  0  0  0  0  0  0  0  0
    7.4565  -32.6760  -13.0654 C   0  0  1  0  0  0  0  0  0  0  0  0
    7.0717  -36.1573  -15.8310 C   0  0  1  0  0  0  0  0  0  0  0  0
    6.6268  -33.5506  -12.3068 O   0  0  0  0  0  0  0  0  0  0  0  0
    8.4539  -36.4806  -15.7125 O   0  0  0  0  0  0  0  0  0  0  0  0
    7.1740  -31.2338  -12.6878 C   0  0  0  0  0  0  0  0  0  0  0  0
    6.6833  -36.0631  -17.2939 C   0  0  0  0  0  0  0  0  0  0  0  0
    8.4828  -30.6770  -12.1476 C   0  0  2  0  0  0  0  0  0  0  0  0
    5.6149  -37.1247  -17.5139 C   0  0  2  0  0  0  0  0  0  0  0  0
    8.6508  -28.6010  -16.9684 N   0  0  0  0  0  0  0  0  0  0  0  0
    8.1209  -29.7622  -16.5417 C   0  0  0  0  0  0  0  0  0  0  0  0
    8.1518  -30.1717  -15.2601 N   0  0  0  0  0  0  0  0  0  0  0  0
    8.7353  -29.4129  -14.3016 C   0  0  0  0  0  0  0  0  0  0  0  0
    9.3375  -28.1277  -14.6894 C   0  0  0  0  0  0  0  0  0  0  0  0
    9.2642  -27.7460  -16.1197 C   0  0  0  0  0  0  0  0  0  0  0  0
    9.7931  -26.5794  -16.5613 N   0  0  0  0  0  0  0  0  0  0  0  0
    9.8397  -27.5842  -13.5648 N   0  0  0  0  0  0  0  0  0  0  0  0
    9.5826  -28.4443  -12.5463 C   0  0  0  0  0  0  0  0  0  0  0  0
    8.9241  -29.5343  -12.9853 N   0  0  0  0  0  0  0  0  0  0  0  0
    1.7872  -33.7258  -16.3441 N   0  0  0  0  0  0  0  0  0  0  0  0
    2.8693  -34.0923  -15.6327 C   0  0  0  0  0  0  0  0  0  0  0  0
    3.7785  -34.9861  -16.0619 N   0  0  0  0  0  0  0  0  0  0  0  0
    3.6481  -35.5826  -17.2715 C   0  0  0  0  0  0  0  0  0  0  0  0
    2.4903  -35.2337  -18.1092 C   0  0  0  0  0  0  0  0  0  0  0  0
    1.5334  -34.2407  -17.5665 C   0  0  0  0  0  0  0  0  0  0  0  0
    0.4402  -33.8629  -18.2737 N   0  0  0  0  0  0  0  0  0  0  0  0
    2.6025  -35.9569  -19.2394 N   0  0  0  0  0  0  0  0  0  0  0  0
    3.7320  -36.7033  -19.1342 C   0  0  0  0  0  0  0  0  0  0  0  0
    4.3547  -36.4806  -17.9622 N   0  0  0  0  0  0  0  0  0  0  0  0
  1  3  1  1  0  0  0
  1  5  2  0  0  0  0
  1  9  1  0  0  0  0
  1 18  1  0  0  0  0
  2  4  1  6  0  0  0
  2  6  2  0  0  0  0
  2 10  1  0  0  0  0
  2 17  1  0  0  0  0
  7  9  1  0  0  0  0
  8 10  1  0  0  0  0
 11  7  1  6  0  0  0
 11 13  1  0  0  0  0
 11 15  1  0  0  0  0
 12  8  1  1  0  0  0
 12 14  1  0  0  0  0
 12 16  1  0  0  0  0
 13 21  1  0  0  0  0
 14 22  1  0  0  0  0
 15 17  1  1  0  0  0
 15 19  1  0  0  0  0
 16 18  1  6  0  0  0
 16 20  1  0  0  0  0
 19 21  1  0  0  0  0
 20 22  1  0  0  0  0
 21 32  1  6  0  0  0
 22 42  1  1  0  0  0
 23 24  2  0  0  0  0
 23 28  1  0  0  0  0
 24 25  1  0  0  0  0
 25 26  2  0  0  0  0
 26 27  1  0  0  0  0
 26 32  1  0  0  0  0
 27 28  2  0  0  0  0
 27 30  1  0  0  0  0
 28 29  1  0  0  0  0
 30 31  2  0  0  0  0
 31 32  1  0  0  0  0
 33 34  2  0  0  0  0
 33 38  1  0  0  0  0
 34 35  1  0  0  0  0
 35 36  2  0  0  0  0
 36 37  1  0  0  0  0
 36 42  1  0  0  0  0
 37 38  2  0  0  0  0
 37 40  1  0  0  0  0
 38 39  1  0  0  0  0
 40 41  2  0  0  0  0
 41 42  1  0  0  0  0
M  CHG  2   3  -1   4  -1
M  END
>  <CHROM.1>
84.74799240,57.37677015,6.75861020,-33.47651070,-15.17023082,-0.80909110
0.49050200,3.12071330

>  <Name>
ligand

>  <RI>
0

>  <Rbt.Current_Directory>
/home/itssahil/PROJECTS/Mol_Feturizer/New_Systems/rnas/4QLN

>  <Rbt.Executable>
rbdock ($Id: //depot/dev/client3/rdock/2013.1/src/exe/rbdock.cxx#4 $)

>  <Rbt.Library>
libRbt.so (2013.1, Build901 2013/11/27)

>  <Rbt.Parameter_File>
/export/apps/rDock/src/rDock_2013.1_src/data/scripts/dock_solv.prm

>  <Rbt.Receptor>
prm/pocket_docking_5.prm

>  <SCORE>
-23.4368

>  <SCORE.INTER>
-24.5545

>  <SCORE.INTER.CONST>
1

>  <SCORE.INTER.POLAR>
0

>  <SCORE.INTER.ROT>
2

>  <SCORE.INTER.SOLV>
27.226

>  <SCORE.INTER.VDW>
-30.3783

>  <SCORE.INTER.norm>
-0.584631

>  <SCORE.INTRA>
1.11768

>  <SCORE.INTRA.DIHEDRAL>
0.000297696

>  <SCORE.INTRA.DIHEDRAL.0>
2.39985

>  <SCORE.INTRA.POLAR>
0

>  <SCORE.INTRA.POLAR.0>
0

>  <SCORE.INTRA.REPUL>
0

>  <SCORE.INTRA.REPUL.0>
0

>  <SCORE.INTRA.SOLV>
1.24467

>  <SCORE.INTRA.SOLV.lig_0>
-110.958

>  <SCORE.INTRA.VDW>
0.495198

>  <SCORE.INTRA.VDW.0>
-2.34644

>  <SCORE.INTRA.norm>
0.0266115

>  <SCORE.RESTR>
0

>  <SCORE.RESTR.CAVITY>
0

>  <SCORE.RESTR.norm>
0

>  <SCORE.SYSTEM>
0

>  <SCORE.SYSTEM.CONST>
0

>  <SCORE.SYSTEM.DIHEDRAL>
0

>  <SCORE.SYSTEM.SOLV>
0

>  <SCORE.SYSTEM.norm>
0

>  <SCORE.heavy>
42

>  <SCORE.norm>
-0.558019

>  <RMSD>
2.012

$$$$
ligand
 OpenBabel11021811513D
libRbt.so/2013.1/901 2013/11/27
 42 48  0  0  0  0  0  0  0  0999 V2000
    3.6814  -35.8744  -12.9579 P   0  0  2  0  0  0  0  0  0  0  0  0
    7.5964  -35.8607  -16.1496 P   0  0  1  0  0  0  0  0  0  0  0  0
    3.2021  -37.1949  -12.4017 O   0  5  0  0  0  0  0  0  0  0  0  0
    7.0468  -34.4675  -16.3423 O   0  5  0  0  0  0  0  0  0  0  0  0
    2.8084  -34.6478  -12.8433 O   0  0  0  0  0  0  0  0  0  0  0  0
    8.9540  -36.2192  -16.7045 O   0  0  0  0  0  0  0  0  0  0  0  0
    3.3191  -37.0142  -15.3088 C   0  0  0  0  0  0  0  0  0  0  0  0
    8.3387  -35.3851  -13.6644 C   0  0  0  0  0  0  0  0  0  0  0  0
    4.0515  -36.0865  -14.5100 O   0  0  0  0  0  0  0  0  0  0  0  0
    7.5926  -36.1908  -14.5737 O   0  0  0  0  0  0  0  0  0  0  0  0
    4.2303  -37.5836  -16.3897 C   0  0  1  0  0  0  0  0  0  0  0  0
    7.4486  -34.9730  -12.4987 C   0  0  1  0  0  0  0  0  0  0  0  0
    3.4408  -38.0724  -17.4774 O   0  0  0  0  0  0  0  0  0  0  0  0
    7.9648  -33.7849  -11.8940 O   0  0  0  0  0  0  0  0  0  0  0  0
    5.1676  -36.5201  -16.9363 C   0  0  1  0  0  0  0  0  0  0  0  0
    6.0310  -34.6795  -12.9636 C   0  0  1  0  0  0  0  0  0  0  0  0
    6.5221  -36.9103  -16.7312 O   0  0  0  0  0  0  0  0  0  0  0  0
    5.1109  -35.5395  -12.2982 O   0  0  0  0  0  0  0  0  0  0  0  0
    4.8765  -36.4136  -18.4217 C   0  0  0  0  0  0  0  0  0  0  0  0
    5.7497  -33.2348  -12.5983 C   0  0  0  0  0  0  0  0  0  0  0  0
    3.7710  -37.4195  -18.7062 C   0  0  2  0  0  0  0  0  0  0  0  0
    7.0135  -32.7180  -11.9255 C   0  0  2  0  0  0  0  0  0  0  0  0
    0.5509  -33.3014  -18.2054 N   0  0  0  0  0  0  0  0  0  0  0  0
    1.6293  -33.6528  -17.4810 C   0  0  0  0  0  0  0  0  0  0  0  0
    2.3694  -34.7498  -17.7259 N   0  0  0  0  0  0  0  0  0  0  0  0
    2.0590  -35.5841  -18.7470 C   0  0  0  0  0  0  0  0  0  0  0  0
    0.8927  -35.2676  -19.5863 C   0  0  0  0  0  0  0  0  0  0  0  0
    0.1272  -34.0427  -19.2535 C   0  0  0  0  0  0  0  0  0  0  0  0
   -0.9595  -33.6780  -19.9757 N   0  0  0  0  0  0  0  0  0  0  0  0
    0.8098  -36.2419  -20.5116 N   0  0  0  0  0  0  0  0  0  0  0  0
    1.8319  -37.1065  -20.2857 C   0  0  0  0  0  0  0  0  0  0  0  0
    2.5767  -36.7145  -19.2342 N   0  0  0  0  0  0  0  0  0  0  0  0
    7.6297  -30.5580  -16.6718 N   0  0  0  0  0  0  0  0  0  0  0  0
    7.0202  -31.7029  -16.3121 C   0  0  0  0  0  0  0  0  0  0  0  0
    6.9371  -32.1384  -15.0420 N   0  0  0  0  0  0  0  0  0  0  0  0
    7.4798  -31.4242  -14.0264 C   0  0  0  0  0  0  0  0  0  0  0  0
    8.1636  -30.1599  -14.3394 C   0  0  0  0  0  0  0  0  0  0  0  0
    8.2128  -29.7480  -15.7621 C   0  0  0  0  0  0  0  0  0  0  0  0
    8.8231  -28.5968  -16.1369 N   0  0  0  0  0  0  0  0  0  0  0  0
    8.6024  -29.6608  -13.1684 N   0  0  0  0  0  0  0  0  0  0  0  0
    8.2326  -30.5291  -12.1920 C   0  0  0  0  0  0  0  0  0  0  0  0
    7.5642  -31.5795  -12.7030 N   0  0  0  0  0  0  0  0  0  0  0  0
  1  3  1  1  0  0  0
  1  5  2  0  0  0  0
  1  9  1  0  0  0  0
  1 18  1  0  0  0  0
  2  4  1  6  0  0  0
  2  6  2  0  0  0  0
  2 10  1  0  0  0  0
  2 17  1  0  0  0  0
  7  9  1  0  0  0  0
  8 10  1  0  0  0  0
 11  7  1  1  0  0  0
 11 13  1  0  0  0  0
 11 15  1  0  0  0  0
 12  8  1  6  0  0  0
 12 14  1  0  0  0  0
 12 16  1  0  0  0  0
 13 21  1  0  0  0  0
 14 22  1  0  0  0  0
 15 17  1  6  0  0  0
 15 19  1  0  0  0  0
 16 18  1  1  0  0  0
 16 20  1  0  0  0  0
 19 21  1  0  0  0  0
 20 22  1  0  0  0  0
 21 32  1  1  0  0  0
 22 42  1  6  0  0  0
 23 24  2  0  0  0  0
 23 28  1  0  0  0  0
 24 25  1  0  0  0  0
 25 26  2  0  0  0  0
 26 27  1  0  0  0  0
 26 32  1  0  0  0  0
 27 28  2  0  0  0  0
 27 30  1  0  0  0  0
 28 29  1  0  0  0  0
 30 31  2  0  0  0  0
 31 32  1  0  0  0  0
 33 34  2  0  0  0  0
 33 38  1  0  0  0  0
 34 35  1  0  0  0  0
 35 36  2  0  0  0  0
 36 37  1  0  0  0  0
 36 42  1  0  0  0  0
 37 38  2  0  0  0  0
 37 40  1  0  0  0  0
 38 39  1  0  0  0  0
 40 41  2  0  0  0  0
 41 42  1  0  0  0  0
M  CHG  2   3  -1   4  -1
M  END
>  <CHROM.1>
73.79139175,86.51655811,5.16671404,-34.52992881,-15.62390154,-3.08729736
-0.80538790,-0.57987201

>  <Name>
ligand

>  <RI>
0

>  <Rbt.Current_Directory>
/home/itssahil/PROJECTS/Mol_Feturizer/New_Systems/rnas/4QLN

>  <Rbt.Executable>
rbdock ($Id: //depot/dev/client3/rdock/2013.1/src/exe/rbdock.cxx#4 $)

>  <Rbt.Library>
libRbt.so (2013.1, Build901 2013/11/27)

>  <Rbt.Parameter_File>
/export/apps/rDock/src/rDock_2013.1_src/data/scripts/dock_solv.prm

>  <Rbt.Receptor>
prm/pocket_docking_3.prm

>  <SCORE>
-25.1788

>  <SCORE.INTER>
-26.0993

>  <SCORE.INTER.CONST>
1

>  <SCORE.INTER.POLAR>
0

>  <SCORE.INTER.ROT>
2

>  <SCORE.INTER.SOLV>
27.6417

>  <SCORE.INTER.VDW>
-31.5468

>  <SCORE.INTER.norm>
-0.621413

>  <SCORE.INTRA>
0.920569

>  <SCORE.INTRA.DIHEDRAL>
0.00106223

>  <SCORE.INTRA.DIHEDRAL.0>
2.39985

>  <SCORE.INTRA.POLAR>
0

>  <SCORE.INTRA.POLAR.0>
0

>  <SCORE.INTRA.REPUL>
0

>  <SCORE.INTRA.REPUL.0>
0

>  <SCORE.INTRA.SOLV>
0.815771

>  <SCORE.INTRA.SOLV.lig_0>
-110.958

>  <SCORE.INTRA.VDW>
0.512153

>  <SCORE.INTRA.VDW.0>
-2.34644

>  <SCORE.INTRA.norm>
0.0219183

>  <SCORE.RESTR>
0

>  <SCORE.RESTR.CAVITY>
0

>  <SCORE.RESTR.norm>
0

>  <SCORE.SYSTEM>
0

>  <SCORE.SYSTEM.CONST>
0

>  <SCORE.SYSTEM.DIHEDRAL>
0

>  <SCORE.SYSTEM.SOLV>
0

>  <SCORE.SYSTEM.norm>
0

>  <SCORE.heavy>
42

>  <SCORE.norm>
-0.599495

>  <RMSD>
2.013

$$$$
ligand
 OpenBabel11021811513D
libRbt.so/2013.1/901 2013/11/27
 42 48  0  0  0  0  0  0  0  0999 V2000
    9.5722  -35.2640  -15.8043 P   0  0  2  0  0  0  0  0  0  0  0  0
    5.4463  -34.3721  -13.0303 P   0  0  1  0  0  0  0  0  0  0  0  0
   10.8129  -35.7825  -15.1152 O   0  5  0  0  0  0  0  0  0  0  0  0
    5.1005  -33.6649  -14.3190 O   0  5  0  0  0  0  0  0  0  0  0  0
    9.6669  -34.7014  -17.2024 O   0  0  0  0  0  0  0  0  0  0  0  0
    4.3777  -34.6098  -11.9906 O   0  0  0  0  0  0  0  0  0  0  0  0
    9.7098  -33.3072  -14.0410 C   0  0  0  0  0  0  0  0  0  0  0  0
    5.3931  -36.7581  -14.1517 C   0  0  0  0  0  0  0  0  0  0  0  0
    8.8986  -34.1503  -14.8573 O   0  0  0  0  0  0  0  0  0  0  0  0
    6.1172  -35.7891  -13.3972 O   0  0  0  0  0  0  0  0  0  0  0  0
    8.9396  -32.9257  -12.7825 C   0  0  1  0  0  0  0  0  0  0  0  0
    6.2548  -37.2542  -15.3060 C   0  0  1  0  0  0  0  0  0  0  0  0
    9.4777  -31.7189  -12.2353 O   0  0  0  0  0  0  0  0  0  0  0  0
    5.4193  -37.7759  -16.3422 O   0  0  0  0  0  0  0  0  0  0  0  0
    7.4709  -32.6839  -13.0875 C   0  0  1  0  0  0  0  0  0  0  0  0
    7.0832  -36.1265  -15.9007 C   0  0  1  0  0  0  0  0  0  0  0  0
    6.6609  -33.5786  -12.3311 O   0  0  0  0  0  0  0  0  0  0  0  0
    8.4702  -36.4371  -15.8063 O   0  0  0  0  0  0  0  0  0  0  0  0
    7.1789  -31.2506  -12.6840 C   0  0  0  0  0  0  0  0  0  0  0  0
    6.6734  -36.0142  -17.3564 C   0  0  0  0  0  0  0  0  0  0  0  0
    8.4894  -30.6884  -12.1534 C   0  0  2  0  0  0  0  0  0  0  0  0
    5.6130  -37.0834  -17.5779 C   0  0  2  0  0  0  0  0  0  0  0  0
    8.6494  -28.5781  -16.9596 N   0  0  0  0  0  0  0  0  0  0  0  0
    8.1479  -29.7563  -16.5455 C   0  0  0  0  0  0  0  0  0  0  0  0
    8.1769  -30.1729  -15.2662 N   0  0  0  0  0  0  0  0  0  0  0  0
    8.7289  -29.4042  -14.2970 C   0  0  0  0  0  0  0  0  0  0  0  0
    9.2988  -28.1002  -14.6706 C   0  0  0  0  0  0  0  0  0  0  0  0
    9.2297  -27.7116  -16.0993 C   0  0  0  0  0  0  0  0  0  0  0  0
    9.7303  -26.5280  -16.5282 N   0  0  0  0  0  0  0  0  0  0  0  0
    9.7738  -27.5500  -13.5375 N   0  0  0  0  0  0  0  0  0  0  0  0
    9.5303  -28.4234  -12.5270 C   0  0  0  0  0  0  0  0  0  0  0  0
    8.9072  -29.5285  -12.9795 N   0  0  0  0  0  0  0  0  0  0  0  0
    1.7846  -33.7179  -16.3174 N   0  0  0  0  0  0  0  0  0  0  0  0
    2.8824  -34.0807  -15.6285 C   0  0  0  0  0  0  0  0  0  0  0  0
    3.7895  -34.9657  -16.0797 N   0  0  0  0  0  0  0  0  0  0  0  0
    3.6405  -35.5566  -17.2899 C   0  0  0  0  0  0  0  0  0  0  0  0
    2.4647  -35.2112  -18.1038 C   0  0  0  0  0  0  0  0  0  0  0  0
    1.5113  -34.2280  -17.5376 C   0  0  0  0  0  0  0  0  0  0  0  0
    0.4023  -33.8540  -18.2220 N   0  0  0  0  0  0  0  0  0  0  0  0
    2.5605  -35.9275  -19.2398 N   0  0  0  0  0  0  0  0  0  0  0  0
    3.6969  -36.6665  -19.1601 C   0  0  0  0  0  0  0  0  0  0  0  0
    4.3401  -36.4458  -17.9988 N   0  0  0  0  0  0  0  0  0  0  0  0
  1  3  1  1  0  0  0
  1  5  2  0  0  0  0
  1  9  1  0  0  0  0
  1 18  1  0  0  0  0
  2  4  1  6  0  0  0
  2  6  2  0  0  0  0
  2 10  1  0  0  0  0
  2 17  1  0  0  0  0
  7  9  1  0  0  0  0
  8 10  1  0  0  0  0
 11  7  1  6  0  0  0
 11 13  1  0  0  0  0
 11 15  1  0  0  0  0
 12  8  1  1  0  0  0
 12 14  1  0  0  0  0
 12 16  1  0  0  0  0
 13 21  1  0  0  0  0
 14 22  1  0  0  0  0
 15 17  1  1  0  0  0
 15 19  1  0  0  0  0
 16 18  1  6  0  0  0
 16 20  1  0  0  0  0
 19 21  1  0  0  0  0
 20 22  1  0  0  0  0
 21 32  1  6  0  0  0
 22 42  1  1  0  0  0
 23 24  2  0  0  0  0
 23 28  1  0  0  0  0
 24 25  1  0  0  0  0
 25 26  2  0  0  0  0
 26 27  1  0  0  0  0
 26 32  1  0  0  0  0
 27 28  2  0  0  0  0
 27 30  1  0  0  0  0
 28 29  1  0  0  0  0
 30 31  2  0  0  0  0
 31 32  1  0  0  0  0
 33 34  2  0  0  0  0
 33 38  1  0  0  0  0
 34 35  1  0  0  0  0
 35 36  2  0  0  0  0
 36 37  1  0  0  0  0
 36 42  1  0  0  0  0
 37 38  2  0  0  0  0
 37 40  1  0  0  0  0
 38 39  1  0  0  0  0
 40 41  2  0  0  0  0
 41 42  1  0  0  0  0
M  CHG  2   3  -1   4  -1
M  END
>  <CHROM.1>
82.94415591,58.03448874,6.75995933,-33.46079875,-15.19703717,-0.81803862
0.47669991,3.13988000

>  <Name>
ligand

>  <RI>
0

>  <Rbt.Current_Directory>
/home/itssahil/PROJECTS/Mol_Feturizer/New_Systems/rnas/4QLN

>  <Rbt.Executable>
rbdock ($Id: //depot/dev/client3/rdock/2013.1/src/exe/rbdock.cxx#4 $)

>  <Rbt.Library>
libRbt.so (2013.1, Build901 2013/11/27)

>  <Rbt.Parameter_File>
/export/apps/rDock/src/rDock_2013.1_src/data/scripts/dock_solv.prm

>  <Rbt.Receptor>
prm/pocket_docking_5.prm

>  <SCORE>
-23.385

>  <SCORE.INTER>
-24.5043

>  <SCORE.INTER.CONST>
1

>  <SCORE.INTER.POLAR>
0

>  <SCORE.INTER.ROT>
2

>  <SCORE.INTER.SOLV>
27.2336

>  <SCORE.INTER.VDW>
-30.3474

>  <SCORE.INTER.norm>
-0.583436

>  <SCORE.INTRA>
1.11927

>  <SCORE.INTRA.DIHEDRAL>
0.000315593

>  <SCORE.INTRA.DIHEDRAL.0>
2.39985

>  <SCORE.INTRA.POLAR>
0

>  <SCORE.INTRA.POLAR.0>
0

>  <SCORE.INTRA.REPUL>
0

>  <SCORE.INTRA.REPUL.0>
0

>  <SCORE.INTRA.SOLV>
1.2509

>  <SCORE.INTRA.SOLV.lig_0>
-110.958

>  <SCORE.INTRA.VDW>
0.493659

>  <SCORE.INTRA.VDW.0>
-2.34644

>  <SCORE.INTRA.norm>
0.0266493

>  <SCORE.RESTR>
0

>  <SCORE.RESTR.CAVITY>
0

>  <SCORE.RESTR.norm>
0

>  <SCORE.SYSTEM>
0

>  <SCORE.SYSTEM.CONST>
0

>  <SCORE.SYSTEM.DIHEDRAL>
0

>  <SCORE.SYSTEM.SOLV>
0

>  <SCORE.SYSTEM.norm>
0

>  <SCORE.heavy>
42

>  <SCORE.norm>
-0.556787

>  <RMSD>
2.014

$$$$
ligand
 OpenBabel11021811513D
libRbt.so/2013.1/901 2013/11/27
 42 48  0  0  0  0  0  0  0  0999 V2000
    3.6119  -35.8447  -12.9631 P   0  0  2  0  0  0  0  0  0  0  0  0
    7.5387  -35.9003  -16.1398 P   0  0  1  0  0  0  0  0  0  0  0  0
    3.1103  -37.1561  -12.4049 O   0  5  0  0  0  0  0  0  0  0  0  0
    7.0113  -34.4993  -16.3386 O   0  5  0  0  0  0  0  0  0  0  0  0
    2.7573  -34.6045  -12.8553 O   0  0  0  0  0  0  0  0  0  0  0  0
    8.8927  -36.2811  -16.6885 O   0  0  0  0  0  0  0  0  0  0  0  0
    3.2411  -36.9857  -15.3121 C   0  0  0  0  0  0  0  0  0  0  0  0
    8.2788  -35.4288  -13.6532 C   0  0  0  0  0  0  0  0  0  0  0  0
    3.9845  -36.0670  -14.5132 O   0  0  0  0  0  0  0  0  0  0  0  0
    7.5238  -36.2256  -14.5629 O   0  0  0  0  0  0  0  0  0  0  0  0
    4.1475  -37.5721  -16.3878 C   0  0  1  0  0  0  0  0  0  0  0  0
    7.3907  -34.9997  -12.4921 C   0  0  1  0  0  0  0  0  0  0  0  0
    3.3547  -38.0520  -17.4772 O   0  0  0  0  0  0  0  0  0  0  0  0
    7.9227  -33.8179  -11.8888 O   0  0  0  0  0  0  0  0  0  0  0  0
    5.1031  -36.5247  -16.9339 C   0  0  1  0  0  0  0  0  0  0  0  0
    5.9796  -34.6859  -12.9632 C   0  0  1  0  0  0  0  0  0  0  0  0
    6.4506  -36.9350  -16.7225 O   0  0  0  0  0  0  0  0  0  0  0  0
    5.0438  -35.5298  -12.2989 O   0  0  0  0  0  0  0  0  0  0  0  0
    4.8192  -36.4180  -18.4207 C   0  0  0  0  0  0  0  0  0  0  0  0
    5.7191  -33.2360  -12.6032 C   0  0  0  0  0  0  0  0  0  0  0  0
    3.6996  -37.4078  -18.7065 C   0  0  2  0  0  0  0  0  0  0  0  0
    6.9880  -32.7367  -11.9270 C   0  0  2  0  0  0  0  0  0  0  0  0
    0.5399  -33.2405  -18.2286 N   0  0  0  0  0  0  0  0  0  0  0  0
    1.6098  -33.6064  -17.4989 C   0  0  0  0  0  0  0  0  0  0  0  0
    2.3343  -34.7150  -17.7383 N   0  0  0  0  0  0  0  0  0  0  0  0
    2.0156  -35.5469  -18.7587 C   0  0  0  0  0  0  0  0  0  0  0  0
    0.8577  -35.2148  -19.6036 C   0  0  0  0  0  0  0  0  0  0  0  0
    0.1094  -33.9778  -19.2768 C   0  0  0  0  0  0  0  0  0  0  0  0
   -0.9688  -33.5985  -20.0044 N   0  0  0  0  0  0  0  0  0  0  0  0
    0.7639  -36.1900  -20.5269 N   0  0  0  0  0  0  0  0  0  0  0  0
    1.7719  -37.0694  -20.2949 C   0  0  0  0  0  0  0  0  0  0  0  0
    2.5182  -36.6861  -19.2411 N   0  0  0  0  0  0  0  0  0  0  0  0
    7.7191  -30.6376  -16.6843 N   0  0  0  0  0  0  0  0  0  0  0  0
    7.0991  -31.7768  -16.3246 C   0  0  0  0  0  0  0  0  0  0  0  0
    6.9855  -32.1961  -15.0514 N   0  0  0  0  0  0  0  0  0  0  0  0
    7.5058  -31.4703  -14.0324 C   0  0  0  0  0  0  0  0  0  0  0  0
    8.1993  -30.2112  -14.3452 C   0  0  0  0  0  0  0  0  0  0  0  0
    8.2826  -29.8173  -15.7715 C   0  0  0  0  0  0  0  0  0  0  0  0
    8.9038  -28.6720  -16.1463 N   0  0  0  0  0  0  0  0  0  0  0  0
    8.6118  -29.6982  -13.1706 N   0  0  0  0  0  0  0  0  0  0  0  0
    8.2176  -30.5535  -12.1924 C   0  0  0  0  0  0  0  0  0  0  0  0
    7.5591  -31.6090  -12.7056 N   0  0  0  0  0  0  0  0  0  0  0  0
  1  3  1  1  0  0  0
  1  5  2  0  0  0  0
  1  9  1  0  0  0  0
  1 18  1  0  0  0  0
  2  4  1  6  0  0  0
  2  6  2  0  0  0  0
  2 10  1  0  0  0  0
  2 17  1  0  0  0  0
  7  9  1  0  0  0  0
  8 10  1  0  0  0  0
 11  7  1  1  0  0  0
 11 13  1  0  0  0  0
 11 15  1  0  0  0  0
 12  8  1  6  0  0  0
 12 14  1  0  0  0  0
 12 16  1  0  0  0  0
 13 21  1  0  0  0  0
 14 22  1  0  0  0  0
 15 17  1  6  0  0  0
 15 19  1  0  0  0  0
 16 18  1  1  0  0  0
 16 20  1  0  0  0  0
 19 21  1  0  0  0  0
 20 22  1  0  0  0  0
 21 32  1  1  0  0  0
 22 42  1  6  0  0  0
 23 24  2  0  0  0  0
 23 28  1  0  0  0  0
 24 25  1  0  0  0  0
 25 26  2  0  0  0  0
 26 27  1  0  0  0  0
 26 32  1  0  0  0  0
 27 28  2  0  0  0  0
 27 30  1  0  0  0  0
 28 29  1  0  0  0  0
 30 31  2  0  0  0  0
 31 32  1  0  0  0  0
 33 34  2  0  0  0  0
 33 38  1  0  0  0  0
 34 35  1  0  0  0  0
 35 36  2  0  0  0  0
 36 37  1  0  0  0  0
 36 42  1  0  0  0  0
 37 38  2  0  0  0  0
 37 40  1  0  0  0  0
 38 39  1  0  0  0  0
 40 41  2  0  0  0  0
 41 42  1  0  0  0  0
M  CHG  2   3  -1   4  -1
M  END
>  <CHROM.1>
73.75081152,85.05240783,5.13285374,-34.53407680,-15.62770938,-3.11802765
-0.79860327,-0.61129380

>  <Name>
ligand

>  <RI>
0

>  <Rbt.Current_Directory>
/home/itssahil/PROJECTS/Mol_Feturizer/New_Systems/rnas/4QLN

>  <Rbt.Executable>
rbdock ($Id: //depot/dev/client3/rdock/2013.1/src/exe/rbdock.cxx#4 $)

>  <Rbt.Library>
libRbt.so (2013.1, Build901 2013/11/27)

>  <Rbt.Parameter_File>
/export/apps/rDock/src/rDock_2013.1_src/data/scripts/dock_solv.prm

>  <Rbt.Receptor>
prm/pocket_docking_6.prm

>  <SCORE>
-25.2956

>  <SCORE.INTER>
-26.2663

>  <SCORE.INTER.CONST>
1

>  <SCORE.INTER.POLAR>
0

>  <SCORE.INTER.ROT>
2

>  <SCORE.INTER.SOLV>
27.495

>  <SCORE.INTER.VDW>
-31.6092

>  <SCORE.INTER.norm>
-0.625388

>  <SCORE.INTRA>
0.970756

>  <SCORE.INTRA.DIHEDRAL>
0.00104915

>  <SCORE.INTRA.DIHEDRAL.0>
2.39985

>  <SCORE.INTRA.POLAR>
0

>  <SCORE.INTRA.POLAR.0>
0

>  <SCORE.INTRA.REPUL>
0

>  <SCORE.INTRA.REPUL.0>
0

>  <SCORE.INTRA.SOLV>
0.869385

>  <SCORE.INTRA.SOLV.lig_0>
-110.958

>  <SCORE.INTRA.VDW>
0.535539

>  <SCORE.INTRA.VDW.0>
-2.34644

>  <SCORE.INTRA.norm>
0.0231132

>  <SCORE.RESTR>
0

>  <SCORE.RESTR.CAVITY>
0

>  <SCORE.RESTR.norm>
0

>  <SCORE.SYSTEM>
0

>  <SCORE.SYSTEM.CONST>
0

>  <SCORE.SYSTEM.DIHEDRAL>
0

>  <SCORE.SYSTEM.SOLV>
0

>  <SCORE.SYSTEM.norm>
0

>  <SCORE.heavy>
42

>  <SCORE.norm>
-0.602275

>  <RMSD>
2.036

$$$$
ligand
 OpenBabel11021811513D
libRbt.so/2013.1/901 2013/11/27
 42 48  0  0  0  0  0  0  0  0999 V2000
    3.5731  -35.8423  -12.9618 P   0  0  2  0  0  0  0  0  0  0  0  0
    7.5073  -35.9080  -16.1291 P   0  0  1  0  0  0  0  0  0  0  0  0
    3.0699  -37.1520  -12.4011 O   0  5  0  0  0  0  0  0  0  0  0  0
    6.9808  -34.5074  -16.3331 O   0  5  0  0  0  0  0  0  0  0  0  0
    2.7186  -34.6016  -12.8596 O   0  0  0  0  0  0  0  0  0  0  0  0
    8.8625  -36.2907  -16.6735 O   0  0  0  0  0  0  0  0  0  0  0  0
    3.2075  -36.9899  -15.3084 C   0  0  0  0  0  0  0  0  0  0  0  0
    8.2417  -35.4296  -13.6421 C   0  0  0  0  0  0  0  0  0  0  0  0
    3.9493  -36.0691  -14.5103 O   0  0  0  0  0  0  0  0  0  0  0  0
    7.4887  -36.2288  -14.5514 O   0  0  0  0  0  0  0  0  0  0  0  0
    4.1163  -37.5796  -16.3803 C   0  0  1  0  0  0  0  0  0  0  0  0
    7.3510  -34.9970  -12.4843 C   0  0  1  0  0  0  0  0  0  0  0  0
    3.3259  -38.0623  -17.4701 O   0  0  0  0  0  0  0  0  0  0  0  0
    7.8820  -33.8136  -11.8832 O   0  0  0  0  0  0  0  0  0  0  0  0
    5.0734  -36.5340  -16.9271 C   0  0  1  0  0  0  0  0  0  0  0  0
    5.9411  -34.6841  -12.9596 C   0  0  1  0  0  0  0  0  0  0  0  0
    6.4203  -36.9440  -16.7114 O   0  0  0  0  0  0  0  0  0  0  0  0
    5.0036  -35.5259  -12.2951 O   0  0  0  0  0  0  0  0  0  0  0  0
    4.7931  -36.4315  -18.4149 C   0  0  0  0  0  0  0  0  0  0  0  0
    5.6801  -33.2331  -12.6043 C   0  0  0  0  0  0  0  0  0  0  0  0
    3.6738  -37.4217  -18.7005 C   0  0  2  0  0  0  0  0  0  0  0  0
    6.9476  -32.7323  -11.9266 C   0  0  2  0  0  0  0  0  0  0  0  0
    0.5028  -33.2622  -18.2303 N   0  0  0  0  0  0  0  0  0  0  0  0
    1.5695  -33.6276  -17.4956 C   0  0  0  0  0  0  0  0  0  0  0  0
    2.2976  -34.7341  -17.7335 N   0  0  0  0  0  0  0  0  0  0  0  0
    1.9862  -35.5642  -18.7576 C   0  0  0  0  0  0  0  0  0  0  0  0
    0.8323  -35.2326  -19.6081 C   0  0  0  0  0  0  0  0  0  0  0  0
    0.0796  -33.9979  -19.2825 C   0  0  0  0  0  0  0  0  0  0  0  0
   -0.9953  -33.6192  -20.0152 N   0  0  0  0  0  0  0  0  0  0  0  0
    0.7457  -36.2058  -20.5342 N   0  0  0  0  0  0  0  0  0  0  0  0
    1.7542  -37.0836  -20.2987 C   0  0  0  0  0  0  0  0  0  0  0  0
    2.4939  -36.7013  -19.2399 N   0  0  0  0  0  0  0  0  0  0  0  0
    7.6653  -30.6324  -16.6856 N   0  0  0  0  0  0  0  0  0  0  0  0
    7.0409  -31.7684  -16.3238 C   0  0  0  0  0  0  0  0  0  0  0  0
    6.9317  -32.1884  -15.0505 N   0  0  0  0  0  0  0  0  0  0  0  0
    7.4614  -31.4665  -14.0335 C   0  0  0  0  0  0  0  0  0  0  0  0
    8.1602  -30.2110  -14.3486 C   0  0  0  0  0  0  0  0  0  0  0  0
    8.2381  -29.8161  -15.7749 C   0  0  0  0  0  0  0  0  0  0  0  0
    8.8636  -28.6738  -16.1519 N   0  0  0  0  0  0  0  0  0  0  0  0
    8.5816  -29.7015  -13.1757 N   0  0  0  0  0  0  0  0  0  0  0  0
    8.1878  -30.5556  -12.1963 C   0  0  0  0  0  0  0  0  0  0  0  0
    7.5208  -31.6069  -12.7071 N   0  0  0  0  0  0  0  0  0  0  0  0
  1  3  1  1  0  0  0
  1  5  2  0  0  0  0
  1  9  1  0  0  0  0
  1 18  1  0  0  0  0
  2  4  1  6  0  0  0
  2  6  2  0  0  0  0
  2 10  1  0  0  0  0
  2 17  1  0  0  0  0
  7  9  1  0  0  0  0
  8 10  1  0  0  0  0
 11  7  1  1  0  0  0
 11 13  1  0  0  0  0
 11 15  1  0  0  0  0
 12  8  1  6  0  0  0
 12 14  1  0  0  0  0
 12 16  1  0  0  0  0
 13 21  1  0  0  0  0
 14 22  1  0  0  0  0
 15 17  1  6  0  0  0
 15 19  1  0  0  0  0
 16 18  1  1  0  0  0
 16 20  1  0  0  0  0
 19 21  1  0  0  0  0
 20 22  1  0  0  0  0
 21 32  1  1  0  0  0
 22 42  1  6  0  0  0
 23 24  2  0  0  0  0
 23 28  1  0  0  0  0
 24 25  1  0  0  0  0
 25 26  2  0  0  0  0
 26 27  1  0  0  0  0
 26 32  1  0  0  0  0
 27 28  2  0  0  0  0
 27 30  1  0  0  0  0
 28 29  1  0  0  0  0
 30 31  2  0  0  0  0
 31 32  1  0  0  0  0
 33 34  2  0  0  0  0
 33 38  1  0  0  0  0
 34 35  1  0  0  0  0
 35 36  2  0  0  0  0
 36 37  1  0  0  0  0
 36 42  1  0  0  0  0
 37 38  2  0  0  0  0
 37 40  1  0  0  0  0
 38 39  1  0  0  0  0
 40 41  2  0  0  0  0
 41 42  1  0  0  0  0
M  CHG  2   3  -1   4  -1
M  END
>  <CHROM.1>
73.37794593,85.62609676,5.09766655,-34.53927741,-15.62537993,-3.11637460
-0.80049428,-0.61091901

>  <Name>
ligand

>  <RI>
0

>  <Rbt.Current_Directory>
/home/itssahil/PROJECTS/Mol_Feturizer/New_Systems/rnas/4QLN

>  <Rbt.Executable>
rbdock ($Id: //depot/dev/client3/rdock/2013.1/src/exe/rbdock.cxx#4 $)

>  <Rbt.Library>
libRbt.so (2013.1, Build901 2013/11/27)

>  <Rbt.Parameter_File>
/export/apps/rDock/src/rDock_2013.1_src/data/scripts/dock_solv.prm

>  <Rbt.Receptor>
prm/pocket_docking_3.prm

>  <SCORE>
-25.4344

>  <SCORE.INTER>
-26.3618

>  <SCORE.INTER.CONST>
1

>  <SCORE.INTER.POLAR>
0

>  <SCORE.INTER.ROT>
2

>  <SCORE.INTER.SOLV>
27.6058

>  <SCORE.INTER.VDW>
-31.7098

>  <SCORE.INTER.norm>
-0.627663

>  <SCORE.INTRA>
0.927446

>  <SCORE.INTRA.DIHEDRAL>
0.00105075

>  <SCORE.INTRA.DIHEDRAL.0>
2.39985

>  <SCORE.INTRA.POLAR>
0

>  <SCORE.INTRA.POLAR.0>
0

>  <SCORE.INTRA.REPUL>
0

>  <SCORE.INTRA.REPUL.0>
0

>  <SCORE.INTRA.SOLV>
0.848975

>  <SCORE.INTRA.SOLV.lig_0>
-110.958

>  <SCORE.INTRA.VDW>
0.502433

>  <SCORE.INTRA.VDW.0>
-2.34644

>  <SCORE.INTRA.norm>
0.022082

>  <SCORE.RESTR>
0

>  <SCORE.RESTR.CAVITY>
0

>  <SCORE.RESTR.norm>
0

>  <SCORE.SYSTEM>
0

>  <SCORE.SYSTEM.CONST>
0

>  <SCORE.SYSTEM.DIHEDRAL>
0

>  <SCORE.SYSTEM.SOLV>
0

>  <SCORE.SYSTEM.norm>
0

>  <SCORE.heavy>
42

>  <SCORE.norm>
-0.605581

>  <RMSD>
2.050

$$$$
ligand
 OpenBabel11021811513D
libRbt.so/2013.1/901 2013/11/27
 42 48  0  0  0  0  0  0  0  0999 V2000
    3.5523  -35.8214  -12.9656 P   0  0  2  0  0  0  0  0  0  0  0  0
    7.5044  -35.9343  -16.1091 P   0  0  1  0  0  0  0  0  0  0  0  0
    3.0344  -37.1244  -12.4025 O   0  5  0  0  0  0  0  0  0  0  0  0
    6.9913  -34.5301  -16.3220 O   0  5  0  0  0  0  0  0  0  0  0  0
    2.7080  -34.5729  -12.8735 O   0  0  0  0  0  0  0  0  0  0  0  0
    8.8595  -36.3310  -16.6439 O   0  0  0  0  0  0  0  0  0  0  0  0
    3.1906  -36.9755  -15.3096 C   0  0  0  0  0  0  0  0  0  0  0  0
    8.2283  -35.4520  -13.6198 C   0  0  0  0  0  0  0  0  0  0  0  0
    3.9357  -36.0579  -14.5109 O   0  0  0  0  0  0  0  0  0  0  0  0
    7.4737  -36.2484  -14.5302 O   0  0  0  0  0  0  0  0  0  0  0  0
    4.1005  -37.5775  -16.3737 C   0  0  1  0  0  0  0  0  0  0  0  0
    7.3345  -35.0069  -12.4691 C   0  0  1  0  0  0  0  0  0  0  0  0
    3.3125  -38.0579  -17.4662 O   0  0  0  0  0  0  0  0  0  0  0  0
    7.8722  -33.8257  -11.8696 O   0  0  0  0  0  0  0  0  0  0  0  0
    5.0700  -36.5425  -16.9191 C   0  0  1  0  0  0  0  0  0  0  0  0
    5.9302  -34.6838  -12.9541 C   0  0  1  0  0  0  0  0  0  0  0  0
    6.4120  -36.9633  -16.6937 O   0  0  0  0  0  0  0  0  0  0  0  0
    4.9815  -35.5147  -12.2917 O   0  0  0  0  0  0  0  0  0  0  0  0
    4.7993  -36.4437  -18.4089 C   0  0  0  0  0  0  0  0  0  0  0  0
    5.6798  -33.2292  -12.6063 C   0  0  0  0  0  0  0  0  0  0  0  0
    3.6732  -37.4254  -18.6971 C   0  0  2  0  0  0  0  0  0  0  0  0
    6.9475  -32.7365  -11.9231 C   0  0  2  0  0  0  0  0  0  0  0  0
    0.4944  -33.2724  -18.2221 N   0  0  0  0  0  0  0  0  0  0  0  0
    1.5482  -33.6485  -17.4743 C   0  0  0  0  0  0  0  0  0  0  0  0
    2.2803  -34.7517  -17.7155 N   0  0  0  0  0  0  0  0  0  0  0  0
    1.9868  -35.5669  -18.7567 C   0  0  0  0  0  0  0  0  0  0  0  0
    0.8478  -35.2228  -19.6222 C   0  0  0  0  0  0  0  0  0  0  0  0
    0.0896  -33.9927  -19.2920 C   0  0  0  0  0  0  0  0  0  0  0  0
   -0.9725  -33.6032  -20.0376 N   0  0  0  0  0  0  0  0  0  0  0  0
    0.7773  -36.1825  -20.5636 N   0  0  0  0  0  0  0  0  0  0  0  0
    1.7816  -37.0639  -20.3233 C   0  0  0  0  0  0  0  0  0  0  0  0
    2.5028  -36.6970  -19.2464 N   0  0  0  0  0  0  0  0  0  0  0  0
    7.7359  -30.6770  -16.6885 N   0  0  0  0  0  0  0  0  0  0  0  0
    7.1026  -31.8080  -16.3261 C   0  0  0  0  0  0  0  0  0  0  0  0
    6.9751  -32.2175  -15.0511 N   0  0  0  0  0  0  0  0  0  0  0  0
    7.4938  -31.4894  -14.0329 C   0  0  0  0  0  0  0  0  0  0  0  0
    8.2012  -30.2388  -14.3486 C   0  0  0  0  0  0  0  0  0  0  0  0
    8.2995  -29.8555  -15.7768 C   0  0  0  0  0  0  0  0  0  0  0  0
    8.9341  -28.7185  -16.1544 N   0  0  0  0  0  0  0  0  0  0  0  0
    8.6089  -29.7215  -13.1743 N   0  0  0  0  0  0  0  0  0  0  0  0
    8.1991  -30.5664  -12.1934 C   0  0  0  0  0  0  0  0  0  0  0  0
    7.5351  -31.6194  -12.7047 N   0  0  0  0  0  0  0  0  0  0  0  0
  1  3  1  1  0  0  0
  1  5  2  0  0  0  0
  1  9  1  0  0  0  0
  1 18  1  0  0  0  0
  2  4  1  6  0  0  0
  2  6  2  0  0  0  0
  2 10  1  0  0  0  0
  2 17  1  0  0  0  0
  7  9  1  0  0  0  0
  8 10  1  0  0  0  0
 11  7  1  1  0  0  0
 11 13  1  0  0  0  0
 11 15  1  0  0  0  0
 12  8  1  6  0  0  0
 12 14  1  0  0  0  0
 12 16  1  0  0  0  0
 13 21  1  0  0  0  0
 14 22  1  0  0  0  0
 15 17  1  6  0  0  0
 15 19  1  0  0  0  0
 16 18  1  1  0  0  0
 16 20  1  0  0  0  0
 19 21  1  0  0  0  0
 20 22  1  0  0  0  0
 21 32  1  1  0  0  0
 22 42  1  6  0  0  0
 23 24  2  0  0  0  0
 23 28  1  0  0  0  0
 24 25  1  0  0  0  0
 25 26  2  0  0  0  0
 26 27  1  0  0  0  0
 26 32  1  0  0  0  0
 27 28  2  0  0  0  0
 27 30  1  0  0  0  0
 28 29  1  0  0  0  0
 30 31  2  0  0  0  0
 31 32  1  0  0  0  0
 33 34  2  0  0  0  0
 33 38  1  0  0  0  0
 34 35  1  0  0  0  0
 35 36  2  0  0  0  0
 36 37  1  0  0  0  0
 36 42  1  0  0  0  0
 37 38  2  0  0  0  0
 37 40  1  0  0  0  0
 38 39  1  0  0  0  0
 40 41  2  0  0  0  0
 41 42  1  0  0  0  0
M  CHG  2   3  -1   4  -1
M  END
>  <CHROM.1>
72.03717179,85.06814403,5.10245354,-34.54682175,-15.62220171,-3.13447670
-0.79810461,-0.63232279

>  <Name>
ligand

>  <RI>
0

>  <Rbt.Current_Directory>
/home/itssahil/PROJECTS/Mol_Feturizer/New_Systems/rnas/4QLN

>  <Rbt.Executable>
rbdock ($Id: //depot/dev/client3/rdock/2013.1/src/exe/rbdock.cxx#4 $)

>  <Rbt.Library>
libRbt.so (2013.1, Build901 2013/11/27)

>  <Rbt.Parameter_File>
/export/apps/rDock/src/rDock_2013.1_src/data/scripts/dock_solv.prm

>  <Rbt.Receptor>
prm/pocket_docking_6.prm

>  <SCORE>
-25.429

>  <SCORE.INTER>
-26.34

>  <SCORE.INTER.CONST>
1

>  <SCORE.INTER.POLAR>
0

>  <SCORE.INTER.ROT>
2

>  <SCORE.INTER.SOLV>
27.3303

>  <SCORE.INTER.VDW>
-31.6035

>  <SCORE.INTER.norm>
-0.627144

>  <SCORE.INTRA>
0.911041

>  <SCORE.INTRA.DIHEDRAL>
0.00103098

>  <SCORE.INTRA.DIHEDRAL.0>
2.39985

>  <SCORE.INTRA.POLAR>
0

>  <SCORE.INTRA.POLAR.0>
0

>  <SCORE.INTRA.REPUL>
0

>  <SCORE.INTRA.REPUL.0>
0

>  <SCORE.INTRA.SOLV>
0.870173

>  <SCORE.INTRA.SOLV.lig_0>
-110.958

>  <SCORE.INTRA.VDW>
0.475439

>  <SCORE.INTRA.VDW.0>
-2.34644

>  <SCORE.INTRA.norm>
0.0216914

>  <SCORE.RESTR>
0

>  <SCORE.RESTR.CAVITY>
0

>  <SCORE.RESTR.norm>
0

>  <SCORE.SYSTEM>
0

>  <SCORE.SYSTEM.CONST>
0

>  <SCORE.SYSTEM.DIHEDRAL>
0

>  <SCORE.SYSTEM.SOLV>
0

>  <SCORE.SYSTEM.norm>
0

>  <SCORE.heavy>
42

>  <SCORE.norm>
-0.605453

>  <RMSD>
2.053

$$$$
ligand
 OpenBabel11021811513D
libRbt.so/2013.1/901 2013/11/27
 42 48  0  0  0  0  0  0  0  0999 V2000
    3.5538  -35.8360  -12.9821 P   0  0  2  0  0  0  0  0  0  0  0  0
    7.5020  -35.9083  -16.1320 P   0  0  1  0  0  0  0  0  0  0  0  0
    3.0454  -37.1449  -12.4243 O   0  5  0  0  0  0  0  0  0  0  0  0
    6.9792  -34.5065  -16.3375 O   0  5  0  0  0  0  0  0  0  0  0  0
    2.7015  -34.5936  -12.8830 O   0  0  0  0  0  0  0  0  0  0  0  0
    8.8588  -36.2936  -16.6706 O   0  0  0  0  0  0  0  0  0  0  0  0
    3.1963  -36.9816  -15.3309 C   0  0  0  0  0  0  0  0  0  0  0  0
    8.2263  -35.4327  -13.6415 C   0  0  0  0  0  0  0  0  0  0  0  0
    3.9365  -36.0628  -14.5291 O   0  0  0  0  0  0  0  0  0  0  0  0
    7.4756  -36.2299  -14.5545 O   0  0  0  0  0  0  0  0  0  0  0  0
    4.1085  -37.5726  -16.3991 C   0  0  1  0  0  0  0  0  0  0  0  0
    7.3313  -34.9989  -12.4874 C   0  0  1  0  0  0  0  0  0  0  0  0
    3.3220  -38.0531  -17.4927 O   0  0  0  0  0  0  0  0  0  0  0  0
    7.8621  -33.8169  -11.8832 O   0  0  0  0  0  0  0  0  0  0  0  0
    5.0703  -36.5287  -16.9411 C   0  0  1  0  0  0  0  0  0  0  0  0
    5.9242  -34.6828  -12.9688 C   0  0  1  0  0  0  0  0  0  0  0  0
    6.4154  -36.9417  -16.7196 O   0  0  0  0  0  0  0  0  0  0  0  0
    4.9820  -35.5230  -12.3089 O   0  0  0  0  0  0  0  0  0  0  0  0
    4.7968  -36.4249  -18.4301 C   0  0  0  0  0  0  0  0  0  0  0  0
    5.6647  -33.2315  -12.6139 C   0  0  0  0  0  0  0  0  0  0  0  0
    3.6768  -37.4126  -18.7212 C   0  0  2  0  0  0  0  0  0  0  0  0
    6.9303  -32.7336  -11.9302 C   0  0  2  0  0  0  0  0  0  0  0  0
    0.4891  -33.2671  -18.2396 N   0  0  0  0  0  0  0  0  0  0  0  0
    1.5487  -33.6378  -17.4973 C   0  0  0  0  0  0  0  0  0  0  0  0
    2.2825  -34.7396  -17.7395 N   0  0  0  0  0  0  0  0  0  0  0  0
    1.9846  -35.5591  -18.7762 C   0  0  0  0  0  0  0  0  0  0  0  0
    0.8391  -35.2212  -19.6354 C   0  0  0  0  0  0  0  0  0  0  0  0
    0.0795  -33.9922  -19.3044 C   0  0  0  0  0  0  0  0  0  0  0  0
   -0.9884  -33.6083  -20.0446 N   0  0  0  0  0  0  0  0  0  0  0  0
    0.7654  -36.1842  -20.5732 N   0  0  0  0  0  0  0  0  0  0  0  0
    1.7737  -37.0619  -20.3364 C   0  0  0  0  0  0  0  0  0  0  0  0
    2.5008  -36.6893  -19.2654 N   0  0  0  0  0  0  0  0  0  0  0  0
    7.6755  -30.6339  -16.6850 N   0  0  0  0  0  0  0  0  0  0  0  0
    7.0474  -31.7690  -16.3267 C   0  0  0  0  0  0  0  0  0  0  0  0
    6.9311  -32.1891  -15.0540 N   0  0  0  0  0  0  0  0  0  0  0  0
    7.4568  -31.4683  -14.0342 C   0  0  0  0  0  0  0  0  0  0  0  0
    8.1593  -30.2138  -14.3455 C   0  0  0  0  0  0  0  0  0  0  0  0
    8.2451  -29.8187  -15.7713 C   0  0  0  0  0  0  0  0  0  0  0  0
    8.8744  -28.6775  -16.1449 N   0  0  0  0  0  0  0  0  0  0  0  0
    8.5756  -29.7053  -13.1704 N   0  0  0  0  0  0  0  0  0  0  0  0
    8.1754  -30.5590  -12.1932 C   0  0  0  0  0  0  0  0  0  0  0  0
    7.5093  -31.6091  -12.7075 N   0  0  0  0  0  0  0  0  0  0  0  0
  1  3  1  1  0  0  0
  1  5  2  0  0  0  0
  1  9  1  0  0  0  0
  1 18  1  0  0  0  0
  2  4  1  6  0  0  0
  2  6  2  0  0  0  0
  2 10  1  0  0  0  0
  2 17  1  0  0  0  0
  7  9  1  0  0  0  0
  8 10  1  0  0  0  0
 11  7  1  1  0  0  0
 11 13  1  0  0  0  0
 11 15  1  0  0  0  0
 12  8  1  6  0  0  0
 12 14  1  0  0  0  0
 12 16  1  0  0  0  0
 13 21  1  0  0  0  0
 14 22  1  0  0  0  0
 15 17  1  6  0  0  0
 15 19  1  0  0  0  0
 16 18  1  1  0  0  0
 16 20  1  0  0  0  0
 19 21  1  0  0  0  0
 20 22  1  0  0  0  0
 21 32  1  1  0  0  0
 22 42  1  6  0  0  0
 23 24  2  0  0  0  0
 23 28  1  0  0  0  0
 24 25  1  0  0  0  0
 25 26  2  0  0  0  0
 26 27  1  0  0  0  0
 26 32  1  0  0  0  0
 27 28  2  0  0  0  0
 27 30  1  0  0  0  0
 28 29  1  0  0  0  0
 30 31  2  0  0  0  0
 31 32  1  0  0  0  0
 33 34  2  0  0  0  0
 33 38  1  0  0  0  0
 34 35  1  0  0  0  0
 35 36  2  0  0  0  0
 36 37  1  0  0  0  0
 36 42  1  0  0  0  0
 37 38  2  0  0  0  0
 37 40  1  0  0  0  0
 38 39  1  0  0  0  0
 40 41  2  0  0  0  0
 41 42  1  0  0  0  0
M  CHG  2   3  -1   4  -1
M  END
>  <CHROM.1>
72.61459218,85.57961015,5.09121835,-34.53655749,-15.63629277,-3.12243434
-0.80197335,-0.61594775

>  <Name>
ligand

>  <RI>
0

>  <Rbt.Current_Directory>
/home/itssahil/PROJECTS/Mol_Feturizer/New_Systems/rnas/4QLN

>  <Rbt.Executable>
rbdock ($Id: //depot/dev/client3/rdock/2013.1/src/exe/rbdock.cxx#4 $)

>  <Rbt.Library>
libRbt.so (2013.1, Build901 2013/11/27)

>  <Rbt.Parameter_File>
/export/apps/rDock/src/rDock_2013.1_src/data/scripts/dock_solv.prm

>  <Rbt.Receptor>
prm/pocket_docking_3.prm

>  <SCORE>
-25.4546

>  <SCORE.INTER>
-26.358

>  <SCORE.INTER.CONST>
1

>  <SCORE.INTER.POLAR>
0

>  <SCORE.INTER.ROT>
2

>  <SCORE.INTER.SOLV>
27.5799

>  <SCORE.INTER.VDW>
-31.6986

>  <SCORE.INTER.norm>
-0.62757

>  <SCORE.INTRA>
0.903394

>  <SCORE.INTRA.DIHEDRAL>
0.0010422

>  <SCORE.INTRA.DIHEDRAL.0>
2.39985

>  <SCORE.INTRA.POLAR>
0

>  <SCORE.INTRA.POLAR.0>
0

>  <SCORE.INTRA.REPUL>
0

>  <SCORE.INTRA.REPUL.0>
0

>  <SCORE.INTRA.SOLV>
0.851261

>  <SCORE.INTRA.SOLV.lig_0>
-110.958

>  <SCORE.INTRA.VDW>
0.477243

>  <SCORE.INTRA.VDW.0>
-2.34644

>  <SCORE.INTRA.norm>
0.0215094

>  <SCORE.RESTR>
0

>  <SCORE.RESTR.CAVITY>
0

>  <SCORE.RESTR.norm>
0

>  <SCORE.SYSTEM>
0

>  <SCORE.SYSTEM.CONST>
0

>  <SCORE.SYSTEM.DIHEDRAL>
0

>  <SCORE.SYSTEM.SOLV>
0

>  <SCORE.SYSTEM.norm>
0

>  <SCORE.heavy>
42

>  <SCORE.norm>
-0.606061

>  <RMSD>
2.055

$$$$
ligand
 OpenBabel11021811513D
libRbt.so/2013.1/901 2013/11/27
 42 48  0  0  0  0  0  0  0  0999 V2000
    3.5564  -35.8388  -12.9827 P   0  0  2  0  0  0  0  0  0  0  0  0
    7.5042  -35.9137  -16.1329 P   0  0  1  0  0  0  0  0  0  0  0  0
    3.0470  -37.1475  -12.4251 O   0  5  0  0  0  0  0  0  0  0  0  0
    6.9826  -34.5115  -16.3382 O   0  5  0  0  0  0  0  0  0  0  0  0
    2.7051  -34.5957  -12.8833 O   0  0  0  0  0  0  0  0  0  0  0  0
    8.8607  -36.2999  -16.6717 O   0  0  0  0  0  0  0  0  0  0  0  0
    3.1978  -36.9838  -15.3317 C   0  0  0  0  0  0  0  0  0  0  0  0
    8.2291  -35.4391  -13.6424 C   0  0  0  0  0  0  0  0  0  0  0  0
    3.9388  -36.0657  -14.5298 O   0  0  0  0  0  0  0  0  0  0  0  0
    7.4778  -36.2355  -14.5555 O   0  0  0  0  0  0  0  0  0  0  0  0
    4.1095  -37.5753  -16.4000 C   0  0  1  0  0  0  0  0  0  0  0  0
    7.3346  -35.0047  -12.4882 C   0  0  1  0  0  0  0  0  0  0  0  0
    3.3226  -38.0551  -17.4937 O   0  0  0  0  0  0  0  0  0  0  0  0
    7.8663  -33.8232  -11.8839 O   0  0  0  0  0  0  0  0  0  0  0  0
    5.0720  -36.5321  -16.9420 C   0  0  1  0  0  0  0  0  0  0  0  0
    5.9277  -34.6875  -12.9694 C   0  0  1  0  0  0  0  0  0  0  0  0
    6.4168  -36.9461  -16.7206 O   0  0  0  0  0  0  0  0  0  0  0  0
    4.9849  -35.5271  -12.3096 O   0  0  0  0  0  0  0  0  0  0  0  0
    4.7985  -36.4278  -18.4309 C   0  0  0  0  0  0  0  0  0  0  0  0
    5.6693  -33.2360  -12.6143 C   0  0  0  0  0  0  0  0  0  0  0  0
    3.6777  -37.4146  -18.7221 C   0  0  2  0  0  0  0  0  0  0  0  0
    6.9353  -32.7392  -11.9306 C   0  0  2  0  0  0  0  0  0  0  0  0
    0.4941  -33.2660  -18.2404 N   0  0  0  0  0  0  0  0  0  0  0  0
    1.5536  -33.6375  -17.4984 C   0  0  0  0  0  0  0  0  0  0  0  0
    2.2862  -34.7401  -17.7406 N   0  0  0  0  0  0  0  0  0  0  0  0
    1.9873  -35.5596  -18.7769 C   0  0  0  0  0  0  0  0  0  0  0  0
    0.8418  -35.2208  -19.6359 C   0  0  0  0  0  0  0  0  0  0  0  0
    0.0834  -33.9910  -19.3050 C   0  0  0  0  0  0  0  0  0  0  0  0
   -0.9843  -33.6062  -20.0448 N   0  0  0  0  0  0  0  0  0  0  0  0
    0.7669  -36.1840  -20.5735 N   0  0  0  0  0  0  0  0  0  0  0  0
    1.7745  -37.0625  -20.3367 C   0  0  0  0  0  0  0  0  0  0  0  0
    2.5022  -36.6904  -19.2661 N   0  0  0  0  0  0  0  0  0  0  0  0
    7.6710  -30.6330  -16.6840 N   0  0  0  0  0  0  0  0  0  0  0  0
    7.0406  -31.7668  -16.3256 C   0  0  0  0  0  0  0  0  0  0  0  0
    6.9273  -32.1889  -15.0534 N   0  0  0  0  0  0  0  0  0  0  0  0
    7.4586  -31.4716  -14.0340 C   0  0  0  0  0  0  0  0  0  0  0  0
    8.1638  -30.2187  -14.3454 C   0  0  0  0  0  0  0  0  0  0  0  0
    8.2461  -29.8213  -15.7707 C   0  0  0  0  0  0  0  0  0  0  0  0
    8.8776  -28.6812  -16.1443 N   0  0  0  0  0  0  0  0  0  0  0  0
    8.5857  -29.7136  -13.1708 N   0  0  0  0  0  0  0  0  0  0  0  0
    8.1862  -30.5679  -12.1938 C   0  0  0  0  0  0  0  0  0  0  0  0
    7.5151  -31.6150  -12.7078 N   0  0  0  0  0  0  0  0  0  0  0  0
  1  3  1  1  0  0  0
  1  5  2  0  0  0  0
  1  9  1  0  0  0  0
  1 18  1  0  0  0  0
  2  4  1  6  0  0  0
  2  6  2  0  0  0  0
  2 10  1  0  0  0  0
  2 17  1  0  0  0  0
  7  9  1  0  0  0  0
  8 10  1  0  0  0  0
 11  7  1  1  0  0  0
 11 13  1  0  0  0  0
 11 15  1  0  0  0  0
 12  8  1  6  0  0  0
 12 14  1  0  0  0  0
 12 16  1  0  0  0  0
 13 21  1  0  0  0  0
 14 22  1  0  0  0  0
 15 17  1  6  0  0  0
 15 19  1  0  0  0  0
 16 18  1  1  0  0  0
 16 20  1  0  0  0  0
 19 21  1  0  0  0  0
 20 22  1  0  0  0  0
 21 32  1  1  0  0  0
 22 42  1  6  0  0  0
 23 24  2  0  0  0  0
 23 28  1  0  0  0  0
 24 25  1  0  0  0  0
 25 26  2  0  0  0  0
 26 27  1  0  0  0  0
 26 32  1  0  0  0  0
 27 28  2  0  0  0  0
 27 30  1  0  0  0  0
 28 29  1  0  0  0  0
 30 31  2  0  0  0  0
 31 32  1  0  0  0  0
 33 34  2  0  0  0  0
 33 38  1  0  0  0  0
 34 35  1  0  0  0  0
 35 36  2  0  0  0  0
 36 37  1  0  0  0  0
 36 42  1  0  0  0  0
 37 38  2  0  0  0  0
 37 40  1  0  0  0  0
 38 39  1  0  0  0  0
 40 41  2  0  0  0  0
 41 42  1  0  0  0  0
M  CHG  2   3  -1   4  -1
M  END
>  <CHROM.1>
72.64272343,85.82771105,5.09376532,-34.53958704,-15.63680507,-3.12166741
-0.80174785,-0.61410672

>  <Name>
ligand

>  <RI>
0

>  <Rbt.Current_Directory>
/home/itssahil/PROJECTS/Mol_Feturizer/New_Systems/rnas/4QLN

>  <Rbt.Executable>
rbdock ($Id: //depot/dev/client3/rdock/2013.1/src/exe/rbdock.cxx#4 $)

>  <Rbt.Library>
libRbt.so (2013.1, Build901 2013/11/27)

>  <Rbt.Parameter_File>
/export/apps/rDock/src/rDock_2013.1_src/data/scripts/dock_solv.prm

>  <Rbt.Receptor>
prm/pocket_docking_4.prm

>  <SCORE>
-25.4827

>  <SCORE.INTER>
-26.375

>  <SCORE.INTER.CONST>
1

>  <SCORE.INTER.POLAR>
0

>  <SCORE.INTER.ROT>
2

>  <SCORE.INTER.SOLV>
27.5801

>  <SCORE.INTER.VDW>
-31.71

>  <SCORE.INTER.norm>
-0.627976

>  <SCORE.INTRA>
0.892266

>  <SCORE.INTRA.DIHEDRAL>
0.00104469

>  <SCORE.INTRA.DIHEDRAL.0>
2.39985

>  <SCORE.INTRA.POLAR>
0

>  <SCORE.INTRA.POLAR.0>
0

>  <SCORE.INTRA.REPUL>
0

>  <SCORE.INTRA.REPUL.0>
0

>  <SCORE.INTRA.SOLV>
0.842151

>  <SCORE.INTRA.SOLV.lig_0>
-110.958

>  <SCORE.INTRA.VDW>
0.470668

>  <SCORE.INTRA.VDW.0>
-2.34644

>  <SCORE.INTRA.norm>
0.0212444

>  <SCORE.RESTR>
0

>  <SCORE.RESTR.CAVITY>
0

>  <SCORE.RESTR.norm>
0

>  <SCORE.SYSTEM>
0

>  <SCORE.SYSTEM.CONST>
0

>  <SCORE.SYSTEM.DIHEDRAL>
0

>  <SCORE.SYSTEM.SOLV>
0

>  <SCORE.SYSTEM.norm>
0

>  <SCORE.heavy>
42

>  <SCORE.norm>
-0.606732

>  <RMSD>
2.055

$$$$
ligand
 OpenBabel11021811513D
libRbt.so/2013.1/901 2013/11/27
 42 48  0  0  0  0  0  0  0  0999 V2000
    3.5369  -35.8227  -13.0017 P   0  0  2  0  0  0  0  0  0  0  0  0
    7.4966  -35.9033  -16.1368 P   0  0  1  0  0  0  0  0  0  0  0  0
    3.0248  -37.1303  -12.4443 O   0  5  0  0  0  0  0  0  0  0  0  0
    6.9764  -34.5012  -16.3458 O   0  5  0  0  0  0  0  0  0  0  0  0
    2.6858  -34.5790  -12.9071 O   0  0  0  0  0  0  0  0  0  0  0  0
    8.8549  -36.2909  -16.6699 O   0  0  0  0  0  0  0  0  0  0  0  0
    3.1866  -36.9704  -15.3505 C   0  0  0  0  0  0  0  0  0  0  0  0
    8.2123  -35.4259  -13.6441 C   0  0  0  0  0  0  0  0  0  0  0  0
    3.9250  -36.0516  -14.5470 O   0  0  0  0  0  0  0  0  0  0  0  0
    7.4640  -36.2232  -14.5590 O   0  0  0  0  0  0  0  0  0  0  0  0
    4.1022  -37.5637  -16.4147 C   0  0  1  0  0  0  0  0  0  0  0  0
    7.3136  -34.9897  -12.4939 C   0  0  1  0  0  0  0  0  0  0  0  0
    3.3191  -38.0445  -17.5107 O   0  0  0  0  0  0  0  0  0  0  0  0
    7.8436  -33.8077  -11.8891 O   0  0  0  0  0  0  0  0  0  0  0  0
    5.0672  -36.5217  -16.9543 C   0  0  1  0  0  0  0  0  0  0  0  0
    5.9087  -34.6724  -12.9809 C   0  0  1  0  0  0  0  0  0  0  0  0
    6.4110  -36.9361  -16.7273 O   0  0  0  0  0  0  0  0  0  0  0  0
    4.9630  -35.5107  -12.3235 O   0  0  0  0  0  0  0  0  0  0  0  0
    4.7994  -36.4191  -18.4443 C   0  0  0  0  0  0  0  0  0  0  0  0
    5.6497  -33.2203  -12.6285 C   0  0  0  0  0  0  0  0  0  0  0  0
    3.6792  -37.4058  -18.7385 C   0  0  2  0  0  0  0  0  0  0  0  0
    6.9133  -32.7233  -11.9407 C   0  0  2  0  0  0  0  0  0  0  0  0
    0.4791  -33.2698  -18.2579 N   0  0  0  0  0  0  0  0  0  0  0  0
    1.5335  -33.6427  -17.5093 C   0  0  0  0  0  0  0  0  0  0  0  0
    2.2715  -34.7416  -17.7522 N   0  0  0  0  0  0  0  0  0  0  0  0
    1.9837  -35.5555  -18.7961 C   0  0  0  0  0  0  0  0  0  0  0  0
    0.8445  -35.2147  -19.6626 C   0  0  0  0  0  0  0  0  0  0  0  0
    0.0796  -33.9893  -19.3304 C   0  0  0  0  0  0  0  0  0  0  0  0
   -0.9831  -33.6031  -20.0768 N   0  0  0  0  0  0  0  0  0  0  0  0
    0.7803  -36.1723  -20.6066 N   0  0  0  0  0  0  0  0  0  0  0  0
    1.7885  -37.0493  -20.3669 C   0  0  0  0  0  0  0  0  0  0  0  0
    2.5061  -36.6817  -19.2879 N   0  0  0  0  0  0  0  0  0  0  0  0
    7.6418  -30.6079  -16.6911 N   0  0  0  0  0  0  0  0  0  0  0  0
    7.0061  -31.7390  -16.3333 C   0  0  0  0  0  0  0  0  0  0  0  0
    6.8956  -32.1641  -15.0619 N   0  0  0  0  0  0  0  0  0  0  0  0
    7.4354  -31.4528  -14.0427 C   0  0  0  0  0  0  0  0  0  0  0  0
    8.1468  -30.2033  -14.3534 C   0  0  0  0  0  0  0  0  0  0  0  0
    8.2255  -29.8022  -15.7780 C   0  0  0  0  0  0  0  0  0  0  0  0
    8.8623  -28.6649  -16.1509 N   0  0  0  0  0  0  0  0  0  0  0  0
    8.5765  -29.7041  -13.1791 N   0  0  0  0  0  0  0  0  0  0  0  0
    8.1760  -30.5588  -12.2029 C   0  0  0  0  0  0  0  0  0  0  0  0
    7.4966  -31.6003  -12.7171 N   0  0  0  0  0  0  0  0  0  0  0  0
  1  3  1  1  0  0  0
  1  5  2  0  0  0  0
  1  9  1  0  0  0  0
  1 18  1  0  0  0  0
  2  4  1  6  0  0  0
  2  6  2  0  0  0  0
  2 10  1  0  0  0  0
  2 17  1  0  0  0  0
  7  9  1  0  0  0  0
  8 10  1  0  0  0  0
 11  7  1  1  0  0  0
 11 13  1  0  0  0  0
 11 15  1  0  0  0  0
 12  8  1  6  0  0  0
 12 14  1  0  0  0  0
 12 16  1  0  0  0  0
 13 21  1  0  0  0  0
 14 22  1  0  0  0  0
 15 17  1  6  0  0  0
 15 19  1  0  0  0  0
 16 18  1  1  0  0  0
 16 20  1  0  0  0  0
 19 21  1  0  0  0  0
 20 22  1  0  0  0  0
 21 32  1  1  0  0  0
 22 42  1  6  0  0  0
 23 24  2  0  0  0  0
 23 28  1  0  0  0  0
 24 25  1  0  0  0  0
 25 26  2  0  0  0  0
 26 27  1  0  0  0  0
 26 32  1  0  0  0  0
 27 28  2  0  0  0  0
 27 30  1  0  0  0  0
 28 29  1  0  0  0  0
 30 31  2  0  0  0  0
 31 32  1  0  0  0  0
 33 34  2  0  0  0  0
 33 38  1  0  0  0  0
 34 35  1  0  0  0  0
 35 36  2  0  0  0  0
 36 37  1  0  0  0  0
 36 42  1  0  0  0  0
 37 38  2  0  0  0  0
 37 40  1  0  0  0  0
 38 39  1  0  0  0  0
 40 41  2  0  0  0  0
 41 42  1  0  0  0  0
M  CHG  2   3  -1   4  -1
M  END
>  <CHROM.1>
72.10155699,86.42966182,5.08142801,-34.52743013,-15.64998542,-3.12115982
-0.80453405,-0.61307589

>  <Name>
ligand

>  <RI>
0

>  <Rbt.Current_Directory>
/home/itssahil/PROJECTS/Mol_Feturizer/New_Systems/rnas/4QLN

>  <Rbt.Executable>
rbdock ($Id: //depot/dev/client3/rdock/2013.1/src/exe/rbdock.cxx#4 $)

>  <Rbt.Library>
libRbt.so (2013.1, Build901 2013/11/27)

>  <Rbt.Parameter_File>
/export/apps/rDock/src/rDock_2013.1_src/data/scripts/dock_solv.prm

>  <Rbt.Receptor>
prm/pocket_docking_3.prm

>  <SCORE>
-25.3888

>  <SCORE.INTER>
-26.2547

>  <SCORE.INTER.CONST>
1

>  <SCORE.INTER.POLAR>
0

>  <SCORE.INTER.ROT>
2

>  <SCORE.INTER.SOLV>
27.6947

>  <SCORE.INTER.VDW>
-31.668

>  <SCORE.INTER.norm>
-0.625112

>  <SCORE.INTRA>
0.865871

>  <SCORE.INTRA.DIHEDRAL>
0.00104357

>  <SCORE.INTRA.DIHEDRAL.0>
2.39985

>  <SCORE.INTRA.POLAR>
0

>  <SCORE.INTRA.POLAR.0>
0

>  <SCORE.INTRA.REPUL>
0

>  <SCORE.INTRA.REPUL.0>
0

>  <SCORE.INTRA.SOLV>
0.820146

>  <SCORE.INTRA.SOLV.lig_0>
-110.958

>  <SCORE.INTRA.VDW>
0.455276

>  <SCORE.INTRA.VDW.0>
-2.34644

>  <SCORE.INTRA.norm>
0.020616

>  <SCORE.RESTR>
0

>  <SCORE.RESTR.CAVITY>
0

>  <SCORE.RESTR.norm>
0

>  <SCORE.SYSTEM>
0

>  <SCORE.SYSTEM.CONST>
0

>  <SCORE.SYSTEM.DIHEDRAL>
0

>  <SCORE.SYSTEM.SOLV>
0

>  <SCORE.SYSTEM.norm>
0

>  <SCORE.heavy>
42

>  <SCORE.norm>
-0.604496

>  <RMSD>
2.056

$$$$
ligand
 OpenBabel11021811513D
libRbt.so/2013.1/901 2013/11/27
 42 48  0  0  0  0  0  0  0  0999 V2000
    3.5495  -35.8343  -12.9626 P   0  0  2  0  0  0  0  0  0  0  0  0
    7.4995  -35.9394  -16.1091 P   0  0  1  0  0  0  0  0  0  0  0  0
    3.0372  -37.1379  -12.3959 O   0  5  0  0  0  0  0  0  0  0  0  0
    6.9807  -34.5377  -16.3249 O   0  5  0  0  0  0  0  0  0  0  0  0
    2.7005  -34.5889  -12.8728 O   0  0  0  0  0  0  0  0  0  0  0  0
    8.8557  -36.3321  -16.6440 O   0  0  0  0  0  0  0  0  0  0  0  0
    3.1904  -36.9954  -15.3035 C   0  0  0  0  0  0  0  0  0  0  0  0
    8.2235  -35.4482  -13.6215 C   0  0  0  0  0  0  0  0  0  0  0  0
    3.9326  -36.0730  -14.5077 O   0  0  0  0  0  0  0  0  0  0  0  0
    7.4713  -36.2498  -14.5294 O   0  0  0  0  0  0  0  0  0  0  0  0
    4.1018  -37.5964  -16.3669 C   0  0  1  0  0  0  0  0  0  0  0  0
    7.3289  -35.0039  -12.4712 C   0  0  1  0  0  0  0  0  0  0  0  0
    3.3148  -38.0825  -17.4576 O   0  0  0  0  0  0  0  0  0  0  0  0
    7.8625  -33.8191  -11.8750 O   0  0  0  0  0  0  0  0  0  0  0  0
    5.0668  -36.5590  -16.9156 C   0  0  1  0  0  0  0  0  0  0  0  0
    5.9230  -34.6874  -12.9558 C   0  0  1  0  0  0  0  0  0  0  0  0
    6.4106  -36.9740  -16.6902 O   0  0  0  0  0  0  0  0  0  0  0  0
    4.9781  -35.5204  -12.2906 O   0  0  0  0  0  0  0  0  0  0  0  0
    4.7946  -36.4649  -18.4054 C   0  0  0  0  0  0  0  0  0  0  0  0
    5.6672  -33.2329  -12.6113 C   0  0  0  0  0  0  0  0  0  0  0  0
    3.6721  -37.4516  -18.6903 C   0  0  2  0  0  0  0  0  0  0  0  0
    6.9335  -32.7337  -11.9303 C   0  0  2  0  0  0  0  0  0  0  0  0
    0.4920  -33.2971  -18.2370 N   0  0  0  0  0  0  0  0  0  0  0  0
    1.5497  -33.6657  -17.4909 C   0  0  0  0  0  0  0  0  0  0  0  0
    2.2816  -34.7704  -17.7259 N   0  0  0  0  0  0  0  0  0  0  0  0
    1.9838  -35.5951  -18.7583 C   0  0  0  0  0  0  0  0  0  0  0  0
    0.8403  -35.2597  -19.6213 C   0  0  0  0  0  0  0  0  0  0  0  0
    0.0826  -34.0274  -19.2984 C   0  0  0  0  0  0  0  0  0  0  0  0
   -0.9834  -33.6454  -20.0423 N   0  0  0  0  0  0  0  0  0  0  0  0
    0.7661  -36.2278  -20.5538 N   0  0  0  0  0  0  0  0  0  0  0  0
    1.7723  -37.1062  -20.3104 C   0  0  0  0  0  0  0  0  0  0  0  0
    2.4984  -36.7291  -19.2405 N   0  0  0  0  0  0  0  0  0  0  0  0
    7.7283  -30.6933  -16.7028 N   0  0  0  0  0  0  0  0  0  0  0  0
    7.1022  -31.8272  -16.3374 C   0  0  0  0  0  0  0  0  0  0  0  0
    6.9718  -32.2309  -15.0608 N   0  0  0  0  0  0  0  0  0  0  0  0
    7.4800  -31.4935  -14.0441 C   0  0  0  0  0  0  0  0  0  0  0  0
    8.1792  -30.2391  -14.3631 C   0  0  0  0  0  0  0  0  0  0  0  0
    8.2813  -29.8626  -15.7929 C   0  0  0  0  0  0  0  0  0  0  0  0
    8.9088  -28.7227  -16.1736 N   0  0  0  0  0  0  0  0  0  0  0  0
    8.5773  -29.7125  -13.1897 N   0  0  0  0  0  0  0  0  0  0  0  0
    8.1695  -30.5554  -12.2063 C   0  0  0  0  0  0  0  0  0  0  0  0
    7.5161  -31.6162  -12.7151 N   0  0  0  0  0  0  0  0  0  0  0  0
  1  3  1  1  0  0  0
  1  5  2  0  0  0  0
  1  9  1  0  0  0  0
  1 18  1  0  0  0  0
  2  4  1  6  0  0  0
  2  6  2  0  0  0  0
  2 10  1  0  0  0  0
  2 17  1  0  0  0  0
  7  9  1  0  0  0  0
  8 10  1  0  0  0  0
 11  7  1  1  0  0  0
 11 13  1  0  0  0  0
 11 15  1  0  0  0  0
 12  8  1  6  0  0  0
 12 14  1  0  0  0  0
 12 16  1  0  0  0  0
 13 21  1  0  0  0  0
 14 22  1  0  0  0  0
 15 17  1  6  0  0  0
 15 19  1  0  0  0  0
 16 18  1  1  0  0  0
 16 20  1  0  0  0  0
 19 21  1  0  0  0  0
 20 22  1  0  0  0  0
 21 32  1  1  0  0  0
 22 42  1  6  0  0  0
 23 24  2  0  0  0  0
 23 28  1  0  0  0  0
 24 25  1  0  0  0  0
 25 26  2  0  0  0  0
 26 27  1  0  0  0  0
 26 32  1  0  0  0  0
 27 28  2  0  0  0  0
 27 30  1  0  0  0  0
 28 29  1  0  0  0  0
 30 31  2  0  0  0  0
 31 32  1  0  0  0  0
 33 34  2  0  0  0  0
 33 38  1  0  0  0  0
 34 35  1  0  0  0  0
 35 36  2  0  0  0  0
 36 37  1  0  0  0  0
 36 42  1  0  0  0  0
 37 38  2  0  0  0  0
 37 40  1  0  0  0  0
 38 39  1  0  0  0  0
 40 41  2  0  0  0  0
 41 42  1  0  0  0  0
M  CHG  2   3  -1   4  -1
M  END
>  <CHROM.1>
72.50997001,84.64925247,5.09523749,-34.55991495,-15.62483037,-3.13213571
-0.79986218,-0.63423321

>  <Name>
ligand

>  <RI>
0

>  <Rbt.Current_Directory>
/home/itssahil/PROJECTS/Mol_Feturizer/New_Systems/rnas/4QLN

>  <Rbt.Executable>
rbdock ($Id: //depot/dev/client3/rdock/2013.1/src/exe/rbdock.cxx#4 $)

>  <Rbt.Library>
libRbt.so (2013.1, Build901 2013/11/27)

>  <Rbt.Parameter_File>
/export/apps/rDock/src/rDock_2013.1_src/data/scripts/dock_solv.prm

>  <Rbt.Receptor>
prm/pocket_docking_3.prm

>  <SCORE>
-25.3177

>  <SCORE.INTER>
-26.2684

>  <SCORE.INTER.CONST>
1

>  <SCORE.INTER.POLAR>
0

>  <SCORE.INTER.ROT>
2

>  <SCORE.INTER.SOLV>
27.4204

>  <SCORE.INTER.VDW>
-31.5858

>  <SCORE.INTER.norm>
-0.625439

>  <SCORE.INTRA>
0.950721

>  <SCORE.INTRA.DIHEDRAL>
0.00103177

>  <SCORE.INTRA.DIHEDRAL.0>
2.39985

>  <SCORE.INTRA.POLAR>
0

>  <SCORE.INTRA.POLAR.0>
0

>  <SCORE.INTRA.REPUL>
0

>  <SCORE.INTRA.REPUL.0>
0

>  <SCORE.INTRA.SOLV>
0.884586

>  <SCORE.INTRA.SOLV.lig_0>
-110.958

>  <SCORE.INTRA.VDW>
0.507912

>  <SCORE.INTRA.VDW.0>
-2.34644

>  <SCORE.INTRA.norm>
0.0226362

>  <SCORE.RESTR>
0

>  <SCORE.RESTR.CAVITY>
0

>  <SCORE.RESTR.norm>
0

>  <SCORE.SYSTEM>
0

>  <SCORE.SYSTEM.CONST>
0

>  <SCORE.SYSTEM.DIHEDRAL>
0

>  <SCORE.SYSTEM.SOLV>
0

>  <SCORE.SYSTEM.norm>
0

>  <SCORE.heavy>
42

>  <SCORE.norm>
-0.602803

>  <RMSD>
2.058

$$$$
ligand
 OpenBabel11021811513D
libRbt.so/2013.1/901 2013/11/27
 42 48  0  0  0  0  0  0  0  0999 V2000
    3.5560  -35.8530  -12.9901 P   0  0  2  0  0  0  0  0  0  0  0  0
    7.5009  -35.9071  -16.1443 P   0  0  1  0  0  0  0  0  0  0  0  0
    3.0505  -37.1648  -12.4364 O   0  5  0  0  0  0  0  0  0  0  0  0
    6.9754  -34.5056  -16.3444 O   0  5  0  0  0  0  0  0  0  0  0  0
    2.7016  -34.6124  -12.8857 O   0  0  0  0  0  0  0  0  0  0  0  0
    8.8578  -36.2881  -16.6857 O   0  0  0  0  0  0  0  0  0  0  0  0
    3.1979  -36.9909  -15.3425 C   0  0  0  0  0  0  0  0  0  0  0  0
    8.2270  -35.4391  -13.6530 C   0  0  0  0  0  0  0  0  0  0  0  0
    3.9374  -36.0736  -14.5383 O   0  0  0  0  0  0  0  0  0  0  0  0
    7.4768  -36.2344  -14.5680 O   0  0  0  0  0  0  0  0  0  0  0  0
    4.1102  -37.5766  -16.4138 C   0  0  1  0  0  0  0  0  0  0  0  0
    7.3325  -35.0109  -12.4964 C   0  0  1  0  0  0  0  0  0  0  0  0
    3.3233  -38.0546  -17.5082 O   0  0  0  0  0  0  0  0  0  0  0  0
    7.8618  -33.8301  -11.8887 O   0  0  0  0  0  0  0  0  0  0  0  0
    5.0695  -36.5291  -16.9531 C   0  0  1  0  0  0  0  0  0  0  0  0
    5.9243  -34.6956  -12.9752 C   0  0  1  0  0  0  0  0  0  0  0  0
    6.4155  -36.9404  -16.7345 O   0  0  0  0  0  0  0  0  0  0  0  0
    4.9843  -35.5398  -12.3173 O   0  0  0  0  0  0  0  0  0  0  0  0
    4.7942  -36.4205  -18.4414 C   0  0  0  0  0  0  0  0  0  0  0  0
    5.6626  -33.2460  -12.6149 C   0  0  0  0  0  0  0  0  0  0  0  0
    3.6756  -37.4091  -18.7348 C   0  0  2  0  0  0  0  0  0  0  0  0
    6.9280  -32.7483  -11.9309 C   0  0  2  0  0  0  0  0  0  0  0  0
    0.4901  -33.2631  -18.2442 N   0  0  0  0  0  0  0  0  0  0  0  0
    1.5523  -33.6334  -17.5055 C   0  0  0  0  0  0  0  0  0  0  0  0
    2.2851  -34.7355  -17.7497 N   0  0  0  0  0  0  0  0  0  0  0  0
    1.9835  -35.5556  -18.7848 C   0  0  0  0  0  0  0  0  0  0  0  0
    0.8350  -35.2180  -19.6402 C   0  0  0  0  0  0  0  0  0  0  0  0
    0.0766  -33.9888  -19.3072 C   0  0  0  0  0  0  0  0  0  0  0  0
   -0.9939  -33.6051  -20.0437 N   0  0  0  0  0  0  0  0  0  0  0  0
    0.7577  -36.1816  -20.5771 N   0  0  0  0  0  0  0  0  0  0  0  0
    1.7669  -37.0592  -20.3434 C   0  0  0  0  0  0  0  0  0  0  0  0
    2.4977  -36.6861  -19.2752 N   0  0  0  0  0  0  0  0  0  0  0  0
    7.6698  -30.6337  -16.6796 N   0  0  0  0  0  0  0  0  0  0  0  0
    7.0448  -31.7715  -16.3246 C   0  0  0  0  0  0  0  0  0  0  0  0
    6.9290  -32.1954  -15.0532 N   0  0  0  0  0  0  0  0  0  0  0  0
    7.4520  -31.4758  -14.0311 C   0  0  0  0  0  0  0  0  0  0  0  0
    8.1510  -30.2185  -14.3387 C   0  0  0  0  0  0  0  0  0  0  0  0
    8.2365  -29.8193  -15.7634 C   0  0  0  0  0  0  0  0  0  0  0  0
    8.8627  -28.6752  -16.1335 N   0  0  0  0  0  0  0  0  0  0  0  0
    8.5652  -29.7119  -13.1620 N   0  0  0  0  0  0  0  0  0  0  0  0
    8.1670  -30.5694  -12.1873 C   0  0  0  0  0  0  0  0  0  0  0  0
    7.5042  -31.6200  -12.7048 N   0  0  0  0  0  0  0  0  0  0  0  0
  1  3  1  1  0  0  0
  1  5  2  0  0  0  0
  1  9  1  0  0  0  0
  1 18  1  0  0  0  0
  2  4  1  6  0  0  0
  2  6  2  0  0  0  0
  2 10  1  0  0  0  0
  2 17  1  0  0  0  0
  7  9  1  0  0  0  0
  8 10  1  0  0  0  0
 11  7  1  1  0  0  0
 11 13  1  0  0  0  0
 11 15  1  0  0  0  0
 12  8  1  6  0  0  0
 12 14  1  0  0  0  0
 12 16  1  0  0  0  0
 13 21  1  0  0  0  0
 14 22  1  0  0  0  0
 15 17  1  6  0  0  0
 15 19  1  0  0  0  0
 16 18  1  1  0  0  0
 16 20  1  0  0  0  0
 19 21  1  0  0  0  0
 20 22  1  0  0  0  0
 21 32  1  1  0  0  0
 22 42  1  6  0  0  0
 23 24  2  0  0  0  0
 23 28  1  0  0  0  0
 24 25  1  0  0  0  0
 25 26  2  0  0  0  0
 26 27  1  0  0  0  0
 26 32  1  0  0  0  0
 27 28  2  0  0  0  0
 27 30  1  0  0  0  0
 28 29  1  0  0  0  0
 30 31  2  0  0  0  0
 31 32  1  0  0  0  0
 33 34  2  0  0  0  0
 33 38  1  0  0  0  0
 34 35  1  0  0  0  0
 35 36  2  0  0  0  0
 36 37  1  0  0  0  0
 36 42  1  0  0  0  0
 37 38  2  0  0  0  0
 37 40  1  0  0  0  0
 38 39  1  0  0  0  0
 40 41  2  0  0  0  0
 41 42  1  0  0  0  0
M  CHG  2   3  -1   4  -1
M  END
>  <CHROM.1>
72.91034041,85.45612120,5.08940722,-34.54107201,-15.64208582,-3.12039482
-0.80235742,-0.61110612

>  <Name>
ligand

>  <RI>
0

>  <Rbt.Current_Directory>
/home/itssahil/PROJECTS/Mol_Feturizer/New_Systems/rnas/4QLN

>  <Rbt.Executable>
rbdock ($Id: //depot/dev/client3/rdock/2013.1/src/exe/rbdock.cxx#4 $)

>  <Rbt.Library>
libRbt.so (2013.1, Build901 2013/11/27)

>  <Rbt.Parameter_File>
/export/apps/rDock/src/rDock_2013.1_src/data/scripts/dock_solv.prm

>  <Rbt.Receptor>
prm/pocket_docking_3.prm

>  <SCORE>
-25.4371

>  <SCORE.INTER>
-26.3568

>  <SCORE.INTER.CONST>
1

>  <SCORE.INTER.POLAR>
0

>  <SCORE.INTER.ROT>
2

>  <SCORE.INTER.SOLV>
27.6296

>  <SCORE.INTER.VDW>
-31.7144

>  <SCORE.INTER.norm>
-0.627544

>  <SCORE.INTRA>
0.919732

>  <SCORE.INTRA.DIHEDRAL>
0.00104425

>  <SCORE.INTRA.DIHEDRAL.0>
2.39985

>  <SCORE.INTRA.POLAR>
0

>  <SCORE.INTRA.POLAR.0>
0

>  <SCORE.INTRA.REPUL>
0

>  <SCORE.INTRA.REPUL.0>
0

>  <SCORE.INTRA.SOLV>
0.855521

>  <SCORE.INTRA.SOLV.lig_0>
-110.958

>  <SCORE.INTRA.VDW>
0.491449

>  <SCORE.INTRA.VDW.0>
-2.34644

>  <SCORE.INTRA.norm>
0.0218984

>  <SCORE.RESTR>
0

>  <SCORE.RESTR.CAVITY>
0

>  <SCORE.RESTR.norm>
0

>  <SCORE.SYSTEM>
0

>  <SCORE.SYSTEM.CONST>
0

>  <SCORE.SYSTEM.DIHEDRAL>
0

>  <SCORE.SYSTEM.SOLV>
0

>  <SCORE.SYSTEM.norm>
0

>  <SCORE.heavy>
42

>  <SCORE.norm>
-0.605645

>  <RMSD>
2.060

$$$$
ligand
 OpenBabel11021811513D
libRbt.so/2013.1/901 2013/11/27
 42 48  0  0  0  0  0  0  0  0999 V2000
    3.5270  -35.8210  -12.9739 P   0  0  2  0  0  0  0  0  0  0  0  0
    7.4793  -35.9384  -16.1171 P   0  0  1  0  0  0  0  0  0  0  0  0
    3.0085  -37.1232  -12.4097 O   0  5  0  0  0  0  0  0  0  0  0  0
    6.9667  -34.5342  -16.3313 O   0  5  0  0  0  0  0  0  0  0  0  0
    2.6832  -34.5720  -12.8830 O   0  0  0  0  0  0  0  0  0  0  0  0
    8.8342  -36.3361  -16.6515 O   0  0  0  0  0  0  0  0  0  0  0  0
    3.1649  -36.9770  -15.3169 C   0  0  0  0  0  0  0  0  0  0  0  0
    8.2031  -35.4541  -13.6282 C   0  0  0  0  0  0  0  0  0  0  0  0
    3.9104  -36.0590  -14.5190 O   0  0  0  0  0  0  0  0  0  0  0  0
    7.4483  -36.2510  -14.5380 O   0  0  0  0  0  0  0  0  0  0  0  0
    4.0747  -37.5803  -16.3804 C   0  0  1  0  0  0  0  0  0  0  0  0
    7.3095  -35.0076  -12.4780 C   0  0  1  0  0  0  0  0  0  0  0  0
    3.2865  -38.0614  -17.4725 O   0  0  0  0  0  0  0  0  0  0  0  0
    7.8476  -33.8260  -11.8795 O   0  0  0  0  0  0  0  0  0  0  0  0
    5.0446  -36.5463  -16.9267 C   0  0  1  0  0  0  0  0  0  0  0  0
    5.9053  -34.6843  -12.9633 C   0  0  1  0  0  0  0  0  0  0  0  0
    6.3864  -36.9674  -16.7008 O   0  0  0  0  0  0  0  0  0  0  0  0
    4.9563  -35.5142  -12.3002 O   0  0  0  0  0  0  0  0  0  0  0  0
    4.7741  -36.4488  -18.4166 C   0  0  0  0  0  0  0  0  0  0  0  0
    5.6555  -33.2293  -12.6168 C   0  0  0  0  0  0  0  0  0  0  0  0
    3.6476  -37.4302  -18.7040 C   0  0  2  0  0  0  0  0  0  0  0  0
    6.9234  -32.7365  -11.9340 C   0  0  2  0  0  0  0  0  0  0  0  0
    0.5121  -33.2395  -18.2739 N   0  0  0  0  0  0  0  0  0  0  0  0
    1.5710  -33.6108  -17.5310 C   0  0  0  0  0  0  0  0  0  0  0  0
    2.2903  -34.7252  -17.7590 N   0  0  0  0  0  0  0  0  0  0  0  0
    1.9774  -35.5577  -18.7806 C   0  0  0  0  0  0  0  0  0  0  0  0
    0.8316  -35.2200  -19.6396 C   0  0  0  0  0  0  0  0  0  0  0  0
    0.0884  -33.9768  -19.3249 C   0  0  0  0  0  0  0  0  0  0  0  0
   -0.9787  -33.5920  -20.0658 N   0  0  0  0  0  0  0  0  0  0  0  0
    0.7416  -36.1971  -20.5613 N   0  0  0  0  0  0  0  0  0  0  0  0
    1.7406  -37.0829  -20.3152 C   0  0  0  0  0  0  0  0  0  0  0  0
    2.4775  -36.7018  -19.2541 N   0  0  0  0  0  0  0  0  0  0  0  0
    7.7051  -30.6771  -16.7005 N   0  0  0  0  0  0  0  0  0  0  0  0
    7.0703  -31.8068  -16.3370 C   0  0  0  0  0  0  0  0  0  0  0  0
    6.9448  -32.2165  -15.0619 N   0  0  0  0  0  0  0  0  0  0  0  0
    7.4674  -31.4898  -14.0446 C   0  0  0  0  0  0  0  0  0  0  0  0
    8.1767  -30.2406  -14.3616 C   0  0  0  0  0  0  0  0  0  0  0  0
    8.2725  -29.8570  -15.7899 C   0  0  0  0  0  0  0  0  0  0  0  0
    8.9086  -28.7212  -16.1686 N   0  0  0  0  0  0  0  0  0  0  0  0
    8.5881  -29.7245  -13.1880 N   0  0  0  0  0  0  0  0  0  0  0  0
    8.1788  -30.5689  -12.2065 C   0  0  0  0  0  0  0  0  0  0  0  0
    7.5115  -31.6204  -12.7166 N   0  0  0  0  0  0  0  0  0  0  0  0
  1  3  1  1  0  0  0
  1  5  2  0  0  0  0
  1  9  1  0  0  0  0
  1 18  1  0  0  0  0
  2  4  1  6  0  0  0
  2  6  2  0  0  0  0
  2 10  1  0  0  0  0
  2 17  1  0  0  0  0
  7  9  1  0  0  0  0
  8 10  1  0  0  0  0
 11  7  1  1  0  0  0
 11 13  1  0  0  0  0
 11 15  1  0  0  0  0
 12  8  1  6  0  0  0
 12 14  1  0  0  0  0
 12 16  1  0  0  0  0
 13 21  1  0  0  0  0
 14 22  1  0  0  0  0
 15 17  1  6  0  0  0
 15 19  1  0  0  0  0
 16 18  1  1  0  0  0
 16 20  1  0  0  0  0
 19 21  1  0  0  0  0
 20 22  1  0  0  0  0
 21 32  1  1  0  0  0
 22 42  1  6  0  0  0
 23 24  2  0  0  0  0
 23 28  1  0  0  0  0
 24 25  1  0  0  0  0
 25 26  2  0  0  0  0
 26 27  1  0  0  0  0
 26 32  1  0  0  0  0
 27 28  2  0  0  0  0
 27 30  1  0  0  0  0
 28 29  1  0  0  0  0
 30 31  2  0  0  0  0
 31 32  1  0  0  0  0
 33 34  2  0  0  0  0
 33 38  1  0  0  0  0
 34 35  1  0  0  0  0
 35 36  2  0  0  0  0
 36 37  1  0  0  0  0
 36 42  1  0  0  0  0
 37 38  2  0  0  0  0
 37 40  1  0  0  0  0
 38 39  1  0  0  0  0
 40 41  2  0  0  0  0
 41 42  1  0  0  0  0
M  CHG  2   3  -1   4  -1
M  END
>  <CHROM.1>
73.38634292,85.24794033,5.08059328,-34.54610152,-15.63492147,-3.13443334
-0.79970231,-0.63054674

>  <Name>
ligand

>  <RI>
0

>  <Rbt.Current_Directory>
/home/itssahil/PROJECTS/Mol_Feturizer/New_Systems/rnas/4QLN

>  <Rbt.Executable>
rbdock ($Id: //depot/dev/client3/rdock/2013.1/src/exe/rbdock.cxx#4 $)

>  <Rbt.Library>
libRbt.so (2013.1, Build901 2013/11/27)

>  <Rbt.Parameter_File>
/export/apps/rDock/src/rDock_2013.1_src/data/scripts/dock_solv.prm

>  <Rbt.Receptor>
prm/pocket_docking_4.prm

>  <SCORE>
-25.3695

>  <SCORE.INTER>
-26.3167

>  <SCORE.INTER.CONST>
1

>  <SCORE.INTER.POLAR>
0

>  <SCORE.INTER.ROT>
2

>  <SCORE.INTER.SOLV>
27.5438

>  <SCORE.INTER.VDW>
-31.6591

>  <SCORE.INTER.norm>
-0.626587

>  <SCORE.INTRA>
0.947181

>  <SCORE.INTRA.DIHEDRAL>
0.0010473

>  <SCORE.INTRA.DIHEDRAL.0>
2.39985

>  <SCORE.INTRA.POLAR>
0

>  <SCORE.INTRA.POLAR.0>
0

>  <SCORE.INTRA.REPUL>
0

>  <SCORE.INTRA.REPUL.0>
0

>  <SCORE.INTRA.SOLV>
0.862668

>  <SCORE.INTRA.SOLV.lig_0>
-110.958

>  <SCORE.INTRA.VDW>
0.515323

>  <SCORE.INTRA.VDW.0>
-2.34644

>  <SCORE.INTRA.norm>
0.0225519

>  <SCORE.RESTR>
0

>  <SCORE.RESTR.CAVITY>
0

>  <SCORE.RESTR.norm>
0

>  <SCORE.SYSTEM>
0

>  <SCORE.SYSTEM.CONST>
0

>  <SCORE.SYSTEM.DIHEDRAL>
0

>  <SCORE.SYSTEM.SOLV>
0

>  <SCORE.SYSTEM.norm>
0

>  <SCORE.heavy>
42

>  <SCORE.norm>
-0.604035

>  <RMSD>
2.064

$$$$
ligand
 OpenBabel11021811513D
libRbt.so/2013.1/901 2013/11/27
 42 48  0  0  0  0  0  0  0  0999 V2000
    3.4948  -35.7881  -12.9828 P   0  0  2  0  0  0  0  0  0  0  0  0
    7.4707  -35.9644  -16.0933 P   0  0  1  0  0  0  0  0  0  0  0  0
    2.9595  -37.0815  -12.4140 O   0  5  0  0  0  0  0  0  0  0  0  0
    6.9733  -34.5569  -16.3210 O   0  5  0  0  0  0  0  0  0  0  0  0
    2.6623  -34.5307  -12.9071 O   0  0  0  0  0  0  0  0  0  0  0  0
    8.8260  -36.3786  -16.6140 O   0  0  0  0  0  0  0  0  0  0  0  0
    3.1404  -36.9566  -15.3207 C   0  0  0  0  0  0  0  0  0  0  0  0
    8.1793  -35.4701  -13.6019 C   0  0  0  0  0  0  0  0  0  0  0  0
    3.8882  -36.0403  -14.5231 O   0  0  0  0  0  0  0  0  0  0  0  0
    7.4242  -36.2660  -14.5123 O   0  0  0  0  0  0  0  0  0  0  0  0
    4.0528  -37.5758  -16.3728 C   0  0  1  0  0  0  0  0  0  0  0  0
    7.2808  -35.0073  -12.4619 C   0  0  1  0  0  0  0  0  0  0  0  0
    3.2688  -38.0568  -17.4680 O   0  0  0  0  0  0  0  0  0  0  0  0
    7.8254  -33.8268  -11.8672 O   0  0  0  0  0  0  0  0  0  0  0  0
    5.0369  -36.5547  -16.9182 C   0  0  1  0  0  0  0  0  0  0  0  0
    5.8837  -34.6741  -12.9607 C   0  0  1  0  0  0  0  0  0  0  0  0
    6.3728  -36.9870  -16.6787 O   0  0  0  0  0  0  0  0  0  0  0  0
    4.9215  -35.4904  -12.2997 O   0  0  0  0  0  0  0  0  0  0  0  0
    4.7792  -36.4648  -18.4109 C   0  0  0  0  0  0  0  0  0  0  0  0
    5.6450  -33.2144  -12.6260 C   0  0  0  0  0  0  0  0  0  0  0  0
    3.6457  -37.4374  -18.7007 C   0  0  2  0  0  0  0  0  0  0  0  0
    6.9121  -32.7290  -11.9364 C   0  0  2  0  0  0  0  0  0  0  0  0
    0.4934  -33.2592  -18.2725 N   0  0  0  0  0  0  0  0  0  0  0  0
    1.5359  -33.6412  -17.5120 C   0  0  0  0  0  0  0  0  0  0  0  0
    2.2623  -34.7505  -17.7420 N   0  0  0  0  0  0  0  0  0  0  0  0
    1.9742  -35.5664  -18.7842 C   0  0  0  0  0  0  0  0  0  0  0  0
    0.8476  -35.2161  -19.6633 C   0  0  0  0  0  0  0  0  0  0  0  0
    0.0951  -33.9795  -19.3449 C   0  0  0  0  0  0  0  0  0  0  0  0
   -0.9556  -33.5840  -20.1034 N   0  0  0  0  0  0  0  0  0  0  0  0
    0.7803  -36.1779  -20.6028 N   0  0  0  0  0  0  0  0  0  0  0  0
    1.7751  -37.0662  -20.3488 C   0  0  0  0  0  0  0  0  0  0  0  0
    2.4870  -36.7017  -19.2650 N   0  0  0  0  0  0  0  0  0  0  0  0
    7.6465  -30.6446  -16.6996 N   0  0  0  0  0  0  0  0  0  0  0  0
    6.9846  -31.7575  -16.3322 C   0  0  0  0  0  0  0  0  0  0  0  0
    6.8762  -32.1765  -15.0586 N   0  0  0  0  0  0  0  0  0  0  0  0
    7.4457  -31.4777  -14.0470 C   0  0  0  0  0  0  0  0  0  0  0  0
    8.1870  -30.2484  -14.3684 C   0  0  0  0  0  0  0  0  0  0  0  0
    8.2613  -29.8529  -15.7947 C   0  0  0  0  0  0  0  0  0  0  0  0
    8.9243  -28.7339  -16.1773 N   0  0  0  0  0  0  0  0  0  0  0  0
    8.6424  -29.7583  -13.2000 N   0  0  0  0  0  0  0  0  0  0  0  0
    8.2296  -30.5997  -12.2174 C   0  0  0  0  0  0  0  0  0  0  0  0
    7.5170  -31.6238  -12.7217 N   0  0  0  0  0  0  0  0  0  0  0  0
  1  3  1  1  0  0  0
  1  5  2  0  0  0  0
  1  9  1  0  0  0  0
  1 18  1  0  0  0  0
  2  4  1  6  0  0  0
  2  6  2  0  0  0  0
  2 10  1  0  0  0  0
  2 17  1  0  0  0  0
  7  9  1  0  0  0  0
  8 10  1  0  0  0  0
 11  7  1  1  0  0  0
 11 13  1  0  0  0  0
 11 15  1  0  0  0  0
 12  8  1  6  0  0  0
 12 14  1  0  0  0  0
 12 16  1  0  0  0  0
 13 21  1  0  0  0  0
 14 22  1  0  0  0  0
 15 17  1  6  0  0  0
 15 19  1  0  0  0  0
 16 18  1  1  0  0  0
 16 20  1  0  0  0  0
 19 21  1  0  0  0  0
 20 22  1  0  0  0  0
 21 32  1  1  0  0  0
 22 42  1  6  0  0  0
 23 24  2  0  0  0  0
 23 28  1  0  0  0  0
 24 25  1  0  0  0  0
 25 26  2  0  0  0  0
 26 27  1  0  0  0  0
 26 32  1  0  0  0  0
 27 28  2  0  0  0  0
 27 30  1  0  0  0  0
 28 29  1  0  0  0  0
 30 31  2  0  0  0  0
 31 32  1  0  0  0  0
 33 34  2  0  0  0  0
 33 38  1  0  0  0  0
 34 35  1  0  0  0  0
 35 36  2  0  0  0  0
 36 37  1  0  0  0  0
 36 42  1  0  0  0  0
 37 38  2  0  0  0  0
 37 40  1  0  0  0  0
 38 39  1  0  0  0  0
 40 41  2  0  0  0  0
 41 42  1  0  0  0  0
M  CHG  2   3  -1   4  -1
M  END
>  <CHROM.1>
71.67903944,87.68362384,5.06864934,-34.54454808,-15.63460462,-3.13540157
-0.80116213,-0.62945896

>  <Name>
ligand

>  <RI>
0

>  <Rbt.Current_Directory>
/home/itssahil/PROJECTS/Mol_Feturizer/New_Systems/rnas/4QLN

>  <Rbt.Executable>
rbdock ($Id: //depot/dev/client3/rdock/2013.1/src/exe/rbdock.cxx#4 $)

>  <Rbt.Library>
libRbt.so (2013.1, Build901 2013/11/27)

>  <Rbt.Parameter_File>
/export/apps/rDock/src/rDock_2013.1_src/data/scripts/dock_solv.prm

>  <Rbt.Receptor>
prm/pocket_docking_4.prm

>  <SCORE>
-25.4354

>  <SCORE.INTER>
-26.2013

>  <SCORE.INTER.CONST>
1

>  <SCORE.INTER.POLAR>
0

>  <SCORE.INTER.ROT>
2

>  <SCORE.INTER.SOLV>
27.5285

>  <SCORE.INTER.VDW>
-31.577

>  <SCORE.INTER.norm>
-0.623839

>  <SCORE.INTRA>
0.765893

>  <SCORE.INTRA.DIHEDRAL>
0.00104648

>  <SCORE.INTRA.DIHEDRAL.0>
2.39985

>  <SCORE.INTRA.POLAR>
0

>  <SCORE.INTRA.POLAR.0>
0

>  <SCORE.INTRA.REPUL>
0

>  <SCORE.INTRA.REPUL.0>
0

>  <SCORE.INTRA.SOLV>
0.784714

>  <SCORE.INTRA.SOLV.lig_0>
-110.958

>  <SCORE.INTRA.VDW>
0.373013

>  <SCORE.INTRA.VDW.0>
-2.34644

>  <SCORE.INTRA.norm>
0.0182356

>  <SCORE.RESTR>
0

>  <SCORE.RESTR.CAVITY>
0

>  <SCORE.RESTR.norm>
0

>  <SCORE.SYSTEM>
0

>  <SCORE.SYSTEM.CONST>
0

>  <SCORE.SYSTEM.DIHEDRAL>
0

>  <SCORE.SYSTEM.SOLV>
0

>  <SCORE.SYSTEM.norm>
0

>  <SCORE.heavy>
42

>  <SCORE.norm>
-0.605604

>  <RMSD>
2.065

$$$$
ligand
 OpenBabel11021811513D
libRbt.so/2013.1/901 2013/11/27
 42 48  0  0  0  0  0  0  0  0999 V2000
    3.4826  -35.7819  -12.9881 P   0  0  2  0  0  0  0  0  0  0  0  0
    7.4636  -35.9417  -16.0929 P   0  0  1  0  0  0  0  0  0  0  0  0
    2.9509  -37.0777  -12.4212 O   0  5  0  0  0  0  0  0  0  0  0  0
    6.9617  -34.5357  -16.3200 O   0  5  0  0  0  0  0  0  0  0  0  0
    2.6457  -34.5274  -12.9124 O   0  0  0  0  0  0  0  0  0  0  0  0
    8.8211  -36.3507  -16.6121 O   0  0  0  0  0  0  0  0  0  0  0  0
    3.1357  -36.9495  -15.3276 C   0  0  0  0  0  0  0  0  0  0  0  0
    8.1669  -35.4472  -13.6001 C   0  0  0  0  0  0  0  0  0  0  0  0
    3.8791  -36.0313  -14.5280 O   0  0  0  0  0  0  0  0  0  0  0  0
    7.4158  -36.2449  -14.5123 O   0  0  0  0  0  0  0  0  0  0  0  0
    4.0517  -37.5645  -16.3789 C   0  0  1  0  0  0  0  0  0  0  0  0
    7.2652  -34.9886  -12.4610 C   0  0  1  0  0  0  0  0  0  0  0  0
    3.2710  -38.0472  -17.4757 O   0  0  0  0  0  0  0  0  0  0  0  0
    7.8048  -33.8068  -11.8643 O   0  0  0  0  0  0  0  0  0  0  0  0
    5.0330  -36.5395  -16.9220 C   0  0  1  0  0  0  0  0  0  0  0  0
    5.8677  -34.6597  -12.9615 C   0  0  1  0  0  0  0  0  0  0  0  0
    6.3701  -36.9675  -16.6809 O   0  0  0  0  0  0  0  0  0  0  0  0
    4.9073  -35.4799  -12.3026 O   0  0  0  0  0  0  0  0  0  0  0  0
    4.7772  -36.4491  -18.4149 C   0  0  0  0  0  0  0  0  0  0  0  0
    5.6235  -33.2011  -12.6258 C   0  0  0  0  0  0  0  0  0  0  0  0
    3.6475  -37.4254  -18.7073 C   0  0  2  0  0  0  0  0  0  0  0  0
    6.8879  -32.7121  -11.9339 C   0  0  2  0  0  0  0  0  0  0  0  0
    0.4749  -33.2630  -18.2748 N   0  0  0  0  0  0  0  0  0  0  0  0
    1.5169  -33.6427  -17.5124 C   0  0  0  0  0  0  0  0  0  0  0  0
    2.2490  -34.7480  -17.7439 N   0  0  0  0  0  0  0  0  0  0  0  0
    1.9677  -35.5618  -18.7896 C   0  0  0  0  0  0  0  0  0  0  0  0
    0.8421  -35.2138  -19.6708 C   0  0  0  0  0  0  0  0  0  0  0  0
    0.0830  -33.9816  -19.3506 C   0  0  0  0  0  0  0  0  0  0  0  0
   -0.9673  -33.5885  -20.1110 N   0  0  0  0  0  0  0  0  0  0  0  0
    0.7819  -36.1728  -20.6137 N   0  0  0  0  0  0  0  0  0  0  0  0
    1.7801  -37.0574  -20.3597 C   0  0  0  0  0  0  0  0  0  0  0  0
    2.4871  -36.6932  -19.2726 N   0  0  0  0  0  0  0  0  0  0  0  0
    7.7116  -30.6760  -16.7034 N   0  0  0  0  0  0  0  0  0  0  0  0
    7.0645  -31.7986  -16.3392 C   0  0  0  0  0  0  0  0  0  0  0  0
    6.9291  -32.2028  -15.0633 N   0  0  0  0  0  0  0  0  0  0  0  0
    7.4536  -31.4776  -14.0460 C   0  0  0  0  0  0  0  0  0  0  0  0
    8.1761  -30.2361  -14.3636 C   0  0  0  0  0  0  0  0  0  0  0  0
    8.2823  -29.8583  -15.7927 C   0  0  0  0  0  0  0  0  0  0  0  0
    8.9308  -28.7297  -16.1721 N   0  0  0  0  0  0  0  0  0  0  0  0
    8.5867  -29.7200  -13.1898 N   0  0  0  0  0  0  0  0  0  0  0  0
    8.1648  -30.5573  -12.2075 C   0  0  0  0  0  0  0  0  0  0  0  0
    7.4901  -31.6041  -12.7173 N   0  0  0  0  0  0  0  0  0  0  0  0
  1  3  1  1  0  0  0
  1  5  2  0  0  0  0
  1  9  1  0  0  0  0
  1 18  1  0  0  0  0
  2  4  1  6  0  0  0
  2  6  2  0  0  0  0
  2 10  1  0  0  0  0
  2 17  1  0  0  0  0
  7  9  1  0  0  0  0
  8 10  1  0  0  0  0
 11  7  1  1  0  0  0
 11 13  1  0  0  0  0
 11 15  1  0  0  0  0
 12  8  1  6  0  0  0
 12 14  1  0  0  0  0
 12 16  1  0  0  0  0
 13 21  1  0  0  0  0
 14 22  1  0  0  0  0
 15 17  1  6  0  0  0
 15 19  1  0  0  0  0
 16 18  1  1  0  0  0
 16 20  1  0  0  0  0
 19 21  1  0  0  0  0
 20 22  1  0  0  0  0
 21 32  1  1  0  0  0
 22 42  1  6  0  0  0
 23 24  2  0  0  0  0
 23 28  1  0  0  0  0
 24 25  1  0  0  0  0
 25 26  2  0  0  0  0
 26 27  1  0  0  0  0
 26 32  1  0  0  0  0
 27 28  2  0  0  0  0
 27 30  1  0  0  0  0
 28 29  1  0  0  0  0
 30 31  2  0  0  0  0
 31 32  1  0  0  0  0
 33 34  2  0  0  0  0
 33 38  1  0  0  0  0
 34 35  1  0  0  0  0
 35 36  2  0  0  0  0
 36 37  1  0  0  0  0
 36 42  1  0  0  0  0
 37 38  2  0  0  0  0
 37 40  1  0  0  0  0
 38 39  1  0  0  0  0
 40 41  2  0  0  0  0
 41 42  1  0  0  0  0
M  CHG  2   3  -1   4  -1
M  END
>  <CHROM.1>
71.50828348,85.60464869,5.06295280,-34.53542244,-15.63678403,3.13673304,-0.80184809
-0.64602521

>  <Name>
ligand

>  <RI>
0

>  <Rbt.Current_Directory>
/home/itssahil/PROJECTS/Mol_Feturizer/New_Systems/rnas/4QLN

>  <Rbt.Executable>
rbdock ($Id: //depot/dev/client3/rdock/2013.1/src/exe/rbdock.cxx#4 $)

>  <Rbt.Library>
libRbt.so (2013.1, Build901 2013/11/27)

>  <Rbt.Parameter_File>
/export/apps/rDock/src/rDock_2013.1_src/data/scripts/dock_solv.prm

>  <Rbt.Receptor>
prm/pocket_docking_4.prm

>  <SCORE>
-25.3999

>  <SCORE.INTER>
-26.2177

>  <SCORE.INTER.CONST>
1

>  <SCORE.INTER.POLAR>
0

>  <SCORE.INTER.ROT>
2

>  <SCORE.INTER.SOLV>
27.4424

>  <SCORE.INTER.VDW>
-31.5593

>  <SCORE.INTER.norm>
-0.624231

>  <SCORE.INTRA>
0.81777

>  <SCORE.INTRA.DIHEDRAL>
0.0010302

>  <SCORE.INTRA.DIHEDRAL.0>
2.39985

>  <SCORE.INTRA.POLAR>
0

>  <SCORE.INTRA.POLAR.0>
0

>  <SCORE.INTRA.REPUL>
0

>  <SCORE.INTRA.REPUL.0>
0

>  <SCORE.INTRA.SOLV>
0.851308

>  <SCORE.INTRA.SOLV.lig_0>
-110.958

>  <SCORE.INTRA.VDW>
0.391601

>  <SCORE.INTRA.VDW.0>
-2.34644

>  <SCORE.INTRA.norm>
0.0194707

>  <SCORE.RESTR>
0

>  <SCORE.RESTR.CAVITY>
0

>  <SCORE.RESTR.norm>
0

>  <SCORE.SYSTEM>
0

>  <SCORE.SYSTEM.CONST>
0

>  <SCORE.SYSTEM.DIHEDRAL>
0

>  <SCORE.SYSTEM.SOLV>
0

>  <SCORE.SYSTEM.norm>
0

>  <SCORE.heavy>
42

>  <SCORE.norm>
-0.60476

>  <RMSD>
2.068

$$$$
ligand
 OpenBabel11021811513D
libRbt.so/2013.1/901 2013/11/27
 42 48  0  0  0  0  0  0  0  0999 V2000
    3.5012  -35.8179  -12.9618 P   0  0  2  0  0  0  0  0  0  0  0  0
    7.4696  -35.9713  -16.0831 P   0  0  1  0  0  0  0  0  0  0  0  0
    2.9702  -37.1150  -12.3975 O   0  5  0  0  0  0  0  0  0  0  0  0
    6.9685  -34.5639  -16.3032 O   0  5  0  0  0  0  0  0  0  0  0  0
    2.6661  -34.5627  -12.8784 O   0  0  0  0  0  0  0  0  0  0  0  0
    8.8245  -36.3801  -16.6091 O   0  0  0  0  0  0  0  0  0  0  0  0
    3.1435  -36.9767  -15.3041 C   0  0  0  0  0  0  0  0  0  0  0  0
    8.1834  -35.4865  -13.5913 C   0  0  0  0  0  0  0  0  0  0  0  0
    3.8913  -36.0623  -14.5043 O   0  0  0  0  0  0  0  0  0  0  0  0
    7.4278  -36.2801  -14.5034 O   0  0  0  0  0  0  0  0  0  0  0  0
    4.0547  -37.5891  -16.3612 C   0  0  1  0  0  0  0  0  0  0  0  0
    7.2868  -35.0309  -12.4470 C   0  0  1  0  0  0  0  0  0  0  0  0
    3.2690  -38.0669  -17.4566 O   0  0  0  0  0  0  0  0  0  0  0  0
    7.8303  -33.8519  -11.8484 O   0  0  0  0  0  0  0  0  0  0  0  0
    5.0350  -36.5633  -16.9046 C   0  0  1  0  0  0  0  0  0  0  0  0
    5.8877  -34.6986  -12.9408 C   0  0  1  0  0  0  0  0  0  0  0  0
    6.3725  -36.9937  -16.6704 O   0  0  0  0  0  0  0  0  0  0  0  0
    4.9290  -35.5200  -12.2810 O   0  0  0  0  0  0  0  0  0  0  0  0
    4.7733  -36.4673  -18.3961 C   0  0  0  0  0  0  0  0  0  0  0  0
    5.6466  -33.2409  -12.5990 C   0  0  0  0  0  0  0  0  0  0  0  0
    3.6413  -37.4412  -18.6875 C   0  0  2  0  0  0  0  0  0  0  0  0
    6.9143  -32.7558  -11.9103 C   0  0  2  0  0  0  0  0  0  0  0  0
    0.4804  -33.2723  -18.2322 N   0  0  0  0  0  0  0  0  0  0  0  0
    1.5257  -33.6554  -17.4759 C   0  0  0  0  0  0  0  0  0  0  0  0
    2.2540  -34.7620  -17.7129 N   0  0  0  0  0  0  0  0  0  0  0  0
    1.9653  -35.5737  -18.7582 C   0  0  0  0  0  0  0  0  0  0  0  0
    0.8357  -35.2220  -19.6329 C   0  0  0  0  0  0  0  0  0  0  0  0
    0.0811  -33.9885  -19.3069 C   0  0  0  0  0  0  0  0  0  0  0  0
   -0.9723  -33.5920  -20.0610 N   0  0  0  0  0  0  0  0  0  0  0  0
    0.7684  -36.1795  -20.5767 N   0  0  0  0  0  0  0  0  0  0  0  0
    1.7659  -37.0666  -20.3293 C   0  0  0  0  0  0  0  0  0  0  0  0
    2.4796  -36.7056  -19.2456 N   0  0  0  0  0  0  0  0  0  0  0  0
    7.6520  -30.6610  -16.6685 N   0  0  0  0  0  0  0  0  0  0  0  0
    6.9961  -31.7786  -16.3048 C   0  0  0  0  0  0  0  0  0  0  0  0
    6.8859  -32.1999  -15.0320 N   0  0  0  0  0  0  0  0  0  0  0  0
    7.4472  -31.4986  -14.0175 C   0  0  0  0  0  0  0  0  0  0  0  0
    8.1816  -30.2641  -14.3349 C   0  0  0  0  0  0  0  0  0  0  0  0
    8.2584  -29.8663  -15.7605 C   0  0  0  0  0  0  0  0  0  0  0  0
    8.9154  -28.7426  -16.1394 N   0  0  0  0  0  0  0  0  0  0  0  0
    8.6297  -29.7723  -13.1643 N   0  0  0  0  0  0  0  0  0  0  0  0
    8.2188  -30.6176  -12.1842 C   0  0  0  0  0  0  0  0  0  0  0  0
    7.5148  -31.6458  -12.6922 N   0  0  0  0  0  0  0  0  0  0  0  0
  1  3  1  1  0  0  0
  1  5  2  0  0  0  0
  1  9  1  0  0  0  0
  1 18  1  0  0  0  0
  2  4  1  6  0  0  0
  2  6  2  0  0  0  0
  2 10  1  0  0  0  0
  2 17  1  0  0  0  0
  7  9  1  0  0  0  0
  8 10  1  0  0  0  0
 11  7  1  1  0  0  0
 11 13  1  0  0  0  0
 11 15  1  0  0  0  0
 12  8  1  6  0  0  0
 12 14  1  0  0  0  0
 12 16  1  0  0  0  0
 13 21  1  0  0  0  0
 14 22  1  0  0  0  0
 15 17  1  6  0  0  0
 15 19  1  0  0  0  0
 16 18  1  1  0  0  0
 16 20  1  0  0  0  0
 19 21  1  0  0  0  0
 20 22  1  0  0  0  0
 21 32  1  1  0  0  0
 22 42  1  6  0  0  0
 23 24  2  0  0  0  0
 23 28  1  0  0  0  0
 24 25  1  0  0  0  0
 25 26  2  0  0  0  0
 26 27  1  0  0  0  0
 26 32  1  0  0  0  0
 27 28  2  0  0  0  0
 27 30  1  0  0  0  0
 28 29  1  0  0  0  0
 30 31  2  0  0  0  0
 31 32  1  0  0  0  0
 33 34  2  0  0  0  0
 33 38  1  0  0  0  0
 34 35  1  0  0  0  0
 35 36  2  0  0  0  0
 36 37  1  0  0  0  0
 36 42  1  0  0  0  0
 37 38  2  0  0  0  0
 37 40  1  0  0  0  0
 38 39  1  0  0  0  0
 40 41  2  0  0  0  0
 41 42  1  0  0  0  0
M  CHG  2   3  -1   4  -1
M  END
>  <CHROM.1>
71.66643270,87.21705696,5.06717462,-34.55995876,-15.61217655,-3.13377724
-0.79991312,-0.62591304

>  <Name>
ligand

>  <RI>
0

>  <Rbt.Current_Directory>
/home/itssahil/PROJECTS/Mol_Feturizer/New_Systems/rnas/4QLN

>  <Rbt.Executable>
rbdock ($Id: //depot/dev/client3/rdock/2013.1/src/exe/rbdock.cxx#4 $)

>  <Rbt.Library>
libRbt.so (2013.1, Build901 2013/11/27)

>  <Rbt.Parameter_File>
/export/apps/rDock/src/rDock_2013.1_src/data/scripts/dock_solv.prm

>  <Rbt.Receptor>
prm/pocket_docking_7.prm

>  <SCORE>
-25.3517

>  <SCORE.INTER>
-26.1295

>  <SCORE.INTER.CONST>
1

>  <SCORE.INTER.POLAR>
0

>  <SCORE.INTER.ROT>
2

>  <SCORE.INTER.SOLV>
27.3719

>  <SCORE.INTER.VDW>
-31.477

>  <SCORE.INTER.norm>
-0.622131

>  <SCORE.INTRA>
0.777778

>  <SCORE.INTRA.DIHEDRAL>
0.00104388

>  <SCORE.INTRA.DIHEDRAL.0>
2.39985

>  <SCORE.INTRA.POLAR>
0

>  <SCORE.INTRA.POLAR.0>
0

>  <SCORE.INTRA.REPUL>
0

>  <SCORE.INTRA.REPUL.0>
0

>  <SCORE.INTRA.SOLV>
0.798019

>  <SCORE.INTRA.SOLV.lig_0>
-110.958

>  <SCORE.INTRA.VDW>
0.378246

>  <SCORE.INTRA.VDW.0>
-2.34644

>  <SCORE.INTRA.norm>
0.0185185

>  <SCORE.RESTR>
0

>  <SCORE.RESTR.CAVITY>
0

>  <SCORE.RESTR.norm>
0

>  <SCORE.SYSTEM>
0

>  <SCORE.SYSTEM.CONST>
0

>  <SCORE.SYSTEM.DIHEDRAL>
0

>  <SCORE.SYSTEM.SOLV>
0

>  <SCORE.SYSTEM.norm>
0

>  <SCORE.heavy>
42

>  <SCORE.norm>
-0.603612

>  <RMSD>
2.072

$$$$
ligand
 OpenBabel11021811513D
libRbt.so/2013.1/901 2013/11/27
 42 48  0  0  0  0  0  0  0  0999 V2000
    3.4712  -35.8184  -12.9654 P   0  0  2  0  0  0  0  0  0  0  0  0
    7.4669  -35.9957  -16.0505 P   0  0  1  0  0  0  0  0  0  0  0  0
    2.9401  -37.1103  -12.3895 O   0  5  0  0  0  0  0  0  0  0  0  0
    6.9625  -34.5930  -16.2924 O   0  5  0  0  0  0  0  0  0  0  0  0
    2.6309  -34.5653  -12.9047 O   0  0  0  0  0  0  0  0  0  0  0  0
    8.8277  -36.4060  -16.5597 O   0  0  0  0  0  0  0  0  0  0  0  0
    3.1379  -37.0075  -15.2960 C   0  0  0  0  0  0  0  0  0  0  0  0
    8.1574  -35.4774  -13.5589 C   0  0  0  0  0  0  0  0  0  0  0  0
    3.8754  -36.0804  -14.5013 O   0  0  0  0  0  0  0  0  0  0  0  0
    7.4125  -36.2850  -14.4675 O   0  0  0  0  0  0  0  0  0  0  0  0
    4.0603  -37.6296  -16.3376 C   0  0  1  0  0  0  0  0  0  0  0  0
    7.2493  -35.0109  -12.4281 C   0  0  1  0  0  0  0  0  0  0  0  0
    3.2858  -38.1240  -17.4336 O   0  0  0  0  0  0  0  0  0  0  0  0
    7.7834  -33.8225  -11.8395 O   0  0  0  0  0  0  0  0  0  0  0  0
    5.0416  -36.6070  -16.8853 C   0  0  1  0  0  0  0  0  0  0  0  0
    5.8534  -34.6900  -12.9379 C   0  0  1  0  0  0  0  0  0  0  0  0
    6.3785  -37.0294  -16.6343 O   0  0  0  0  0  0  0  0  0  0  0  0
    4.8920  -35.5067  -12.2762 O   0  0  0  0  0  0  0  0  0  0  0  0
    4.7924  -36.5305  -18.3801 C   0  0  0  0  0  0  0  0  0  0  0  0
    5.6040  -33.2291  -12.6163 C   0  0  0  0  0  0  0  0  0  0  0  0
    3.6664  -37.5122  -18.6690 C   0  0  2  0  0  0  0  0  0  0  0  0
    6.8640  -32.7307  -11.9230 C   0  0  2  0  0  0  0  0  0  0  0  0
    0.4530  -33.3787  -18.2614 N   0  0  0  0  0  0  0  0  0  0  0  0
    1.4887  -33.7522  -17.4875 C   0  0  0  0  0  0  0  0  0  0  0  0
    2.2332  -34.8503  -17.7137 N   0  0  0  0  0  0  0  0  0  0  0  0
    1.9718  -35.6628  -18.7656 C   0  0  0  0  0  0  0  0  0  0  0  0
    0.8542  -35.3213  -19.6595 C   0  0  0  0  0  0  0  0  0  0  0  0
    0.0806  -34.0968  -19.3445 C   0  0  0  0  0  0  0  0  0  0  0  0
   -0.9635  -33.7100  -20.1164 N   0  0  0  0  0  0  0  0  0  0  0  0
    0.8140  -36.2774  -20.6064 N   0  0  0  0  0  0  0  0  0  0  0  0
    1.8165  -37.1542  -20.3431 C   0  0  0  0  0  0  0  0  0  0  0  0
    2.5069  -36.7879  -19.2461 N   0  0  0  0  0  0  0  0  0  0  0  0
    7.7368  -30.7542  -16.7088 N   0  0  0  0  0  0  0  0  0  0  0  0
    7.0949  -31.8776  -16.3379 C   0  0  0  0  0  0  0  0  0  0  0  0
    6.9451  -32.2651  -15.0585 N   0  0  0  0  0  0  0  0  0  0  0  0
    7.4484  -31.5208  -14.0442 C   0  0  0  0  0  0  0  0  0  0  0  0
    8.1638  -30.2772  -14.3692 C   0  0  0  0  0  0  0  0  0  0  0  0
    8.2869  -29.9185  -15.8019 C   0  0  0  0  0  0  0  0  0  0  0  0
    8.9303  -28.7893  -16.1881 N   0  0  0  0  0  0  0  0  0  0  0  0
    8.5529  -29.7408  -13.1972 N   0  0  0  0  0  0  0  0  0  0  0  0
    8.1248  -30.5681  -12.2091 C   0  0  0  0  0  0  0  0  0  0  0  0
    7.4671  -31.6283  -12.7135 N   0  0  0  0  0  0  0  0  0  0  0  0
  1  3  1  1  0  0  0
  1  5  2  0  0  0  0
  1  9  1  0  0  0  0
  1 18  1  0  0  0  0
  2  4  1  6  0  0  0
  2  6  2  0  0  0  0
  2 10  1  0  0  0  0
  2 17  1  0  0  0  0
  7  9  1  0  0  0  0
  8 10  1  0  0  0  0
 11  7  1  1  0  0  0
 11 13  1  0  0  0  0
 11 15  1  0  0  0  0
 12  8  1  6  0  0  0
 12 14  1  0  0  0  0
 12 16  1  0  0  0  0
 13 21  1  0  0  0  0
 14 22  1  0  0  0  0
 15 17  1  6  0  0  0
 15 19  1  0  0  0  0
 16 18  1  1  0  0  0
 16 20  1  0  0  0  0
 19 21  1  0  0  0  0
 20 22  1  0  0  0  0
 21 32  1  1  0  0  0
 22 42  1  6  0  0  0
 23 24  2  0  0  0  0
 23 28  1  0  0  0  0
 24 25  1  0  0  0  0
 25 26  2  0  0  0  0
 26 27  1  0  0  0  0
 26 32  1  0  0  0  0
 27 28  2  0  0  0  0
 27 30  1  0  0  0  0
 28 29  1  0  0  0  0
 30 31  2  0  0  0  0
 31 32  1  0  0  0  0
 33 34  2  0  0  0  0
 33 38  1  0  0  0  0
 34 35  1  0  0  0  0
 35 36  2  0  0  0  0
 36 37  1  0  0  0  0
 36 42  1  0  0  0  0
 37 38  2  0  0  0  0
 37 40  1  0  0  0  0
 38 39  1  0  0  0  0
 40 41  2  0  0  0  0
 41 42  1  0  0  0  0
M  CHG  2   3  -1   4  -1
M  END
>  <CHROM.1>
70.59819147,84.86742478,5.06092582,-34.59508671,-15.61584335,3.13075667,-0.80503405
-0.66396922

>  <Name>
ligand

>  <RI>
0

>  <Rbt.Current_Directory>
/home/itssahil/PROJECTS/Mol_Feturizer/New_Systems/rnas/4QLN

>  <Rbt.Executable>
rbdock ($Id: //depot/dev/client3/rdock/2013.1/src/exe/rbdock.cxx#4 $)

>  <Rbt.Library>
libRbt.so (2013.1, Build901 2013/11/27)

>  <Rbt.Parameter_File>
/export/apps/rDock/src/rDock_2013.1_src/data/scripts/dock_solv.prm

>  <Rbt.Receptor>
prm/pocket_docking_5.prm

>  <SCORE>
-25.2044

>  <SCORE.INTER>
-26.0536

>  <SCORE.INTER.CONST>
1

>  <SCORE.INTER.POLAR>
0

>  <SCORE.INTER.ROT>
2

>  <SCORE.INTER.SOLV>
27.2128

>  <SCORE.INTER.VDW>
-31.3733

>  <SCORE.INTER.norm>
-0.620323

>  <SCORE.INTRA>
0.827817

>  <SCORE.INTRA.DIHEDRAL>
0.00101257

>  <SCORE.INTRA.DIHEDRAL.0>
2.39985

>  <SCORE.INTRA.POLAR>
0

>  <SCORE.INTRA.POLAR.0>
0

>  <SCORE.INTRA.REPUL>
0

>  <SCORE.INTRA.REPUL.0>
0

>  <SCORE.INTRA.SOLV>
0.878628

>  <SCORE.INTRA.SOLV.lig_0>
-110.958

>  <SCORE.INTRA.VDW>
0.387997

>  <SCORE.INTRA.VDW.0>
-2.34644

>  <SCORE.INTRA.norm>
0.0197099

>  <SCORE.RESTR>
0.0213013

>  <SCORE.RESTR.CAVITY>
0.0213013

>  <SCORE.RESTR.norm>
0.000507175

>  <SCORE.SYSTEM>
0

>  <SCORE.SYSTEM.CONST>
0

>  <SCORE.SYSTEM.DIHEDRAL>
0

>  <SCORE.SYSTEM.SOLV>
0

>  <SCORE.SYSTEM.norm>
0

>  <SCORE.heavy>
42

>  <SCORE.norm>
-0.600106

>  <RMSD>
2.084

$$$$
ligand
 OpenBabel11021811513D
libRbt.so/2013.1/901 2013/11/27
 42 48  0  0  0  0  0  0  0  0999 V2000
    3.4129  -35.8001  -12.9776 P   0  0  2  0  0  0  0  0  0  0  0  0
    7.4193  -35.9492  -16.0502 P   0  0  1  0  0  0  0  0  0  0  0  0
    2.8913  -37.0955  -12.4005 O   0  5  0  0  0  0  0  0  0  0  0  0
    6.9036  -34.5514  -16.2965 O   0  5  0  0  0  0  0  0  0  0  0  0
    2.5616  -34.5543  -12.9220 O   0  0  0  0  0  0  0  0  0  0  0  0
    8.7852  -36.3487  -16.5545 O   0  0  0  0  0  0  0  0  0  0  0  0
    3.0971  -36.9969  -15.3067 C   0  0  0  0  0  0  0  0  0  0  0  0
    8.0978  -35.4197  -13.5576 C   0  0  0  0  0  0  0  0  0  0  0  0
    3.8241  -36.0619  -14.5116 O   0  0  0  0  0  0  0  0  0  0  0  0
    7.3627  -36.2356  -14.4667 O   0  0  0  0  0  0  0  0  0  0  0  0
    4.0280  -37.6131  -16.3442 C   0  0  1  0  0  0  0  0  0  0  0  0
    7.1823  -34.9588  -12.4305 C   0  0  1  0  0  0  0  0  0  0  0  0
    3.2611  -38.1165  -17.4415 O   0  0  0  0  0  0  0  0  0  0  0  0
    7.7042  -33.7646  -11.8428 O   0  0  0  0  0  0  0  0  0  0  0  0
    5.0020  -36.5832  -16.8910 C   0  0  1  0  0  0  0  0  0  0  0  0
    5.7851  -34.6510  -12.9452 C   0  0  1  0  0  0  0  0  0  0  0  0
    6.3418  -36.9935  -16.6351 O   0  0  0  0  0  0  0  0  0  0  0  0
    4.8289  -35.4747  -12.2847 O   0  0  0  0  0  0  0  0  0  0  0  0
    4.7567  -36.5120  -18.3867 C   0  0  0  0  0  0  0  0  0  0  0  0
    5.5222  -33.1917  -12.6275 C   0  0  0  0  0  0  0  0  0  0  0  0
    3.6402  -37.5040  -18.6769 C   0  0  2  0  0  0  0  0  0  0  0  0
    6.7757  -32.6810  -11.9314 C   0  0  2  0  0  0  0  0  0  0  0  0
    0.3908  -33.3968  -18.2886 N   0  0  0  0  0  0  0  0  0  0  0  0
    1.4275  -33.7596  -17.5109 C   0  0  0  0  0  0  0  0  0  0  0  0
    2.1818  -34.8519  -17.7324 N   0  0  0  0  0  0  0  0  0  0  0  0
    1.9303  -35.6692  -18.7829 C   0  0  0  0  0  0  0  0  0  0  0  0
    0.8123  -35.3394  -19.6808 C   0  0  0  0  0  0  0  0  0  0  0  0
    0.0275  -34.1208  -19.3710 C   0  0  0  0  0  0  0  0  0  0  0  0
   -1.0177  -33.7447  -20.1467 N   0  0  0  0  0  0  0  0  0  0  0  0
    0.7828  -36.2982  -20.6253 N   0  0  0  0  0  0  0  0  0  0  0  0
    1.7919  -37.1659  -20.3571 C   0  0  0  0  0  0  0  0  0  0  0  0
    2.4762  -36.7910  -19.2591 N   0  0  0  0  0  0  0  0  0  0  0  0
    7.6054  -30.6832  -16.7160 N   0  0  0  0  0  0  0  0  0  0  0  0
    6.9670  -31.8083  -16.3444 C   0  0  0  0  0  0  0  0  0  0  0  0
    6.8286  -32.2015  -15.0653 N   0  0  0  0  0  0  0  0  0  0  0  0
    7.3409  -31.4616  -14.0524 C   0  0  0  0  0  0  0  0  0  0  0  0
    8.0534  -30.2165  -14.3782 C   0  0  0  0  0  0  0  0  0  0  0  0
    8.1636  -29.8514  -15.8103 C   0  0  0  0  0  0  0  0  0  0  0  0
    8.8034  -28.7205  -16.1973 N   0  0  0  0  0  0  0  0  0  0  0  0
    8.4529  -29.6852  -13.2074 N   0  0  0  0  0  0  0  0  0  0  0  0
    8.0337  -30.5170  -12.2192 C   0  0  0  0  0  0  0  0  0  0  0  0
    7.3716  -31.5750  -12.7224 N   0  0  0  0  0  0  0  0  0  0  0  0
  1  3  1  1  0  0  0
  1  5  2  0  0  0  0
  1  9  1  0  0  0  0
  1 18  1  0  0  0  0
  2  4  1  6  0  0  0
  2  6  2  0  0  0  0
  2 10  1  0  0  0  0
  2 17  1  0  0  0  0
  7  9  1  0  0  0  0
  8 10  1  0  0  0  0
 11  7  1  1  0  0  0
 11 13  1  0  0  0  0
 11 15  1  0  0  0  0
 12  8  1  6  0  0  0
 12 14  1  0  0  0  0
 12 16  1  0  0  0  0
 13 21  1  0  0  0  0
 14 22  1  0  0  0  0
 15 17  1  6  0  0  0
 15 19  1  0  0  0  0
 16 18  1  1  0  0  0
 16 20  1  0  0  0  0
 19 21  1  0  0  0  0
 20 22  1  0  0  0  0
 21 32  1  1  0  0  0
 22 42  1  6  0  0  0
 23 24  2  0  0  0  0
 23 28  1  0  0  0  0
 24 25  1  0  0  0  0
 25 26  2  0  0  0  0
 26 27  1  0  0  0  0
 26 32  1  0  0  0  0
 27 28  2  0  0  0  0
 27 30  1  0  0  0  0
 28 29  1  0  0  0  0
 30 31  2  0  0  0  0
 31 32  1  0  0  0  0
 33 34  2  0  0  0  0
 33 38  1  0  0  0  0
 34 35  1  0  0  0  0
 35 36  2  0  0  0  0
 36 37  1  0  0  0  0
 36 42  1  0  0  0  0
 37 38  2  0  0  0  0
 37 40  1  0  0  0  0
 38 39  1  0  0  0  0
 40 41  2  0  0  0  0
 41 42  1  0  0  0  0
M  CHG  2   3  -1   4  -1
M  END
>  <CHROM.1>
70.62921019,85.79068882,4.99681131,-34.56655278,-15.62559712,-3.13889755
-0.81384655,-0.65203911

>  <Name>
ligand

>  <RI>
0

>  <Rbt.Current_Directory>
/home/itssahil/PROJECTS/Mol_Feturizer/New_Systems/rnas/4QLN

>  <Rbt.Executable>
rbdock ($Id: //depot/dev/client3/rdock/2013.1/src/exe/rbdock.cxx#4 $)

>  <Rbt.Library>
libRbt.so (2013.1, Build901 2013/11/27)

>  <Rbt.Parameter_File>
/export/apps/rDock/src/rDock_2013.1_src/data/scripts/dock_solv.prm

>  <Rbt.Receptor>
prm/pocket_docking_5.prm

>  <SCORE>
-25.1265

>  <SCORE.INTER>
-25.91

>  <SCORE.INTER.CONST>
1

>  <SCORE.INTER.POLAR>
0

>  <SCORE.INTER.ROT>
2

>  <SCORE.INTER.SOLV>
27.7497

>  <SCORE.INTER.VDW>
-31.4566

>  <SCORE.INTER.norm>
-0.616906

>  <SCORE.INTRA>
0.780324

>  <SCORE.INTRA.DIHEDRAL>
0.00102176

>  <SCORE.INTRA.DIHEDRAL.0>
2.39985

>  <SCORE.INTRA.POLAR>
0

>  <SCORE.INTRA.POLAR.0>
0

>  <SCORE.INTRA.REPUL>
0

>  <SCORE.INTRA.REPUL.0>
0

>  <SCORE.INTRA.SOLV>
0.845306

>  <SCORE.INTRA.SOLV.lig_0>
-110.958

>  <SCORE.INTRA.VDW>
0.35716

>  <SCORE.INTRA.VDW.0>
-2.34644

>  <SCORE.INTRA.norm>
0.0185791

>  <SCORE.RESTR>
0.00316971

>  <SCORE.RESTR.CAVITY>
0.00316971

>  <SCORE.RESTR.norm>
7.54693e-05

>  <SCORE.SYSTEM>
0

>  <SCORE.SYSTEM.CONST>
0

>  <SCORE.SYSTEM.DIHEDRAL>
0

>  <SCORE.SYSTEM.SOLV>
0

>  <SCORE.SYSTEM.norm>
0

>  <SCORE.heavy>
42

>  <SCORE.norm>
-0.598251

>  <RMSD>
2.097

$$$$
ligand
 OpenBabel11021811513D
libRbt.so/2013.1/901 2013/11/27
 42 48  0  0  0  0  0  0  0  0999 V2000
    3.4401  -35.8501  -12.9666 P   0  0  2  0  0  0  0  0  0  0  0  0
    7.4390  -35.9799  -16.0498 P   0  0  1  0  0  0  0  0  0  0  0  0
    2.9188  -37.1491  -12.3977 O   0  5  0  0  0  0  0  0  0  0  0  0
    6.9237  -34.5800  -16.2849 O   0  5  0  0  0  0  0  0  0  0  0  0
    2.5898  -34.6040  -12.9001 O   0  0  0  0  0  0  0  0  0  0  0  0
    8.8033  -36.3767  -16.5602 O   0  0  0  0  0  0  0  0  0  0  0  0
    3.1177  -37.0299  -15.3035 C   0  0  0  0  0  0  0  0  0  0  0  0
    8.1238  -35.4688  -13.5552 C   0  0  0  0  0  0  0  0  0  0  0  0
    3.8473  -36.1010  -14.5035 O   0  0  0  0  0  0  0  0  0  0  0  0
    7.3859  -36.2777  -14.4683 O   0  0  0  0  0  0  0  0  0  0  0  0
    4.0457  -37.6392  -16.3476 C   0  0  1  0  0  0  0  0  0  0  0  0
    7.2113  -35.0154  -12.4226 C   0  0  1  0  0  0  0  0  0  0  0  0
    3.2758  -38.1341  -17.4467 O   0  0  0  0  0  0  0  0  0  0  0  0
    7.7355  -33.8258  -11.8276 O   0  0  0  0  0  0  0  0  0  0  0  0
    5.0192  -36.6061  -16.8894 C   0  0  1  0  0  0  0  0  0  0  0  0
    5.8132  -34.7029  -12.9317 C   0  0  1  0  0  0  0  0  0  0  0  0
    6.3593  -37.0192  -16.6397 O   0  0  0  0  0  0  0  0  0  0  0  0
    4.8579  -35.5307  -12.2748 O   0  0  0  0  0  0  0  0  0  0  0  0
    4.7704  -36.5240  -18.3840 C   0  0  0  0  0  0  0  0  0  0  0  0
    5.5520  -33.2458  -12.6029 C   0  0  0  0  0  0  0  0  0  0  0  0
    3.6524  -37.5130  -18.6786 C   0  0  2  0  0  0  0  0  0  0  0  0
    6.8076  -32.7410  -11.9061 C   0  0  2  0  0  0  0  0  0  0  0  0
    0.4338  -33.3829  -18.2780 N   0  0  0  0  0  0  0  0  0  0  0  0
    1.4755  -33.7490  -17.5086 C   0  0  0  0  0  0  0  0  0  0  0  0
    2.2205  -34.8472  -17.7323 N   0  0  0  0  0  0  0  0  0  0  0  0
    1.9536  -35.6676  -18.7766 C   0  0  0  0  0  0  0  0  0  0  0  0
    0.8292  -35.3345  -19.6652 C   0  0  0  0  0  0  0  0  0  0  0  0
    0.0554  -34.1093  -19.3535 C   0  0  0  0  0  0  0  0  0  0  0  0
   -0.9948  -33.7299  -20.1209 N   0  0  0  0  0  0  0  0  0  0  0  0
    0.7843  -36.2973  -20.6050 N   0  0  0  0  0  0  0  0  0  0  0  0
    1.7903  -37.1704  -20.3425 C   0  0  0  0  0  0  0  0  0  0  0  0
    2.4875  -36.7950  -19.2529 N   0  0  0  0  0  0  0  0  0  0  0  0
    7.7011  -30.7524  -16.6830 N   0  0  0  0  0  0  0  0  0  0  0  0
    7.0723  -31.8852  -16.3186 C   0  0  0  0  0  0  0  0  0  0  0  0
    6.9148  -32.2746  -15.0407 N   0  0  0  0  0  0  0  0  0  0  0  0
    7.3961  -31.5227  -14.0214 C   0  0  0  0  0  0  0  0  0  0  0  0
    8.0963  -30.2686  -14.3392 C   0  0  0  0  0  0  0  0  0  0  0  0
    8.2291  -29.9083  -15.7706 C   0  0  0  0  0  0  0  0  0  0  0  0
    8.8595  -28.7697  -16.1503 N   0  0  0  0  0  0  0  0  0  0  0  0
    8.4649  -29.7262  -13.1633 N   0  0  0  0  0  0  0  0  0  0  0  0
    8.0388  -30.5597  -12.1796 C   0  0  0  0  0  0  0  0  0  0  0  0
    7.4024  -31.6297  -12.6905 N   0  0  0  0  0  0  0  0  0  0  0  0
  1  3  1  1  0  0  0
  1  5  2  0  0  0  0
  1  9  1  0  0  0  0
  1 18  1  0  0  0  0
  2  4  1  6  0  0  0
  2  6  2  0  0  0  0
  2 10  1  0  0  0  0
  2 17  1  0  0  0  0
  7  9  1  0  0  0  0
  8 10  1  0  0  0  0
 11  7  1  1  0  0  0
 11 13  1  0  0  0  0
 11 15  1  0  0  0  0
 12  8  1  6  0  0  0
 12 14  1  0  0  0  0
 12 16  1  0  0  0  0
 13 21  1  0  0  0  0
 14 22  1  0  0  0  0
 15 17  1  6  0  0  0
 15 19  1  0  0  0  0
 16 18  1  1  0  0  0
 16 20  1  0  0  0  0
 19 21  1  0  0  0  0
 20 22  1  0  0  0  0
 21 32  1  1  0  0  0
 22 42  1  6  0  0  0
 23 24  2  0  0  0  0
 23 28  1  0  0  0  0
 24 25  1  0  0  0  0
 25 26  2  0  0  0  0
 26 27  1  0  0  0  0
 26 32  1  0  0  0  0
 27 28  2  0  0  0  0
 27 30  1  0  0  0  0
 28 29  1  0  0  0  0
 30 31  2  0  0  0  0
 31 32  1  0  0  0  0
 33 34  2  0  0  0  0
 33 38  1  0  0  0  0
 34 35  1  0  0  0  0
 35 36  2  0  0  0  0
 36 37  1  0  0  0  0
 36 42  1  0  0  0  0
 37 38  2  0  0  0  0
 37 40  1  0  0  0  0
 38 39  1  0  0  0  0
 40 41  2  0  0  0  0
 41 42  1  0  0  0  0
M  CHG  2   3  -1   4  -1
M  END
>  <CHROM.1>
71.48571144,84.10679798,5.02676288,-34.60020802,-15.61196447,3.13411079,-0.81058551
-0.65839545

>  <Name>
ligand

>  <RI>
0

>  <Rbt.Current_Directory>
/home/itssahil/PROJECTS/Mol_Feturizer/New_Systems/rnas/4QLN

>  <Rbt.Executable>
rbdock ($Id: //depot/dev/client3/rdock/2013.1/src/exe/rbdock.cxx#4 $)

>  <Rbt.Library>
libRbt.so (2013.1, Build901 2013/11/27)

>  <Rbt.Parameter_File>
/export/apps/rDock/src/rDock_2013.1_src/data/scripts/dock_solv.prm

>  <Rbt.Receptor>
prm/pocket_docking_5.prm

>  <SCORE>
-25.2006

>  <SCORE.INTER>
-26.1015

>  <SCORE.INTER.CONST>
1

>  <SCORE.INTER.POLAR>
0

>  <SCORE.INTER.ROT>
2

>  <SCORE.INTER.SOLV>
27.3476

>  <SCORE.INTER.VDW>
-31.4502

>  <SCORE.INTER.norm>
-0.621464

>  <SCORE.INTRA>
0.883838

>  <SCORE.INTRA.DIHEDRAL>
0.0010142

>  <SCORE.INTRA.DIHEDRAL.0>
2.39985

>  <SCORE.INTRA.POLAR>
0

>  <SCORE.INTRA.POLAR.0>
0

>  <SCORE.INTRA.REPUL>
0

>  <SCORE.INTRA.REPUL.0>
0

>  <SCORE.INTRA.SOLV>
0.904252

>  <SCORE.INTRA.SOLV.lig_0>
-110.958

>  <SCORE.INTRA.VDW>
0.431204

>  <SCORE.INTRA.VDW.0>
-2.34644

>  <SCORE.INTRA.norm>
0.0210438

>  <SCORE.RESTR>
0.0170855

>  <SCORE.RESTR.CAVITY>
0.0170855

>  <SCORE.RESTR.norm>
0.000406798

>  <SCORE.SYSTEM>
0

>  <SCORE.SYSTEM.CONST>
0

>  <SCORE.SYSTEM.DIHEDRAL>
0

>  <SCORE.SYSTEM.SOLV>
0

>  <SCORE.SYSTEM.norm>
0

>  <SCORE.heavy>
42

>  <SCORE.norm>
-0.600014

>  <RMSD>
2.105

$$$$
ligand
 OpenBabel11021811513D
libRbt.so/2013.1/901 2013/11/27
 42 48  0  0  0  0  0  0  0  0999 V2000
    3.3654  -35.8753  -13.0174 P   0  0  2  0  0  0  0  0  0  0  0  0
    7.3360  -36.0809  -16.1329 P   0  0  1  0  0  0  0  0  0  0  0  0
    2.8288  -37.1636  -12.4384 O   0  5  0  0  0  0  0  0  0  0  0  0
    6.8407  -34.6742  -16.3699 O   0  5  0  0  0  0  0  0  0  0  0  0
    2.5352  -34.6159  -12.9494 O   0  0  0  0  0  0  0  0  0  0  0  0
    8.6897  -36.5012  -16.6528 O   0  0  0  0  0  0  0  0  0  0  0  0
    3.0053  -37.0600  -15.3463 C   0  0  0  0  0  0  0  0  0  0  0  0
    8.0495  -35.5699  -13.6463 C   0  0  0  0  0  0  0  0  0  0  0  0
    3.7559  -36.1393  -14.5565 O   0  0  0  0  0  0  0  0  0  0  0  0
    7.2915  -36.3710  -14.5497 O   0  0  0  0  0  0  0  0  0  0  0  0
    3.9149  -37.6883  -16.3953 C   0  0  1  0  0  0  0  0  0  0  0  0
    7.1537  -35.0973  -12.5082 C   0  0  1  0  0  0  0  0  0  0  0  0
    3.1283  -38.1759  -17.4857 O   0  0  0  0  0  0  0  0  0  0  0  0
    7.7012  -33.9136  -11.9229 O   0  0  0  0  0  0  0  0  0  0  0  0
    4.8998  -36.6729  -16.9497 C   0  0  1  0  0  0  0  0  0  0  0  0
    5.7564  -34.7653  -13.0072 C   0  0  1  0  0  0  0  0  0  0  0  0
    6.2353  -37.1058  -16.7092 O   0  0  0  0  0  0  0  0  0  0  0  0
    4.7938  -35.5751  -12.3388 O   0  0  0  0  0  0  0  0  0  0  0  0
    4.6399  -36.5933  -18.4425 C   0  0  0  0  0  0  0  0  0  0  0  0
    5.5207  -33.3028  -12.6827 C   0  0  0  0  0  0  0  0  0  0  0  0
    3.5043  -37.5661  -18.7235 C   0  0  2  0  0  0  0  0  0  0  0  0
    6.7897  -32.8147  -11.9985 C   0  0  2  0  0  0  0  0  0  0  0  0
    0.3418  -33.3946  -18.3033 N   0  0  0  0  0  0  0  0  0  0  0  0
    1.3826  -33.7749  -17.5395 C   0  0  0  0  0  0  0  0  0  0  0  0
    2.1120  -34.8826  -17.7678 N   0  0  0  0  0  0  0  0  0  0  0  0
    1.8292  -35.6985  -18.8114 C   0  0  0  0  0  0  0  0  0  0  0  0
    0.7047  -35.3500  -19.6941 C   0  0  0  0  0  0  0  0  0  0  0  0
   -0.0514  -34.1151  -19.3774 C   0  0  0  0  0  0  0  0  0  0  0  0
   -1.1004  -33.7214  -20.1392 N   0  0  0  0  0  0  0  0  0  0  0  0
    0.6426  -36.3114  -20.6344 N   0  0  0  0  0  0  0  0  0  0  0  0
    1.6384  -37.1977  -20.3777 C   0  0  0  0  0  0  0  0  0  0  0  0
    2.3459  -36.8324  -19.2913 N   0  0  0  0  0  0  0  0  0  0  0  0
    9.9309  -31.5384  -16.0081 N   0  0  0  0  0  0  0  0  0  0  0  0
    9.5788  -32.7472  -15.5326 C   0  0  0  0  0  0  0  0  0  0  0  0
    8.7549  -32.9272  -14.4846 N   0  0  0  0  0  0  0  0  0  0  0  0
    8.2193  -31.8670  -13.8325 C   0  0  0  0  0  0  0  0  0  0  0  0
    8.5566  -30.5114  -14.2934 C   0  0  0  0  0  0  0  0  0  0  0  0
    9.4706  -30.3960  -15.4543 C   0  0  0  0  0  0  0  0  0  0  0  0
    9.8320  -29.1841  -15.9430 N   0  0  0  0  0  0  0  0  0  0  0  0
    7.9008  -29.6570  -13.4854 N   0  0  0  0  0  0  0  0  0  0  0  0
    7.2055  -30.4001  -12.5863 C   0  0  0  0  0  0  0  0  0  0  0  0
    7.3953  -31.7163  -12.7928 N   0  0  0  0  0  0  0  0  0  0  0  0
  1  3  1  1  0  0  0
  1  5  2  0  0  0  0
  1  9  1  0  0  0  0
  1 18  1  0  0  0  0
  2  4  1  6  0  0  0
  2  6  2  0  0  0  0
  2 10  1  0  0  0  0
  2 17  1  0  0  0  0
  7  9  1  0  0  0  0
  8 10  1  0  0  0  0
 11  7  1  1  0  0  0
 11 13  1  0  0  0  0
 11 15  1  0  0  0  0
 12  8  1  6  0  0  0
 12 14  1  0  0  0  0
 12 16  1  0  0  0  0
 13 21  1  0  0  0  0
 14 22  1  0  0  0  0
 15 17  1  6  0  0  0
 15 19  1  0  0  0  0
 16 18  1  1  0  0  0
 16 20  1  0  0  0  0
 19 21  1  0  0  0  0
 20 22  1  0  0  0  0
 21 32  1  1  0  0  0
 22 42  1  6  0  0  0
 23 24  2  0  0  0  0
 23 28  1  0  0  0  0
 24 25  1  0  0  0  0
 25 26  2  0  0  0  0
 26 27  1  0  0  0  0
 26 32  1  0  0  0  0
 27 28  2  0  0  0  0
 27 30  1  0  0  0  0
 28 29  1  0  0  0  0
 30 31  2  0  0  0  0
 31 32  1  0  0  0  0
 33 34  2  0  0  0  0
 33 38  1  0  0  0  0
 34 35  1  0  0  0  0
 35 36  2  0  0  0  0
 36 37  1  0  0  0  0
 36 42  1  0  0  0  0
 37 38  2  0  0  0  0
 37 40  1  0  0  0  0
 38 39  1  0  0  0  0
 40 41  2  0  0  0  0
 41 42  1  0  0  0  0
M  CHG  2   3  -1   4  -1
M  END
>  <CHROM.1>
71.10464911,33.60837817,5.13373691,-34.71837138,-15.61601446,2.93679190,-0.70909793
-0.97058170

>  <Name>
ligand

>  <RI>
0

>  <Rbt.Current_Directory>
/home/itssahil/PROJECTS/Mol_Feturizer/New_Systems/rnas/4QLN

>  <Rbt.Executable>
rbdock ($Id: //depot/dev/client3/rdock/2013.1/src/exe/rbdock.cxx#4 $)

>  <Rbt.Library>
libRbt.so (2013.1, Build901 2013/11/27)

>  <Rbt.Parameter_File>
/export/apps/rDock/src/rDock_2013.1_src/data/scripts/dock_solv.prm

>  <Rbt.Receptor>
prm/pocket_docking_5.prm

>  <SCORE>
-23.5248

>  <SCORE.INTER>
-23.1184

>  <SCORE.INTER.CONST>
1

>  <SCORE.INTER.POLAR>
0

>  <SCORE.INTER.ROT>
2

>  <SCORE.INTER.SOLV>
25.5928

>  <SCORE.INTER.VDW>
-28.8765

>  <SCORE.INTER.norm>
-0.550437

>  <SCORE.INTRA>
-0.411825

>  <SCORE.INTRA.DIHEDRAL>
-0.000446128

>  <SCORE.INTRA.DIHEDRAL.0>
2.39985

>  <SCORE.INTRA.POLAR>
0

>  <SCORE.INTRA.POLAR.0>
0

>  <SCORE.INTRA.REPUL>
0

>  <SCORE.INTRA.REPUL.0>
0

>  <SCORE.INTRA.SOLV>
0.595354

>  <SCORE.INTRA.SOLV.lig_0>
-110.958

>  <SCORE.INTRA.VDW>
-0.709279

>  <SCORE.INTRA.VDW.0>
-2.34644

>  <SCORE.INTRA.norm>
-0.00980535

>  <SCORE.RESTR>
0.00535513

>  <SCORE.RESTR.CAVITY>
0.00535513

>  <SCORE.RESTR.norm>
0.000127503

>  <SCORE.SYSTEM>
0

>  <SCORE.SYSTEM.CONST>
0

>  <SCORE.SYSTEM.DIHEDRAL>
0

>  <SCORE.SYSTEM.SOLV>
0

>  <SCORE.SYSTEM.norm>
0

>  <SCORE.heavy>
42

>  <SCORE.norm>
-0.560115

>  <RMSD>
2.124

$$$$
ligand
 OpenBabel11021811513D
libRbt.so/2013.1/901 2013/11/27
 42 48  0  0  0  0  0  0  0  0999 V2000
    3.3478  -35.8705  -13.0452 P   0  0  2  0  0  0  0  0  0  0  0  0
    7.3263  -36.0677  -16.1512 P   0  0  1  0  0  0  0  0  0  0  0  0
    2.8069  -37.1608  -12.4747 O   0  5  0  0  0  0  0  0  0  0  0  0
    6.8346  -34.6587  -16.3819 O   0  5  0  0  0  0  0  0  0  0  0  0
    2.5201  -34.6097  -12.9726 O   0  0  0  0  0  0  0  0  0  0  0  0
    8.6805  -36.4881  -16.6698 O   0  0  0  0  0  0  0  0  0  0  0  0
    2.9914  -37.0418  -15.3815 C   0  0  0  0  0  0  0  0  0  0  0  0
    8.0342  -35.5717  -13.6600 C   0  0  0  0  0  0  0  0  0  0  0  0
    3.7418  -36.1270  -14.5847 O   0  0  0  0  0  0  0  0  0  0  0  0
    7.2769  -36.3663  -14.5698 O   0  0  0  0  0  0  0  0  0  0  0  0
    3.9025  -37.6663  -16.4315 C   0  0  1  0  0  0  0  0  0  0  0  0
    7.1363  -35.1035  -12.5218 C   0  0  1  0  0  0  0  0  0  0  0  0
    3.1178  -38.1462  -17.5266 O   0  0  0  0  0  0  0  0  0  0  0  0
    7.6848  -33.9241  -11.9285 O   0  0  0  0  0  0  0  0  0  0  0  0
    4.8910  -36.6500  -16.9777 C   0  0  1  0  0  0  0  0  0  0  0  0
    5.7410  -34.7657  -13.0226 C   0  0  1  0  0  0  0  0  0  0  0  0
    6.2250  -37.0871  -16.7360 O   0  0  0  0  0  0  0  0  0  0  0  0
    4.7750  -35.5771  -12.3612 O   0  0  0  0  0  0  0  0  0  0  0  0
    4.6353  -36.5618  -18.4708 C   0  0  0  0  0  0  0  0  0  0  0  0
    5.5076  -33.3045  -12.6908 C   0  0  0  0  0  0  0  0  0  0  0  0
    3.4983  -37.5305  -18.7601 C   0  0  2  0  0  0  0  0  0  0  0  0
    6.7759  -32.8228  -12.0006 C   0  0  2  0  0  0  0  0  0  0  0  0
    0.2921  -33.3993  -18.2788 N   0  0  0  0  0  0  0  0  0  0  0  0
    1.3234  -33.7918  -17.5082 C   0  0  0  0  0  0  0  0  0  0  0  0
    2.0664  -34.8865  -17.7546 N   0  0  0  0  0  0  0  0  0  0  0  0
    1.8083  -35.6755  -18.8249 C   0  0  0  0  0  0  0  0  0  0  0  0
    0.6956  -35.3124  -19.7165 C   0  0  0  0  0  0  0  0  0  0  0  0
   -0.0767  -34.0932  -19.3788 C   0  0  0  0  0  0  0  0  0  0  0  0
   -1.1164  -33.6874  -20.1471 N   0  0  0  0  0  0  0  0  0  0  0  0
    0.6578  -36.2478  -20.6838 N   0  0  0  0  0  0  0  0  0  0  0  0
    1.6571  -37.1324  -20.4348 C   0  0  0  0  0  0  0  0  0  0  0  0
    2.3431  -36.7913  -19.3269 N   0  0  0  0  0  0  0  0  0  0  0  0
    9.9870  -31.5301  -15.9490 N   0  0  0  0  0  0  0  0  0  0  0  0
    9.6384  -32.7406  -15.4751 C   0  0  0  0  0  0  0  0  0  0  0  0
    8.7945  -32.9249  -14.4439 N   0  0  0  0  0  0  0  0  0  0  0  0
    8.2334  -31.8678  -13.8085 C   0  0  0  0  0  0  0  0  0  0  0  0
    8.5653  -30.5106  -14.2689 C   0  0  0  0  0  0  0  0  0  0  0  0
    9.5024  -30.3904  -15.4107 C   0  0  0  0  0  0  0  0  0  0  0  0
    9.8606  -29.1768  -15.8976 N   0  0  0  0  0  0  0  0  0  0  0  0
    7.8831  -29.6599  -13.4791 N   0  0  0  0  0  0  0  0  0  0  0  0
    7.1772  -30.4065  -12.5913 C   0  0  0  0  0  0  0  0  0  0  0  0
    7.3859  -31.7214  -12.7873 N   0  0  0  0  0  0  0  0  0  0  0  0
  1  3  1  1  0  0  0
  1  5  2  0  0  0  0
  1  9  1  0  0  0  0
  1 18  1  0  0  0  0
  2  4  1  6  0  0  0
  2  6  2  0  0  0  0
  2 10  1  0  0  0  0
  2 17  1  0  0  0  0
  7  9  1  0  0  0  0
  8 10  1  0  0  0  0
 11  7  1  1  0  0  0
 11 13  1  0  0  0  0
 11 15  1  0  0  0  0
 12  8  1  6  0  0  0
 12 14  1  0  0  0  0
 12 16  1  0  0  0  0
 13 21  1  0  0  0  0
 14 22  1  0  0  0  0
 15 17  1  6  0  0  0
 15 19  1  0  0  0  0
 16 18  1  1  0  0  0
 16 20  1  0  0  0  0
 19 21  1  0  0  0  0
 20 22  1  0  0  0  0
 21 32  1  1  0  0  0
 22 42  1  6  0  0  0
 23 24  2  0  0  0  0
 23 28  1  0  0  0  0
 24 25  1  0  0  0  0
 25 26  2  0  0  0  0
 26 27  1  0  0  0  0
 26 32  1  0  0  0  0
 27 28  2  0  0  0  0
 27 30  1  0  0  0  0
 28 29  1  0  0  0  0
 30 31  2  0  0  0  0
 31 32  1  0  0  0  0
 33 34  2  0  0  0  0
 33 38  1  0  0  0  0
 34 35  1  0  0  0  0
 35 36  2  0  0  0  0
 36 37  1  0  0  0  0
 36 42  1  0  0  0  0
 37 38  2  0  0  0  0
 37 40  1  0  0  0  0
 38 39  1  0  0  0  0
 40 41  2  0  0  0  0
 41 42  1  0  0  0  0
M  CHG  2   3  -1   4  -1
M  END
>  <CHROM.1>
69.47635409,32.17498435,5.12594159,-34.70682926,-15.62519643,2.92507541,-0.70364811
-0.98325904

>  <Name>
ligand

>  <RI>
0

>  <Rbt.Current_Directory>
/home/itssahil/PROJECTS/Mol_Feturizer/New_Systems/rnas/4QLN

>  <Rbt.Executable>
rbdock ($Id: //depot/dev/client3/rdock/2013.1/src/exe/rbdock.cxx#4 $)

>  <Rbt.Library>
libRbt.so (2013.1, Build901 2013/11/27)

>  <Rbt.Parameter_File>
/export/apps/rDock/src/rDock_2013.1_src/data/scripts/dock_solv.prm

>  <Rbt.Receptor>
prm/pocket_docking_5.prm

>  <SCORE>
-23.5899

>  <SCORE.INTER>
-23.1297

>  <SCORE.INTER.CONST>
1

>  <SCORE.INTER.POLAR>
0

>  <SCORE.INTER.ROT>
2

>  <SCORE.INTER.SOLV>
25.6016

>  <SCORE.INTER.VDW>
-28.887

>  <SCORE.INTER.norm>
-0.550707

>  <SCORE.INTRA>
-0.460894

>  <SCORE.INTRA.DIHEDRAL>
-0.000473751

>  <SCORE.INTRA.DIHEDRAL.0>
2.39985

>  <SCORE.INTRA.POLAR>
0

>  <SCORE.INTRA.POLAR.0>
0

>  <SCORE.INTRA.REPUL>
0

>  <SCORE.INTRA.REPUL.0>
0

>  <SCORE.INTRA.SOLV>
0.528564

>  <SCORE.INTRA.SOLV.lig_0>
-110.958

>  <SCORE.INTRA.VDW>
-0.724939

>  <SCORE.INTRA.VDW.0>
-2.34644

>  <SCORE.INTRA.norm>
-0.0109737

>  <SCORE.RESTR>
0.000656113

>  <SCORE.RESTR.CAVITY>
0.000656113

>  <SCORE.RESTR.norm>
1.56217e-05

>  <SCORE.SYSTEM>
0

>  <SCORE.SYSTEM.CONST>
0

>  <SCORE.SYSTEM.DIHEDRAL>
0

>  <SCORE.SYSTEM.SOLV>
0

>  <SCORE.SYSTEM.norm>
0

>  <SCORE.heavy>
42

>  <SCORE.norm>
-0.561665

>  <RMSD>
2.128

$$$$
ligand
 OpenBabel11021811513D
libRbt.so/2013.1/901 2013/11/27
 42 48  0  0  0  0  0  0  0  0999 V2000
    3.3314  -35.8575  -13.0541 P   0  0  2  0  0  0  0  0  0  0  0  0
    7.2909  -36.0610  -16.1838 P   0  0  1  0  0  0  0  0  0  0  0  0
    2.7879  -37.1475  -12.4852 O   0  5  0  0  0  0  0  0  0  0  0  0
    6.8043  -34.6489  -16.4064 O   0  5  0  0  0  0  0  0  0  0  0  0
    2.5098  -34.5933  -12.9720 O   0  0  0  0  0  0  0  0  0  0  0  0
    8.6402  -36.4855  -16.7117 O   0  0  0  0  0  0  0  0  0  0  0  0
    2.9562  -37.0184  -15.3926 C   0  0  0  0  0  0  0  0  0  0  0  0
    8.0154  -35.5776  -13.6948 C   0  0  0  0  0  0  0  0  0  0  0  0
    3.7154  -36.1100  -14.5968 O   0  0  0  0  0  0  0  0  0  0  0  0
    7.2493  -36.3653  -14.6032 O   0  0  0  0  0  0  0  0  0  0  0  0
    3.8584  -37.6431  -16.4502 C   0  0  1  0  0  0  0  0  0  0  0  0
    7.1263  -35.1095  -12.5497 C   0  0  1  0  0  0  0  0  0  0  0  0
    3.0652  -38.1154  -17.5426 O   0  0  0  0  0  0  0  0  0  0  0  0
    7.6835  -33.9348  -11.9553 O   0  0  0  0  0  0  0  0  0  0  0  0
    4.8483  -36.6292  -16.9983 C   0  0  1  0  0  0  0  0  0  0  0  0
    5.7297  -34.7636  -13.0412 C   0  0  1  0  0  0  0  0  0  0  0  0
    6.1817  -37.0732  -16.7660 O   0  0  0  0  0  0  0  0  0  0  0  0
    4.7638  -35.5731  -12.3772 O   0  0  0  0  0  0  0  0  0  0  0  0
    4.5844  -36.5342  -18.4895 C   0  0  0  0  0  0  0  0  0  0  0  0
    5.5048  -33.3026  -12.7026 C   0  0  0  0  0  0  0  0  0  0  0  0
    3.4414  -37.4967  -18.7759 C   0  0  2  0  0  0  0  0  0  0  0  0
    6.7792  -32.8293  -12.0180 C   0  0  2  0  0  0  0  0  0  0  0  0
    0.3719  -33.2553  -18.3683 N   0  0  0  0  0  0  0  0  0  0  0  0
    1.4206  -33.6426  -17.6191 C   0  0  0  0  0  0  0  0  0  0  0  0
    2.1230  -34.7688  -17.8417 N   0  0  0  0  0  0  0  0  0  0  0  0
    1.8023  -35.5976  -18.8641 C   0  0  0  0  0  0  0  0  0  0  0  0
    0.6668  -35.2425  -19.7298 C   0  0  0  0  0  0  0  0  0  0  0  0
   -0.0579  -33.9870  -19.4206 C   0  0  0  0  0  0  0  0  0  0  0  0
   -1.1145  -33.5860  -20.1679 N   0  0  0  0  0  0  0  0  0  0  0  0
    0.5660  -36.2193  -20.6506 N   0  0  0  0  0  0  0  0  0  0  0  0
    1.5491  -37.1208  -20.3980 C   0  0  0  0  0  0  0  0  0  0  0  0
    2.2863  -36.7502  -19.3333 N   0  0  0  0  0  0  0  0  0  0  0  0
   10.0032  -31.5352  -15.9555 N   0  0  0  0  0  0  0  0  0  0  0  0
    9.6557  -32.7458  -15.4809 C   0  0  0  0  0  0  0  0  0  0  0  0
    8.8080  -32.9304  -14.4528 N   0  0  0  0  0  0  0  0  0  0  0  0
    8.2417  -31.8736  -13.8216 C   0  0  0  0  0  0  0  0  0  0  0  0
    8.5720  -30.5164  -14.2829 C   0  0  0  0  0  0  0  0  0  0  0  0
    9.5135  -30.3958  -15.4211 C   0  0  0  0  0  0  0  0  0  0  0  0
    9.8706  -29.1822  -15.9086 N   0  0  0  0  0  0  0  0  0  0  0  0
    7.8844  -29.6661  -13.4974 N   0  0  0  0  0  0  0  0  0  0  0  0
    7.1768  -30.4129  -12.6112 C   0  0  0  0  0  0  0  0  0  0  0  0
    7.3896  -31.7277  -12.8041 N   0  0  0  0  0  0  0  0  0  0  0  0
  1  3  1  1  0  0  0
  1  5  2  0  0  0  0
  1  9  1  0  0  0  0
  1 18  1  0  0  0  0
  2  4  1  6  0  0  0
  2  6  2  0  0  0  0
  2 10  1  0  0  0  0
  2 17  1  0  0  0  0
  7  9  1  0  0  0  0
  8 10  1  0  0  0  0
 11  7  1  1  0  0  0
 11 13  1  0  0  0  0
 11 15  1  0  0  0  0
 12  8  1  6  0  0  0
 12 14  1  0  0  0  0
 12 16  1  0  0  0  0
 13 21  1  0  0  0  0
 14 22  1  0  0  0  0
 15 17  1  6  0  0  0
 15 19  1  0  0  0  0
 16 18  1  1  0  0  0
 16 20  1  0  0  0  0
 19 21  1  0  0  0  0
 20 22  1  0  0  0  0
 21 32  1  1  0  0  0
 22 42  1  6  0  0  0
 23 24  2  0  0  0  0
 23 28  1  0  0  0  0
 24 25  1  0  0  0  0
 25 26  2  0  0  0  0
 26 27  1  0  0  0  0
 26 32  1  0  0  0  0
 27 28  2  0  0  0  0
 27 30  1  0  0  0  0
 28 29  1  0  0  0  0
 30 31  2  0  0  0  0
 31 32  1  0  0  0  0
 33 34  2  0  0  0  0
 33 38  1  0  0  0  0
 34 35  1  0  0  0  0
 35 36  2  0  0  0  0
 36 37  1  0  0  0  0
 36 42  1  0  0  0  0
 37 38  2  0  0  0  0
 37 40  1  0  0  0  0
 38 39  1  0  0  0  0
 40 41  2  0  0  0  0
 41 42  1  0  0  0  0
M  CHG  2   3  -1   4  -1
M  END
>  <CHROM.1>
73.12643695,31.41380966,5.11176728,-34.68408547,-15.64678558,2.94265578,-0.70400929
-0.94817234

>  <Name>
ligand

>  <RI>
0

>  <Rbt.Current_Directory>
/home/itssahil/PROJECTS/Mol_Feturizer/New_Systems/rnas/4QLN

>  <Rbt.Executable>
rbdock ($Id: //depot/dev/client3/rdock/2013.1/src/exe/rbdock.cxx#4 $)

>  <Rbt.Library>
libRbt.so (2013.1, Build901 2013/11/27)

>  <Rbt.Parameter_File>
/export/apps/rDock/src/rDock_2013.1_src/data/scripts/dock_solv.prm

>  <Rbt.Receptor>
prm/pocket_docking_4.prm

>  <SCORE>
-24.0233

>  <SCORE.INTER>
-23.7268

>  <SCORE.INTER.CONST>
1

>  <SCORE.INTER.POLAR>
0

>  <SCORE.INTER.ROT>
2

>  <SCORE.INTER.SOLV>
25.9102

>  <SCORE.INTER.VDW>
-29.388

>  <SCORE.INTER.norm>
-0.564925

>  <SCORE.INTRA>
-0.296504

>  <SCORE.INTRA.DIHEDRAL>
-0.000435104

>  <SCORE.INTRA.DIHEDRAL.0>
2.39985

>  <SCORE.INTRA.POLAR>
0

>  <SCORE.INTRA.POLAR.0>
0

>  <SCORE.INTRA.REPUL>
0

>  <SCORE.INTRA.REPUL.0>
0

>  <SCORE.INTRA.SOLV>
0.487798

>  <SCORE.INTRA.SOLV.lig_0>
-110.958

>  <SCORE.INTRA.VDW>
-0.540185

>  <SCORE.INTRA.VDW.0>
-2.34644

>  <SCORE.INTRA.norm>
-0.00705961

>  <SCORE.RESTR>
0

>  <SCORE.RESTR.CAVITY>
0

>  <SCORE.RESTR.norm>
0

>  <SCORE.SYSTEM>
0

>  <SCORE.SYSTEM.CONST>
0

>  <SCORE.SYSTEM.DIHEDRAL>
0

>  <SCORE.SYSTEM.SOLV>
0

>  <SCORE.SYSTEM.norm>
0

>  <SCORE.heavy>
42

>  <SCORE.norm>
-0.571984

>  <RMSD>
2.138

$$$$
ligand
 OpenBabel11021811513D
libRbt.so/2013.1/901 2013/11/27
 42 48  0  0  0  0  0  0  0  0999 V2000
    3.3219  -35.8753  -13.0644 P   0  0  2  0  0  0  0  0  0  0  0  0
    7.3134  -36.0653  -16.1542 P   0  0  1  0  0  0  0  0  0  0  0  0
    2.7783  -37.1669  -12.4996 O   0  5  0  0  0  0  0  0  0  0  0  0
    6.8230  -34.6555  -16.3832 O   0  5  0  0  0  0  0  0  0  0  0  0
    2.4943  -34.6144  -12.9919 O   0  0  0  0  0  0  0  0  0  0  0  0
    8.6696  -36.4847  -16.6682 O   0  0  0  0  0  0  0  0  0  0  0  0
    2.9750  -37.0402  -15.4053 C   0  0  0  0  0  0  0  0  0  0  0  0
    8.0109  -35.5762  -13.6587 C   0  0  0  0  0  0  0  0  0  0  0  0
    3.7224  -36.1277  -14.6029 O   0  0  0  0  0  0  0  0  0  0  0  0
    7.2573  -36.3681  -14.5738 O   0  0  0  0  0  0  0  0  0  0  0  0
    3.8903  -37.6622  -16.4531 C   0  0  1  0  0  0  0  0  0  0  0  0
    7.1084  -35.1107  -12.5230 C   0  0  1  0  0  0  0  0  0  0  0  0
    3.1101  -38.1389  -17.5528 O   0  0  0  0  0  0  0  0  0  0  0  0
    7.6548  -33.9330  -11.9244 O   0  0  0  0  0  0  0  0  0  0  0  0
    4.8814  -36.6447  -16.9925 C   0  0  1  0  0  0  0  0  0  0  0  0
    5.7154  -34.7712  -13.0288 C   0  0  1  0  0  0  0  0  0  0  0  0
    6.2142  -37.0828  -16.7464 O   0  0  0  0  0  0  0  0  0  0  0  0
    4.7463  -35.5841  -12.3736 O   0  0  0  0  0  0  0  0  0  0  0  0
    4.6319  -36.5524  -18.4864 C   0  0  0  0  0  0  0  0  0  0  0  0
    5.4810  -33.3108  -12.6941 C   0  0  0  0  0  0  0  0  0  0  0  0
    3.4960  -37.5201  -18.7830 C   0  0  2  0  0  0  0  0  0  0  0  0
    6.7465  -32.8314  -11.9973 C   0  0  2  0  0  0  0  0  0  0  0  0
    0.2824  -33.3949  -18.2984 N   0  0  0  0  0  0  0  0  0  0  0  0
    1.3095  -33.7905  -17.5239 C   0  0  0  0  0  0  0  0  0  0  0  0
    2.0552  -34.8830  -17.7717 N   0  0  0  0  0  0  0  0  0  0  0  0
    1.8043  -35.6665  -18.8479 C   0  0  0  0  0  0  0  0  0  0  0  0
    0.6966  -35.2997  -19.7441 C   0  0  0  0  0  0  0  0  0  0  0  0
   -0.0791  -34.0832  -19.4044 C   0  0  0  0  0  0  0  0  0  0  0  0
   -1.1145  -33.6744  -20.1767 N   0  0  0  0  0  0  0  0  0  0  0  0
    0.6655  -36.2299  -20.7167 N   0  0  0  0  0  0  0  0  0  0  0  0
    1.6643  -37.1148  -20.4665 C   0  0  0  0  0  0  0  0  0  0  0  0
    2.3434  -36.7790  -19.3527 N   0  0  0  0  0  0  0  0  0  0  0  0
    9.9760  -31.5290  -15.9275 N   0  0  0  0  0  0  0  0  0  0  0  0
    9.6253  -32.7407  -15.4581 C   0  0  0  0  0  0  0  0  0  0  0  0
    8.7765  -32.9275  -14.4313 N   0  0  0  0  0  0  0  0  0  0  0  0
    8.2124  -31.8719  -13.7961 C   0  0  0  0  0  0  0  0  0  0  0  0
    8.5463  -30.5136  -14.2516 C   0  0  0  0  0  0  0  0  0  0  0  0
    9.4888  -30.3906  -15.3887 C   0  0  0  0  0  0  0  0  0  0  0  0
    9.8492  -29.1759  -15.8710 N   0  0  0  0  0  0  0  0  0  0  0  0
    7.8603  -29.6648  -13.4630 N   0  0  0  0  0  0  0  0  0  0  0  0
    7.1503  -30.4136  -12.5803 C   0  0  0  0  0  0  0  0  0  0  0  0
    7.3601  -31.7280  -12.7785 N   0  0  0  0  0  0  0  0  0  0  0  0
  1  3  1  1  0  0  0
  1  5  2  0  0  0  0
  1  9  1  0  0  0  0
  1 18  1  0  0  0  0
  2  4  1  6  0  0  0
  2  6  2  0  0  0  0
  2 10  1  0  0  0  0
  2 17  1  0  0  0  0
  7  9  1  0  0  0  0
  8 10  1  0  0  0  0
 11  7  1  1  0  0  0
 11 13  1  0  0  0  0
 11 15  1  0  0  0  0
 12  8  1  6  0  0  0
 12 14  1  0  0  0  0
 12 16  1  0  0  0  0
 13 21  1  0  0  0  0
 14 22  1  0  0  0  0
 15 17  1  6  0  0  0
 15 19  1  0  0  0  0
 16 18  1  1  0  0  0
 16 20  1  0  0  0  0
 19 21  1  0  0  0  0
 20 22  1  0  0  0  0
 21 32  1  1  0  0  0
 22 42  1  6  0  0  0
 23 24  2  0  0  0  0
 23 28  1  0  0  0  0
 24 25  1  0  0  0  0
 25 26  2  0  0  0  0
 26 27  1  0  0  0  0
 26 32  1  0  0  0  0
 27 28  2  0  0  0  0
 27 30  1  0  0  0  0
 28 29  1  0  0  0  0
 30 31  2  0  0  0  0
 31 32  1  0  0  0  0
 33 34  2  0  0  0  0
 33 38  1  0  0  0  0
 34 35  1  0  0  0  0
 35 36  2  0  0  0  0
 36 37  1  0  0  0  0
 36 42  1  0  0  0  0
 37 38  2  0  0  0  0
 37 40  1  0  0  0  0
 38 39  1  0  0  0  0
 40 41  2  0  0  0  0
 41 42  1  0  0  0  0
M  CHG  2   3  -1   4  -1
M  END
>  <CHROM.1>
69.27243407,32.13610804,5.11080212,-34.70566639,-15.63323915,2.91932283,-0.70519547
-0.98559965

>  <Name>
ligand

>  <RI>
0

>  <Rbt.Current_Directory>
/home/itssahil/PROJECTS/Mol_Feturizer/New_Systems/rnas/4QLN

>  <Rbt.Executable>
rbdock ($Id: //depot/dev/client3/rdock/2013.1/src/exe/rbdock.cxx#4 $)

>  <Rbt.Library>
libRbt.so (2013.1, Build901 2013/11/27)

>  <Rbt.Parameter_File>
/export/apps/rDock/src/rDock_2013.1_src/data/scripts/dock_solv.prm

>  <Rbt.Receptor>
prm/pocket_docking_5.prm

>  <SCORE>
-23.5896

>  <SCORE.INTER>
-23.1279

>  <SCORE.INTER.CONST>
1

>  <SCORE.INTER.POLAR>
0

>  <SCORE.INTER.ROT>
2

>  <SCORE.INTER.SOLV>
25.5675

>  <SCORE.INTER.VDW>
-28.8744

>  <SCORE.INTER.norm>
-0.550664

>  <SCORE.INTRA>
-0.466819

>  <SCORE.INTRA.DIHEDRAL>
-0.000476387

>  <SCORE.INTRA.DIHEDRAL.0>
2.39985

>  <SCORE.INTRA.POLAR>
0

>  <SCORE.INTRA.POLAR.0>
0

>  <SCORE.INTRA.REPUL>
0

>  <SCORE.INTRA.REPUL.0>
0

>  <SCORE.INTRA.SOLV>
0.526857

>  <SCORE.INTRA.SOLV.lig_0>
-110.958

>  <SCORE.INTRA.VDW>
-0.730009

>  <SCORE.INTRA.VDW.0>
-2.34644

>  <SCORE.INTRA.norm>
-0.0111147

>  <SCORE.RESTR>
0.0050544

>  <SCORE.RESTR.CAVITY>
0.0050544

>  <SCORE.RESTR.norm>
0.000120343

>  <SCORE.SYSTEM>
0

>  <SCORE.SYSTEM.CONST>
0

>  <SCORE.SYSTEM.DIHEDRAL>
0

>  <SCORE.SYSTEM.SOLV>
0

>  <SCORE.SYSTEM.norm>
0

>  <SCORE.heavy>
42

>  <SCORE.norm>
-0.561658

>  <RMSD>
2.139

$$$$
ligand
 OpenBabel11021811513D
libRbt.so/2013.1/901 2013/11/27
 42 48  0  0  0  0  0  0  0  0999 V2000
    3.3338  -35.8929  -13.0599 P   0  0  2  0  0  0  0  0  0  0  0  0
    7.2901  -36.0545  -16.1961 P   0  0  1  0  0  0  0  0  0  0  0  0
    2.7975  -37.1895  -12.4996 O   0  5  0  0  0  0  0  0  0  0  0  0
    6.7962  -34.6433  -16.4081 O   0  5  0  0  0  0  0  0  0  0  0  0
    2.5062  -34.6333  -12.9678 O   0  0  0  0  0  0  0  0  0  0  0  0
    8.6408  -36.4686  -16.7289 O   0  0  0  0  0  0  0  0  0  0  0  0
    2.9612  -37.0390  -15.4061 C   0  0  0  0  0  0  0  0  0  0  0  0
    8.0156  -35.5852  -13.7048 C   0  0  0  0  0  0  0  0  0  0  0  0
    3.7170  -36.1325  -14.6048 O   0  0  0  0  0  0  0  0  0  0  0  0
    7.2521  -36.3703  -14.6177 O   0  0  0  0  0  0  0  0  0  0  0  0
    3.8651  -37.6517  -16.4693 C   0  0  1  0  0  0  0  0  0  0  0  0
    7.1256  -35.1297  -12.5552 C   0  0  1  0  0  0  0  0  0  0  0  0
    3.0727  -38.1201  -17.5640 O   0  0  0  0  0  0  0  0  0  0  0  0
    7.6779  -33.9565  -11.9531 O   0  0  0  0  0  0  0  0  0  0  0  0
    4.8493  -36.6290  -17.0115 C   0  0  1  0  0  0  0  0  0  0  0  0
    5.7267  -34.7872  -13.0424 C   0  0  1  0  0  0  0  0  0  0  0  0
    6.1851  -37.0680  -16.7841 O   0  0  0  0  0  0  0  0  0  0  0  0
    4.7657  -35.6062  -12.3829 O   0  0  0  0  0  0  0  0  0  0  0  0
    4.5828  -36.5247  -18.5017 C   0  0  0  0  0  0  0  0  0  0  0  0
    5.4951  -33.3298  -12.6931 C   0  0  0  0  0  0  0  0  0  0  0  0
    3.4443  -37.4909  -18.7933 C   0  0  2  0  0  0  0  0  0  0  0  0
    6.7680  -32.8550  -12.0068 C   0  0  2  0  0  0  0  0  0  0  0  0
    0.3811  -33.2455  -18.3781 N   0  0  0  0  0  0  0  0  0  0  0  0
    1.4362  -33.6302  -17.6364 C   0  0  0  0  0  0  0  0  0  0  0  0
    2.1359  -34.7578  -17.8600 N   0  0  0  0  0  0  0  0  0  0  0  0
    1.8056  -35.5910  -18.8757 C   0  0  0  0  0  0  0  0  0  0  0  0
    0.6627  -35.2391  -19.7330 C   0  0  0  0  0  0  0  0  0  0  0  0
   -0.0584  -33.9818  -19.4232 C   0  0  0  0  0  0  0  0  0  0  0  0
   -1.1214  -33.5835  -20.1629 N   0  0  0  0  0  0  0  0  0  0  0  0
    0.5532  -36.2200  -20.6484 N   0  0  0  0  0  0  0  0  0  0  0  0
    1.5380  -37.1210  -20.4004 C   0  0  0  0  0  0  0  0  0  0  0  0
    2.2847  -36.7461  -19.3439 N   0  0  0  0  0  0  0  0  0  0  0  0
    9.9853  -31.5170  -15.9351 N   0  0  0  0  0  0  0  0  0  0  0  0
    9.6450  -32.7325  -15.4682 C   0  0  0  0  0  0  0  0  0  0  0  0
    8.7982  -32.9287  -14.4415 N   0  0  0  0  0  0  0  0  0  0  0  0
    8.2252  -31.8793  -13.8040 C   0  0  0  0  0  0  0  0  0  0  0  0
    8.5474  -30.5173  -14.2568 C   0  0  0  0  0  0  0  0  0  0  0  0
    9.4884  -30.3839  -15.3938 C   0  0  0  0  0  0  0  0  0  0  0  0
    9.8383  -29.1651  -15.8737 N   0  0  0  0  0  0  0  0  0  0  0  0
    7.8544  -29.6760  -13.4662 N   0  0  0  0  0  0  0  0  0  0  0  0
    7.1510  -30.4327  -12.5849 C   0  0  0  0  0  0  0  0  0  0  0  0
    7.3720  -31.7449  -12.7859 N   0  0  0  0  0  0  0  0  0  0  0  0
  1  3  1  1  0  0  0
  1  5  2  0  0  0  0
  1  9  1  0  0  0  0
  1 18  1  0  0  0  0
  2  4  1  6  0  0  0
  2  6  2  0  0  0  0
  2 10  1  0  0  0  0
  2 17  1  0  0  0  0
  7  9  1  0  0  0  0
  8 10  1  0  0  0  0
 11  7  1  1  0  0  0
 11 13  1  0  0  0  0
 11 15  1  0  0  0  0
 12  8  1  6  0  0  0
 12 14  1  0  0  0  0
 12 16  1  0  0  0  0
 13 21  1  0  0  0  0
 14 22  1  0  0  0  0
 15 17  1  6  0  0  0
 15 19  1  0  0  0  0
 16 18  1  1  0  0  0
 16 20  1  0  0  0  0
 19 21  1  0  0  0  0
 20 22  1  0  0  0  0
 21 32  1  1  0  0  0
 22 42  1  6  0  0  0
 23 24  2  0  0  0  0
 23 28  1  0  0  0  0
 24 25  1  0  0  0  0
 25 26  2  0  0  0  0
 26 27  1  0  0  0  0
 26 32  1  0  0  0  0
 27 28  2  0  0  0  0
 27 30  1  0  0  0  0
 28 29  1  0  0  0  0
 30 31  2  0  0  0  0
 31 32  1  0  0  0  0
 33 34  2  0  0  0  0
 33 38  1  0  0  0  0
 34 35  1  0  0  0  0
 35 36  2  0  0  0  0
 36 37  1  0  0  0  0
 36 42  1  0  0  0  0
 37 38  2  0  0  0  0
 37 40  1  0  0  0  0
 38 39  1  0  0  0  0
 40 41  2  0  0  0  0
 41 42  1  0  0  0  0
M  CHG  2   3  -1   4  -1
M  END
>  <CHROM.1>
73.98308627,31.28676100,5.10751435,-34.69044010,-15.64836888,2.95069930,-0.70878653
-0.93173944

>  <Name>
ligand

>  <RI>
0

>  <Rbt.Current_Directory>
/home/itssahil/PROJECTS/Mol_Feturizer/New_Systems/rnas/4QLN

>  <Rbt.Executable>
rbdock ($Id: //depot/dev/client3/rdock/2013.1/src/exe/rbdock.cxx#4 $)

>  <Rbt.Library>
libRbt.so (2013.1, Build901 2013/11/27)

>  <Rbt.Parameter_File>
/export/apps/rDock/src/rDock_2013.1_src/data/scripts/dock_solv.prm

>  <Rbt.Receptor>
prm/pocket_docking_3.prm

>  <SCORE>
-24.0736

>  <SCORE.INTER>
-23.8072

>  <SCORE.INTER.CONST>
1

>  <SCORE.INTER.POLAR>
0

>  <SCORE.INTER.ROT>
2

>  <SCORE.INTER.SOLV>
25.7998

>  <SCORE.INTER.VDW>
-29.4048

>  <SCORE.INTER.norm>
-0.566839

>  <SCORE.INTRA>
-0.26632

>  <SCORE.INTRA.DIHEDRAL>
-0.000426552

>  <SCORE.INTRA.DIHEDRAL.0>
2.39985

>  <SCORE.INTRA.POLAR>
0

>  <SCORE.INTRA.POLAR.0>
0

>  <SCORE.INTRA.REPUL>
0

>  <SCORE.INTRA.REPUL.0>
0

>  <SCORE.INTRA.SOLV>
0.48079

>  <SCORE.INTRA.SOLV.lig_0>
-110.958

>  <SCORE.INTRA.VDW>
-0.506502

>  <SCORE.INTRA.VDW.0>
-2.34644

>  <SCORE.INTRA.norm>
-0.00634096

>  <SCORE.RESTR>
0

>  <SCORE.RESTR.CAVITY>
0

>  <SCORE.RESTR.norm>
0

>  <SCORE.SYSTEM>
0

>  <SCORE.SYSTEM.CONST>
0

>  <SCORE.SYSTEM.DIHEDRAL>
0

>  <SCORE.SYSTEM.SOLV>
0

>  <SCORE.SYSTEM.norm>
0

>  <SCORE.heavy>
42

>  <SCORE.norm>
-0.57318

>  <RMSD>
2.145

$$$$
ligand
 OpenBabel11021811513D
libRbt.so/2013.1/901 2013/11/27
 42 48  0  0  0  0  0  0  0  0999 V2000
    3.3268  -35.8886  -13.0591 P   0  0  2  0  0  0  0  0  0  0  0  0
    7.2844  -36.0569  -16.1933 P   0  0  1  0  0  0  0  0  0  0  0  0
    2.7889  -37.1842  -12.4978 O   0  5  0  0  0  0  0  0  0  0  0  0
    6.7919  -34.6454  -16.4067 O   0  5  0  0  0  0  0  0  0  0  0  0
    2.5003  -34.6282  -12.9684 O   0  0  0  0  0  0  0  0  0  0  0  0
    8.6349  -36.4728  -16.7250 O   0  0  0  0  0  0  0  0  0  0  0  0
    2.9542  -37.0365  -15.4044 C   0  0  0  0  0  0  0  0  0  0  0  0
    8.0091  -35.5860  -13.7020 C   0  0  0  0  0  0  0  0  0  0  0  0
    3.7104  -36.1299  -14.6036 O   0  0  0  0  0  0  0  0  0  0  0  0
    7.2454  -36.3712  -14.6146 O   0  0  0  0  0  0  0  0  0  0  0  0
    3.8579  -37.6510  -16.4666 C   0  0  1  0  0  0  0  0  0  0  0  0
    7.1191  -35.1286  -12.5532 C   0  0  1  0  0  0  0  0  0  0  0  0
    3.0657  -38.1196  -17.5612 O   0  0  0  0  0  0  0  0  0  0  0  0
    7.6722  -33.9554  -11.9520 O   0  0  0  0  0  0  0  0  0  0  0  0
    4.8434  -36.6298  -17.0092 C   0  0  1  0  0  0  0  0  0  0  0  0
    5.7207  -34.7852  -13.0414 C   0  0  1  0  0  0  0  0  0  0  0  0
    6.1787  -37.0699  -16.7808 O   0  0  0  0  0  0  0  0  0  0  0  0
    4.7586  -35.6027  -12.3817 O   0  0  0  0  0  0  0  0  0  0  0  0
    4.5777  -36.5266  -18.4996 C   0  0  0  0  0  0  0  0  0  0  0  0
    5.4904  -33.3273  -12.6936 C   0  0  0  0  0  0  0  0  0  0  0  0
    3.4384  -37.4919  -18.7910 C   0  0  2  0  0  0  0  0  0  0  0  0
    6.7634  -32.8531  -12.0071 C   0  0  2  0  0  0  0  0  0  0  0  0
    0.3651  -33.2547  -18.3671 N   0  0  0  0  0  0  0  0  0  0  0  0
    1.4177  -33.6412  -17.6228 C   0  0  0  0  0  0  0  0  0  0  0  0
    2.1206  -34.7663  -17.8493 N   0  0  0  0  0  0  0  0  0  0  0  0
    1.7963  -35.5948  -18.8707 C   0  0  0  0  0  0  0  0  0  0  0  0
    0.6566  -35.2407  -19.7311 C   0  0  0  0  0  0  0  0  0  0  0  0
   -0.0684  -33.9863  -19.4180 C   0  0  0  0  0  0  0  0  0  0  0  0
   -1.1288  -33.5862  -20.1603 N   0  0  0  0  0  0  0  0  0  0  0  0
    0.5530  -36.2170  -20.6521 N   0  0  0  0  0  0  0  0  0  0  0  0
    1.5384  -37.1174  -20.4044 C   0  0  0  0  0  0  0  0  0  0  0  0
    2.2798  -36.7465  -19.3428 N   0  0  0  0  0  0  0  0  0  0  0  0
    9.9987  -31.5211  -15.9226 N   0  0  0  0  0  0  0  0  0  0  0  0
    9.6590  -32.7358  -15.4531 C   0  0  0  0  0  0  0  0  0  0  0  0
    8.8070  -32.9304  -14.4304 N   0  0  0  0  0  0  0  0  0  0  0  0
    8.2279  -31.8802  -13.7998 C   0  0  0  0  0  0  0  0  0  0  0  0
    8.5492  -30.5190  -14.2558 C   0  0  0  0  0  0  0  0  0  0  0  0
    9.4961  -30.3873  -15.3882 C   0  0  0  0  0  0  0  0  0  0  0  0
    9.8455  -29.1694  -15.8706 N   0  0  0  0  0  0  0  0  0  0  0  0
    7.8497  -29.6767  -13.4721 N   0  0  0  0  0  0  0  0  0  0  0  0
    7.1435  -30.4319  -12.5919 C   0  0  0  0  0  0  0  0  0  0  0  0
    7.3688  -31.7442  -12.7869 N   0  0  0  0  0  0  0  0  0  0  0  0
  1  3  1  1  0  0  0
  1  5  2  0  0  0  0
  1  9  1  0  0  0  0
  1 18  1  0  0  0  0
  2  4  1  6  0  0  0
  2  6  2  0  0  0  0
  2 10  1  0  0  0  0
  2 17  1  0  0  0  0
  7  9  1  0  0  0  0
  8 10  1  0  0  0  0
 11  7  1  1  0  0  0
 11 13  1  0  0  0  0
 11 15  1  0  0  0  0
 12  8  1  6  0  0  0
 12 14  1  0  0  0  0
 12 16  1  0  0  0  0
 13 21  1  0  0  0  0
 14 22  1  0  0  0  0
 15 17  1  6  0  0  0
 15 19  1  0  0  0  0
 16 18  1  1  0  0  0
 16 20  1  0  0  0  0
 19 21  1  0  0  0  0
 20 22  1  0  0  0  0
 21 32  1  1  0  0  0
 22 42  1  6  0  0  0
 23 24  2  0  0  0  0
 23 28  1  0  0  0  0
 24 25  1  0  0  0  0
 25 26  2  0  0  0  0
 26 27  1  0  0  0  0
 26 32  1  0  0  0  0
 27 28  2  0  0  0  0
 27 30  1  0  0  0  0
 28 29  1  0  0  0  0
 30 31  2  0  0  0  0
 31 32  1  0  0  0  0
 33 34  2  0  0  0  0
 33 38  1  0  0  0  0
 34 35  1  0  0  0  0
 35 36  2  0  0  0  0
 36 37  1  0  0  0  0
 36 42  1  0  0  0  0
 37 38  2  0  0  0  0
 37 40  1  0  0  0  0
 38 39  1  0  0  0  0
 40 41  2  0  0  0  0
 41 42  1  0  0  0  0
M  CHG  2   3  -1   4  -1
M  END
>  <CHROM.1>
73.53472890,30.90384815,5.10292220,-34.69110362,-15.64560340,2.94814477,-0.70709719
-0.93655530

>  <Name>
ligand

>  <RI>
0

>  <Rbt.Current_Directory>
/home/itssahil/PROJECTS/Mol_Feturizer/New_Systems/rnas/4QLN

>  <Rbt.Executable>
rbdock ($Id: //depot/dev/client3/rdock/2013.1/src/exe/rbdock.cxx#4 $)

>  <Rbt.Library>
libRbt.so (2013.1, Build901 2013/11/27)

>  <Rbt.Parameter_File>
/export/apps/rDock/src/rDock_2013.1_src/data/scripts/dock_solv.prm

>  <Rbt.Receptor>
prm/pocket_docking_4.prm

>  <SCORE>
-23.9989

>  <SCORE.INTER>
-23.7156

>  <SCORE.INTER.CONST>
1

>  <SCORE.INTER.POLAR>
0

>  <SCORE.INTER.ROT>
2

>  <SCORE.INTER.SOLV>
25.7821

>  <SCORE.INTER.VDW>
-29.3378

>  <SCORE.INTER.norm>
-0.564658

>  <SCORE.INTRA>
-0.283322

>  <SCORE.INTRA.DIHEDRAL>
-0.000432024

>  <SCORE.INTRA.DIHEDRAL.0>
2.39985

>  <SCORE.INTRA.POLAR>
0

>  <SCORE.INTRA.POLAR.0>
0

>  <SCORE.INTRA.REPUL>
0

>  <SCORE.INTRA.REPUL.0>
0

>  <SCORE.INTRA.SOLV>
0.461858

>  <SCORE.INTRA.SOLV.lig_0>
-110.958

>  <SCORE.INTRA.VDW>
-0.514036

>  <SCORE.INTRA.VDW.0>
-2.34644

>  <SCORE.INTRA.norm>
-0.00674577

>  <SCORE.RESTR>
0

>  <SCORE.RESTR.CAVITY>
0

>  <SCORE.RESTR.norm>
0

>  <SCORE.SYSTEM>
0

>  <SCORE.SYSTEM.CONST>
0

>  <SCORE.SYSTEM.DIHEDRAL>
0

>  <SCORE.SYSTEM.SOLV>
0

>  <SCORE.SYSTEM.norm>
0

>  <SCORE.heavy>
42

>  <SCORE.norm>
-0.571403

>  <RMSD>
2.146

$$$$
ligand
 OpenBabel11021811513D
libRbt.so/2013.1/901 2013/11/27
 42 48  0  0  0  0  0  0  0  0999 V2000
    3.3136  -35.8745  -13.0461 P   0  0  2  0  0  0  0  0  0  0  0  0
    7.2767  -36.0620  -16.1722 P   0  0  1  0  0  0  0  0  0  0  0  0
    2.7721  -37.1670  -12.4811 O   0  5  0  0  0  0  0  0  0  0  0  0
    6.7874  -34.6504  -16.3917 O   0  5  0  0  0  0  0  0  0  0  0  0
    2.4894  -34.6121  -12.9617 O   0  0  0  0  0  0  0  0  0  0  0  0
    8.6274  -36.4825  -16.6999 O   0  0  0  0  0  0  0  0  0  0  0  0
    2.9431  -37.0302  -15.3880 C   0  0  0  0  0  0  0  0  0  0  0  0
    7.9977  -35.5834  -13.6813 C   0  0  0  0  0  0  0  0  0  0  0  0
    3.6996  -36.1222  -14.5890 O   0  0  0  0  0  0  0  0  0  0  0  0
    7.2341  -36.3705  -14.5925 O   0  0  0  0  0  0  0  0  0  0  0  0
    3.8476  -37.6504  -16.4462 C   0  0  1  0  0  0  0  0  0  0  0  0
    7.1064  -35.1201  -12.5359 C   0  0  1  0  0  0  0  0  0  0  0  0
    3.0565  -38.1215  -17.5406 O   0  0  0  0  0  0  0  0  0  0  0  0
    7.6607  -33.9458  -11.9379 O   0  0  0  0  0  0  0  0  0  0  0  0
    4.8361  -36.6331  -16.9907 C   0  0  1  0  0  0  0  0  0  0  0  0
    5.7096  -34.7757  -13.0280 C   0  0  1  0  0  0  0  0  0  0  0  0
    6.1701  -37.0750  -16.7581 O   0  0  0  0  0  0  0  0  0  0  0  0
    4.7447  -35.5889  -12.3671 O   0  0  0  0  0  0  0  0  0  0  0  0
    4.5735  -36.5349  -18.4820 C   0  0  0  0  0  0  0  0  0  0  0  0
    5.4815  -33.3161  -12.6859 C   0  0  0  0  0  0  0  0  0  0  0  0
    3.4328  -37.4990  -18.7719 C   0  0  2  0  0  0  0  0  0  0  0  0
    6.7542  -32.8419  -11.9988 C   0  0  2  0  0  0  0  0  0  0  0  0
    0.3756  -33.2474  -18.3778 N   0  0  0  0  0  0  0  0  0  0  0  0
    1.4270  -33.6323  -17.6311 C   0  0  0  0  0  0  0  0  0  0  0  0
    2.1256  -34.7616  -17.8496 N   0  0  0  0  0  0  0  0  0  0  0  0
    1.7978  -35.5964  -18.8648 C   0  0  0  0  0  0  0  0  0  0  0  0
    0.6589  -35.2444  -19.7272 C   0  0  0  0  0  0  0  0  0  0  0  0
   -0.0612  -33.9851  -19.4230 C   0  0  0  0  0  0  0  0  0  0  0  0
   -1.1205  -33.5865  -20.1678 N   0  0  0  0  0  0  0  0  0  0  0  0
    0.5512  -36.2271  -20.6410 N   0  0  0  0  0  0  0  0  0  0  0  0
    1.5334  -37.1292  -20.3872 C   0  0  0  0  0  0  0  0  0  0  0  0
    2.2767  -36.7534  -19.3286 N   0  0  0  0  0  0  0  0  0  0  0  0
    9.9695  -31.5318  -15.9381 N   0  0  0  0  0  0  0  0  0  0  0  0
    9.6226  -32.7443  -15.4680 C   0  0  0  0  0  0  0  0  0  0  0  0
    8.7772  -32.9331  -14.4388 N   0  0  0  0  0  0  0  0  0  0  0  0
    8.2128  -31.8789  -13.8016 C   0  0  0  0  0  0  0  0  0  0  0  0
    8.5426  -30.5198  -14.2577 C   0  0  0  0  0  0  0  0  0  0  0  0
    9.4814  -30.3945  -15.3976 C   0  0  0  0  0  0  0  0  0  0  0  0
    9.8379  -29.1789  -15.8806 N   0  0  0  0  0  0  0  0  0  0  0  0
    7.8572  -29.6727  -13.4669 N   0  0  0  0  0  0  0  0  0  0  0  0
    7.1513  -30.4231  -12.5823 C   0  0  0  0  0  0  0  0  0  0  0  0
    7.3632  -31.7371  -12.7815 N   0  0  0  0  0  0  0  0  0  0  0  0
  1  3  1  1  0  0  0
  1  5  2  0  0  0  0
  1  9  1  0  0  0  0
  1 18  1  0  0  0  0
  2  4  1  6  0  0  0
  2  6  2  0  0  0  0
  2 10  1  0  0  0  0
  2 17  1  0  0  0  0
  7  9  1  0  0  0  0
  8 10  1  0  0  0  0
 11  7  1  1  0  0  0
 11 13  1  0  0  0  0
 11 15  1  0  0  0  0
 12  8  1  6  0  0  0
 12 14  1  0  0  0  0
 12 16  1  0  0  0  0
 13 21  1  0  0  0  0
 14 22  1  0  0  0  0
 15 17  1  6  0  0  0
 15 19  1  0  0  0  0
 16 18  1  1  0  0  0
 16 20  1  0  0  0  0
 19 21  1  0  0  0  0
 20 22  1  0  0  0  0
 21 32  1  1  0  0  0
 22 42  1  6  0  0  0
 23 24  2  0  0  0  0
 23 28  1  0  0  0  0
 24 25  1  0  0  0  0
 25 26  2  0  0  0  0
 26 27  1  0  0  0  0
 26 32  1  0  0  0  0
 27 28  2  0  0  0  0
 27 30  1  0  0  0  0
 28 29  1  0  0  0  0
 30 31  2  0  0  0  0
 31 32  1  0  0  0  0
 33 34  2  0  0  0  0
 33 38  1  0  0  0  0
 34 35  1  0  0  0  0
 35 36  2  0  0  0  0
 36 37  1  0  0  0  0
 36 42  1  0  0  0  0
 37 38  2  0  0  0  0
 37 40  1  0  0  0  0
 38 39  1  0  0  0  0
 40 41  2  0  0  0  0
 41 42  1  0  0  0  0
M  CHG  2   3  -1   4  -1
M  END
>  <CHROM.1>
73.80554628,31.67304754,5.09514354,-34.68949690,-15.63642164,2.94525405,-0.70782132
-0.94056536

>  <Name>
ligand

>  <RI>
0

>  <Rbt.Current_Directory>
/home/itssahil/PROJECTS/Mol_Feturizer/New_Systems/rnas/4QLN

>  <Rbt.Executable>
rbdock ($Id: //depot/dev/client3/rdock/2013.1/src/exe/rbdock.cxx#4 $)

>  <Rbt.Library>
libRbt.so (2013.1, Build901 2013/11/27)

>  <Rbt.Parameter_File>
/export/apps/rDock/src/rDock_2013.1_src/data/scripts/dock_solv.prm

>  <Rbt.Receptor>
prm/pocket_docking_4.prm

>  <SCORE>
-24.0363

>  <SCORE.INTER>
-23.7642

>  <SCORE.INTER.CONST>
1

>  <SCORE.INTER.POLAR>
0

>  <SCORE.INTER.ROT>
2

>  <SCORE.INTER.SOLV>
25.7362

>  <SCORE.INTER.VDW>
-29.3549

>  <SCORE.INTER.norm>
-0.565815

>  <SCORE.INTRA>
-0.272077

>  <SCORE.INTRA.DIHEDRAL>
-0.0004272

>  <SCORE.INTRA.DIHEDRAL.0>
2.39985

>  <SCORE.INTRA.POLAR>
0

>  <SCORE.INTRA.POLAR.0>
0

>  <SCORE.INTRA.REPUL>
0

>  <SCORE.INTRA.REPUL.0>
0

>  <SCORE.INTRA.SOLV>
0.500154

>  <SCORE.INTRA.SOLV.lig_0>
-110.958

>  <SCORE.INTRA.VDW>
-0.52194

>  <SCORE.INTRA.VDW.0>
-2.34644

>  <SCORE.INTRA.norm>
-0.00647801

>  <SCORE.RESTR>
0

>  <SCORE.RESTR.CAVITY>
0

>  <SCORE.RESTR.norm>
0

>  <SCORE.SYSTEM>
0

>  <SCORE.SYSTEM.CONST>
0

>  <SCORE.SYSTEM.DIHEDRAL>
0

>  <SCORE.SYSTEM.SOLV>
0

>  <SCORE.SYSTEM.norm>
0

>  <SCORE.heavy>
42

>  <SCORE.norm>
-0.572293

>  <RMSD>
2.148

$$$$
ligand
 OpenBabel11021811513D
libRbt.so/2013.1/901 2013/11/27
 42 48  0  0  0  0  0  0  0  0999 V2000
    3.3045  -35.8710  -13.0467 P   0  0  2  0  0  0  0  0  0  0  0  0
    7.2713  -36.0615  -16.1680 P   0  0  1  0  0  0  0  0  0  0  0  0
    2.7622  -37.1630  -12.4813 O   0  5  0  0  0  0  0  0  0  0  0  0
    6.7825  -34.6499  -16.3891 O   0  5  0  0  0  0  0  0  0  0  0  0
    2.4804  -34.6085  -12.9641 O   0  0  0  0  0  0  0  0  0  0  0  0
    8.6225  -36.4826  -16.6937 O   0  0  0  0  0  0  0  0  0  0  0  0
    2.9366  -37.0284  -15.3881 C   0  0  0  0  0  0  0  0  0  0  0  0
    7.9894  -35.5812  -13.6766 C   0  0  0  0  0  0  0  0  0  0  0  0
    3.6923  -36.1199  -14.5889 O   0  0  0  0  0  0  0  0  0  0  0  0
    7.2268  -36.3688  -14.5880 O   0  0  0  0  0  0  0  0  0  0  0  0
    3.8423  -37.6495  -16.4448 C   0  0  1  0  0  0  0  0  0  0  0  0
    7.0969  -35.1169  -12.5326 C   0  0  1  0  0  0  0  0  0  0  0  0
    3.0523  -38.1212  -17.5398 O   0  0  0  0  0  0  0  0  0  0  0  0
    7.6507  -33.9422  -11.9348 O   0  0  0  0  0  0  0  0  0  0  0  0
    4.8315  -36.6328  -16.9889 C   0  0  1  0  0  0  0  0  0  0  0  0
    5.7007  -34.7727  -13.0265 C   0  0  1  0  0  0  0  0  0  0  0  0
    6.1652  -37.0747  -16.7545 O   0  0  0  0  0  0  0  0  0  0  0  0
    4.7349  -35.5852  -12.3661 O   0  0  0  0  0  0  0  0  0  0  0  0
    4.5707  -36.5355  -18.4805 C   0  0  0  0  0  0  0  0  0  0  0  0
    5.4724  -33.3127  -12.6858 C   0  0  0  0  0  0  0  0  0  0  0  0
    3.4301  -37.4997  -18.7711 C   0  0  2  0  0  0  0  0  0  0  0  0
    6.7444  -32.8382  -11.9975 C   0  0  2  0  0  0  0  0  0  0  0  0
    0.3729  -33.2475  -18.3834 N   0  0  0  0  0  0  0  0  0  0  0  0
    1.4234  -33.6321  -17.6352 C   0  0  0  0  0  0  0  0  0  0  0  0
    2.1221  -34.7616  -17.8521 N   0  0  0  0  0  0  0  0  0  0  0  0
    1.7955  -35.5970  -18.8672 C   0  0  0  0  0  0  0  0  0  0  0  0
    0.6577  -35.2453  -19.7313 C   0  0  0  0  0  0  0  0  0  0  0  0
   -0.0626  -33.9858  -19.4287 C   0  0  0  0  0  0  0  0  0  0  0  0
   -1.1210  -33.5876  -20.1750 N   0  0  0  0  0  0  0  0  0  0  0  0
    0.5510  -36.2286  -20.6446 N   0  0  0  0  0  0  0  0  0  0  0  0
    1.5328  -37.1307  -20.3890 C   0  0  0  0  0  0  0  0  0  0  0  0
    2.2749  -36.7543  -19.3297 N   0  0  0  0  0  0  0  0  0  0  0  0
    9.9571  -31.5318  -15.9401 N   0  0  0  0  0  0  0  0  0  0  0  0
    9.6086  -32.7439  -15.4703 C   0  0  0  0  0  0  0  0  0  0  0  0
    8.7642  -32.9318  -14.4401 N   0  0  0  0  0  0  0  0  0  0  0  0
    8.2026  -31.8769  -13.8016 C   0  0  0  0  0  0  0  0  0  0  0  0
    8.5344  -30.5181  -14.2573 C   0  0  0  0  0  0  0  0  0  0  0  0
    9.4720  -30.3939  -15.3982 C   0  0  0  0  0  0  0  0  0  0  0  0
    9.8301  -29.1787  -15.8810 N   0  0  0  0  0  0  0  0  0  0  0  0
    7.8515  -29.6702  -13.4650 N   0  0  0  0  0  0  0  0  0  0  0  0
    7.1454  -30.4199  -12.5800 C   0  0  0  0  0  0  0  0  0  0  0  0
    7.3545  -31.7341  -12.7803 N   0  0  0  0  0  0  0  0  0  0  0  0
  1  3  1  1  0  0  0
  1  5  2  0  0  0  0
  1  9  1  0  0  0  0
  1 18  1  0  0  0  0
  2  4  1  6  0  0  0
  2  6  2  0  0  0  0
  2 10  1  0  0  0  0
  2 17  1  0  0  0  0
  7  9  1  0  0  0  0
  8 10  1  0  0  0  0
 11  7  1  1  0  0  0
 11 13  1  0  0  0  0
 11 15  1  0  0  0  0
 12  8  1  6  0  0  0
 12 14  1  0  0  0  0
 12 16  1  0  0  0  0
 13 21  1  0  0  0  0
 14 22  1  0  0  0  0
 15 17  1  6  0  0  0
 15 19  1  0  0  0  0
 16 18  1  1  0  0  0
 16 20  1  0  0  0  0
 19 21  1  0  0  0  0
 20 22  1  0  0  0  0
 21 32  1  1  0  0  0
 22 42  1  6  0  0  0
 23 24  2  0  0  0  0
 23 28  1  0  0  0  0
 24 25  1  0  0  0  0
 25 26  2  0  0  0  0
 26 27  1  0  0  0  0
 26 32  1  0  0  0  0
 27 28  2  0  0  0  0
 27 30  1  0  0  0  0
 28 29  1  0  0  0  0
 30 31  2  0  0  0  0
 31 32  1  0  0  0  0
 33 34  2  0  0  0  0
 33 38  1  0  0  0  0
 34 35  1  0  0  0  0
 35 36  2  0  0  0  0
 36 37  1  0  0  0  0
 36 42  1  0  0  0  0
 37 38  2  0  0  0  0
 37 40  1  0  0  0  0
 38 39  1  0  0  0  0
 40 41  2  0  0  0  0
 41 42  1  0  0  0  0
M  CHG  2   3  -1   4  -1
M  END
>  <CHROM.1>
73.79723080,31.86145338,5.08868418,-34.68823405,-15.63619644,2.94381363,-0.70852573
-0.94219761

>  <Name>
ligand

>  <RI>
0

>  <Rbt.Current_Directory>
/home/itssahil/PROJECTS/Mol_Feturizer/New_Systems/rnas/4QLN

>  <Rbt.Executable>
rbdock ($Id: //depot/dev/client3/rdock/2013.1/src/exe/rbdock.cxx#4 $)

>  <Rbt.Library>
libRbt.so (2013.1, Build901 2013/11/27)

>  <Rbt.Parameter_File>
/export/apps/rDock/src/rDock_2013.1_src/data/scripts/dock_solv.prm

>  <Rbt.Receptor>
prm/pocket_docking_4.prm

>  <SCORE>
-24.0224

>  <SCORE.INTER>
-23.7502

>  <SCORE.INTER.CONST>
1

>  <SCORE.INTER.POLAR>
0

>  <SCORE.INTER.ROT>
2

>  <SCORE.INTER.SOLV>
25.7171

>  <SCORE.INTER.VDW>
-29.3392

>  <SCORE.INTER.norm>
-0.565481

>  <SCORE.INTRA>
-0.272153

>  <SCORE.INTRA.DIHEDRAL>
-0.000426605

>  <SCORE.INTRA.DIHEDRAL.0>
2.39985

>  <SCORE.INTRA.POLAR>
0

>  <SCORE.INTRA.POLAR.0>
0

>  <SCORE.INTRA.REPUL>
0

>  <SCORE.INTRA.REPUL.0>
0

>  <SCORE.INTRA.SOLV>
0.509458

>  <SCORE.INTRA.SOLV.lig_0>
-110.958

>  <SCORE.INTRA.VDW>
-0.526669

>  <SCORE.INTRA.VDW.0>
-2.34644

>  <SCORE.INTRA.norm>
-0.00647983

>  <SCORE.RESTR>
0

>  <SCORE.RESTR.CAVITY>
0

>  <SCORE.RESTR.norm>
0

>  <SCORE.SYSTEM>
0

>  <SCORE.SYSTEM.CONST>
0

>  <SCORE.SYSTEM.DIHEDRAL>
0

>  <SCORE.SYSTEM.SOLV>
0

>  <SCORE.SYSTEM.norm>
0

>  <SCORE.heavy>
42

>  <SCORE.norm>
-0.571961

>  <RMSD>
2.151

$$$$
ligand
 OpenBabel11021811513D
libRbt.so/2013.1/901 2013/11/27
 42 48  0  0  0  0  0  0  0  0999 V2000
    3.3276  -35.9055  -13.0595 P   0  0  2  0  0  0  0  0  0  0  0  0
    7.2846  -36.0601  -16.1953 P   0  0  1  0  0  0  0  0  0  0  0  0
    2.7922  -37.2033  -12.5009 O   0  5  0  0  0  0  0  0  0  0  0  0
    6.7896  -34.6490  -16.4055 O   0  5  0  0  0  0  0  0  0  0  0  0
    2.4990  -34.6467  -12.9659 O   0  0  0  0  0  0  0  0  0  0  0  0
    8.6356  -36.4725  -16.7284 O   0  0  0  0  0  0  0  0  0  0  0  0
    2.9563  -37.0488  -15.4073 C   0  0  0  0  0  0  0  0  0  0  0  0
    8.0093  -35.5935  -13.7033 C   0  0  0  0  0  0  0  0  0  0  0  0
    3.7112  -36.1428  -14.6047 O   0  0  0  0  0  0  0  0  0  0  0  0
    7.2466  -36.3780  -14.6173 O   0  0  0  0  0  0  0  0  0  0  0  0
    3.8607  -37.6595  -16.4711 C   0  0  1  0  0  0  0  0  0  0  0  0
    7.1188  -35.1402  -12.5532 C   0  0  1  0  0  0  0  0  0  0  0  0
    3.0689  -38.1271  -17.5665 O   0  0  0  0  0  0  0  0  0  0  0  0
    7.6701  -33.9673  -11.9496 O   0  0  0  0  0  0  0  0  0  0  0  0
    4.8443  -36.6354  -17.0118 C   0  0  1  0  0  0  0  0  0  0  0  0
    5.7197  -34.7981  -13.0402 C   0  0  1  0  0  0  0  0  0  0  0  0
    6.1804  -37.0737  -16.7848 O   0  0  0  0  0  0  0  0  0  0  0  0
    4.7592  -35.6186  -12.3820 O   0  0  0  0  0  0  0  0  0  0  0  0
    4.5780  -36.5294  -18.5019 C   0  0  0  0  0  0  0  0  0  0  0  0
    5.4869  -33.3413  -12.6891 C   0  0  0  0  0  0  0  0  0  0  0  0
    3.4402  -37.4960  -18.7950 C   0  0  2  0  0  0  0  0  0  0  0  0
    6.7594  -32.8665  -12.0020 C   0  0  2  0  0  0  0  0  0  0  0  0
    0.3818  -33.2469  -18.3828 N   0  0  0  0  0  0  0  0  0  0  0  0
    1.4381  -33.6308  -17.6425 C   0  0  0  0  0  0  0  0  0  0  0  0
    2.1363  -34.7596  -17.8651 N   0  0  0  0  0  0  0  0  0  0  0  0
    1.8031  -35.5948  -18.8782 C   0  0  0  0  0  0  0  0  0  0  0  0
    0.6587  -35.2438  -19.7338 C   0  0  0  0  0  0  0  0  0  0  0  0
   -0.0606  -33.9850  -19.4253 C   0  0  0  0  0  0  0  0  0  0  0  0
   -1.1247  -33.5874  -20.1637 N   0  0  0  0  0  0  0  0  0  0  0  0
    0.5463  -36.2266  -20.6468 N   0  0  0  0  0  0  0  0  0  0  0  0
    1.5308  -37.1280  -20.3988 C   0  0  0  0  0  0  0  0  0  0  0  0
    2.2802  -36.7514  -19.3448 N   0  0  0  0  0  0  0  0  0  0  0  0
    9.9663  -31.5213  -15.9363 N   0  0  0  0  0  0  0  0  0  0  0  0
    9.6256  -32.7377  -15.4720 C   0  0  0  0  0  0  0  0  0  0  0  0
    8.7817  -32.9358  -14.4433 N   0  0  0  0  0  0  0  0  0  0  0  0
    8.2124  -31.8875  -13.8007 C   0  0  0  0  0  0  0  0  0  0  0  0
    8.5354  -30.5245  -14.2503 C   0  0  0  0  0  0  0  0  0  0  0  0
    9.4730  -30.3891  -15.3899 C   0  0  0  0  0  0  0  0  0  0  0  0
    9.8233  -29.1694  -15.8671 N   0  0  0  0  0  0  0  0  0  0  0  0
    7.8462  -29.6847  -13.4550 N   0  0  0  0  0  0  0  0  0  0  0  0
    7.1444  -30.4429  -12.5738 C   0  0  0  0  0  0  0  0  0  0  0  0
    7.3626  -31.7548  -12.7795 N   0  0  0  0  0  0  0  0  0  0  0  0
  1  3  1  1  0  0  0
  1  5  2  0  0  0  0
  1  9  1  0  0  0  0
  1 18  1  0  0  0  0
  2  4  1  6  0  0  0
  2  6  2  0  0  0  0
  2 10  1  0  0  0  0
  2 17  1  0  0  0  0
  7  9  1  0  0  0  0
  8 10  1  0  0  0  0
 11  7  1  1  0  0  0
 11 13  1  0  0  0  0
 11 15  1  0  0  0  0
 12  8  1  6  0  0  0
 12 14  1  0  0  0  0
 12 16  1  0  0  0  0
 13 21  1  0  0  0  0
 14 22  1  0  0  0  0
 15 17  1  6  0  0  0
 15 19  1  0  0  0  0
 16 18  1  1  0  0  0
 16 20  1  0  0  0  0
 19 21  1  0  0  0  0
 20 22  1  0  0  0  0
 21 32  1  1  0  0  0
 22 42  1  6  0  0  0
 23 24  2  0  0  0  0
 23 28  1  0  0  0  0
 24 25  1  0  0  0  0
 25 26  2  0  0  0  0
 26 27  1  0  0  0  0
 26 32  1  0  0  0  0
 27 28  2  0  0  0  0
 27 30  1  0  0  0  0
 28 29  1  0  0  0  0
 30 31  2  0  0  0  0
 31 32  1  0  0  0  0
 33 34  2  0  0  0  0
 33 38  1  0  0  0  0
 34 35  1  0  0  0  0
 35 36  2  0  0  0  0
 36 37  1  0  0  0  0
 36 42  1  0  0  0  0
 37 38  2  0  0  0  0
 37 40  1  0  0  0  0
 38 39  1  0  0  0  0
 40 41  2  0  0  0  0
 41 42  1  0  0  0  0
M  CHG  2   3  -1   4  -1
M  END
>  <CHROM.1>
74.24351044,31.54010176,5.10068067,-34.69787491,-15.64748880,2.95185539,-0.71019279
-0.92839819

>  <Name>
ligand

>  <RI>
0

>  <Rbt.Current_Directory>
/home/itssahil/PROJECTS/Mol_Feturizer/New_Systems/rnas/4QLN

>  <Rbt.Executable>
rbdock ($Id: //depot/dev/client3/rdock/2013.1/src/exe/rbdock.cxx#4 $)

>  <Rbt.Library>
libRbt.so (2013.1, Build901 2013/11/27)

>  <Rbt.Parameter_File>
/export/apps/rDock/src/rDock_2013.1_src/data/scripts/dock_solv.prm

>  <Rbt.Receptor>
prm/pocket_docking_6.prm

>  <SCORE>
-24.0369

>  <SCORE.INTER>
-23.7806

>  <SCORE.INTER.CONST>
1

>  <SCORE.INTER.POLAR>
0

>  <SCORE.INTER.ROT>
2

>  <SCORE.INTER.SOLV>
25.7411

>  <SCORE.INTER.VDW>
-29.3674

>  <SCORE.INTER.norm>
-0.566204

>  <SCORE.INTRA>
-0.256358

>  <SCORE.INTRA.DIHEDRAL>
-0.000423183

>  <SCORE.INTRA.DIHEDRAL.0>
2.39985

>  <SCORE.INTRA.POLAR>
0

>  <SCORE.INTRA.POLAR.0>
0

>  <SCORE.INTRA.REPUL>
0

>  <SCORE.INTRA.REPUL.0>
0

>  <SCORE.INTRA.SOLV>
0.493226

>  <SCORE.INTRA.SOLV.lig_0>
-110.958

>  <SCORE.INTRA.VDW>
-0.50276

>  <SCORE.INTRA.VDW.0>
-2.34644

>  <SCORE.INTRA.norm>
-0.00610377

>  <SCORE.RESTR>
0

>  <SCORE.RESTR.CAVITY>
0

>  <SCORE.RESTR.norm>
0

>  <SCORE.SYSTEM>
0

>  <SCORE.SYSTEM.CONST>
0

>  <SCORE.SYSTEM.DIHEDRAL>
0

>  <SCORE.SYSTEM.SOLV>
0

>  <SCORE.SYSTEM.norm>
0

>  <SCORE.heavy>
42

>  <SCORE.norm>
-0.572308

>  <RMSD>
2.152

$$$$
ligand
 OpenBabel11021811513D
libRbt.so/2013.1/901 2013/11/27
 42 48  0  0  0  0  0  0  0  0999 V2000
    3.2981  -35.8739  -13.0473 P   0  0  2  0  0  0  0  0  0  0  0  0
    7.2668  -36.0699  -16.1658 P   0  0  1  0  0  0  0  0  0  0  0  0
    2.7533  -37.1651  -12.4827 O   0  5  0  0  0  0  0  0  0  0  0  0
    6.7805  -34.6575  -16.3869 O   0  5  0  0  0  0  0  0  0  0  0  0
    2.4760  -34.6100  -12.9650 O   0  0  0  0  0  0  0  0  0  0  0  0
    8.6177  -36.4931  -16.6907 O   0  0  0  0  0  0  0  0  0  0  0  0
    2.9300  -37.0300  -15.3893 C   0  0  0  0  0  0  0  0  0  0  0  0
    7.9840  -35.5914  -13.6738 C   0  0  0  0  0  0  0  0  0  0  0  0
    3.6867  -36.1230  -14.5894 O   0  0  0  0  0  0  0  0  0  0  0  0
    7.2207  -36.3775  -14.5860 O   0  0  0  0  0  0  0  0  0  0  0  0
    3.8355  -37.6523  -16.4455 C   0  0  1  0  0  0  0  0  0  0  0  0
    7.0913  -35.1260  -12.5303 C   0  0  1  0  0  0  0  0  0  0  0  0
    3.0456  -38.1225  -17.5412 O   0  0  0  0  0  0  0  0  0  0  0  0
    7.6466  -33.9524  -11.9318 O   0  0  0  0  0  0  0  0  0  0  0  0
    4.8268  -36.6371  -16.9886 C   0  0  1  0  0  0  0  0  0  0  0  0
    5.6961  -34.7794  -13.0252 C   0  0  1  0  0  0  0  0  0  0  0  0
    6.1595  -37.0812  -16.7534 O   0  0  0  0  0  0  0  0  0  0  0  0
    4.7285  -35.5905  -12.3657 O   0  0  0  0  0  0  0  0  0  0  0  0
    4.5671  -36.5391  -18.4805 C   0  0  0  0  0  0  0  0  0  0  0  0
    5.4699  -33.3191  -12.6842 C   0  0  0  0  0  0  0  0  0  0  0  0
    3.4253  -37.5013  -18.7721 C   0  0  2  0  0  0  0  0  0  0  0  0
    6.7421  -32.8469  -11.9949 C   0  0  2  0  0  0  0  0  0  0  0  0
    0.3709  -33.2473  -18.3818 N   0  0  0  0  0  0  0  0  0  0  0  0
    1.4197  -33.6341  -17.6325 C   0  0  0  0  0  0  0  0  0  0  0  0
    2.1179  -34.7638  -17.8503 N   0  0  0  0  0  0  0  0  0  0  0  0
    1.7924  -35.5971  -18.8675 C   0  0  0  0  0  0  0  0  0  0  0  0
    0.6564  -35.2428  -19.7329 C   0  0  0  0  0  0  0  0  0  0  0  0
   -0.0634  -33.9833  -19.4293 C   0  0  0  0  0  0  0  0  0  0  0  0
   -1.1201  -33.5828  -20.1767 N   0  0  0  0  0  0  0  0  0  0  0  0
    0.5505  -36.2243  -20.6483 N   0  0  0  0  0  0  0  0  0  0  0  0
    1.5311  -37.1277  -20.3926 C   0  0  0  0  0  0  0  0  0  0  0  0
    2.2716  -36.7539  -19.3313 N   0  0  0  0  0  0  0  0  0  0  0  0
    9.9594  -31.5446  -15.9352 N   0  0  0  0  0  0  0  0  0  0  0  0
    9.6085  -32.7563  -15.4661 C   0  0  0  0  0  0  0  0  0  0  0  0
    8.7632  -32.9431  -14.4364 N   0  0  0  0  0  0  0  0  0  0  0  0
    8.2030  -31.8874  -13.7978 C   0  0  0  0  0  0  0  0  0  0  0  0
    8.5374  -30.5291  -14.2529 C   0  0  0  0  0  0  0  0  0  0  0  0
    9.4758  -30.4061  -15.3933 C   0  0  0  0  0  0  0  0  0  0  0  0
    9.8364  -29.1913  -15.8754 N   0  0  0  0  0  0  0  0  0  0  0  0
    7.8555  -29.6802  -13.4608 N   0  0  0  0  0  0  0  0  0  0  0  0
    7.1476  -30.4290  -12.5764 C   0  0  0  0  0  0  0  0  0  0  0  0
    7.3546  -31.7435  -12.7770 N   0  0  0  0  0  0  0  0  0  0  0  0
  1  3  1  1  0  0  0
  1  5  2  0  0  0  0
  1  9  1  0  0  0  0
  1 18  1  0  0  0  0
  2  4  1  6  0  0  0
  2  6  2  0  0  0  0
  2 10  1  0  0  0  0
  2 17  1  0  0  0  0
  7  9  1  0  0  0  0
  8 10  1  0  0  0  0
 11  7  1  1  0  0  0
 11 13  1  0  0  0  0
 11 15  1  0  0  0  0
 12  8  1  6  0  0  0
 12 14  1  0  0  0  0
 12 16  1  0  0  0  0
 13 21  1  0  0  0  0
 14 22  1  0  0  0  0
 15 17  1  6  0  0  0
 15 19  1  0  0  0  0
 16 18  1  1  0  0  0
 16 20  1  0  0  0  0
 19 21  1  0  0  0  0
 20 22  1  0  0  0  0
 21 32  1  1  0  0  0
 22 42  1  6  0  0  0
 23 24  2  0  0  0  0
 23 28  1  0  0  0  0
 24 25  1  0  0  0  0
 25 26  2  0  0  0  0
 26 27  1  0  0  0  0
 26 32  1  0  0  0  0
 27 28  2  0  0  0  0
 27 30  1  0  0  0  0
 28 29  1  0  0  0  0
 30 31  2  0  0  0  0
 31 32  1  0  0  0  0
 33 34  2  0  0  0  0
 33 38  1  0  0  0  0
 34 35  1  0  0  0  0
 35 36  2  0  0  0  0
 36 37  1  0  0  0  0
 36 42  1  0  0  0  0
 37 38  2  0  0  0  0
 37 40  1  0  0  0  0
 38 39  1  0  0  0  0
 40 41  2  0  0  0  0
 41 42  1  0  0  0  0
M  CHG  2   3  -1   4  -1
M  END
>  <CHROM.1>
73.67873470,31.87225757,5.08572863,-34.69354226,-15.63500529,2.94142467,-0.70742323
-0.94406091

>  <Name>
ligand

>  <RI>
0

>  <Rbt.Current_Directory>
/home/itssahil/PROJECTS/Mol_Feturizer/New_Systems/rnas/4QLN

>  <Rbt.Executable>
rbdock ($Id: //depot/dev/client3/rdock/2013.1/src/exe/rbdock.cxx#4 $)

>  <Rbt.Library>
libRbt.so (2013.1, Build901 2013/11/27)

>  <Rbt.Parameter_File>
/export/apps/rDock/src/rDock_2013.1_src/data/scripts/dock_solv.prm

>  <Rbt.Receptor>
prm/pocket_docking_4.prm

>  <SCORE>
-24.0305

>  <SCORE.INTER>
-23.7541

>  <SCORE.INTER.CONST>
1

>  <SCORE.INTER.POLAR>
0

>  <SCORE.INTER.ROT>
2

>  <SCORE.INTER.SOLV>
25.6991

>  <SCORE.INTER.VDW>
-29.3358

>  <SCORE.INTER.norm>
-0.565575

>  <SCORE.INTRA>
-0.276389

>  <SCORE.INTRA.DIHEDRAL>
-0.000427785

>  <SCORE.INTRA.DIHEDRAL.0>
2.39985

>  <SCORE.INTRA.POLAR>
0

>  <SCORE.INTRA.POLAR.0>
0

>  <SCORE.INTRA.REPUL>
0

>  <SCORE.INTRA.REPUL.0>
0

>  <SCORE.INTRA.SOLV>
0.510081

>  <SCORE.INTRA.SOLV.lig_0>
-110.958

>  <SCORE.INTRA.VDW>
-0.531216

>  <SCORE.INTRA.VDW.0>
-2.34644

>  <SCORE.INTRA.norm>
-0.00658069

>  <SCORE.RESTR>
0

>  <SCORE.RESTR.CAVITY>
0

>  <SCORE.RESTR.norm>
0

>  <SCORE.SYSTEM>
0

>  <SCORE.SYSTEM.CONST>
0

>  <SCORE.SYSTEM.DIHEDRAL>
0

>  <SCORE.SYSTEM.SOLV>
0

>  <SCORE.SYSTEM.norm>
0

>  <SCORE.heavy>
42

>  <SCORE.norm>
-0.572155

>  <RMSD>
2.157

$$$$
ligand
 OpenBabel11021811513D
libRbt.so/2013.1/901 2013/11/27
 42 48  0  0  0  0  0  0  0  0999 V2000
    3.2898  -35.8879  -13.0578 P   0  0  2  0  0  0  0  0  0  0  0  0
    7.2639  -36.0516  -16.1714 P   0  0  1  0  0  0  0  0  0  0  0  0
    2.7508  -37.1842  -12.4990 O   0  5  0  0  0  0  0  0  0  0  0  0
    6.7706  -34.6408  -16.3877 O   0  5  0  0  0  0  0  0  0  0  0  0
    2.4612  -34.6286  -12.9717 O   0  0  0  0  0  0  0  0  0  0  0  0
    8.6176  -36.4657  -16.6961 O   0  0  0  0  0  0  0  0  0  0  0  0
    2.9309  -37.0367  -15.4048 C   0  0  0  0  0  0  0  0  0  0  0  0
    7.9750  -35.5792  -13.6765 C   0  0  0  0  0  0  0  0  0  0  0  0
    3.6818  -36.1291  -14.6002 O   0  0  0  0  0  0  0  0  0  0  0  0
    7.2171  -36.3656  -14.5929 O   0  0  0  0  0  0  0  0  0  0  0  0
    3.8410  -37.6503  -16.4621 C   0  0  1  0  0  0  0  0  0  0  0  0
    7.0785  -35.1228  -12.5325 C   0  0  1  0  0  0  0  0  0  0  0  0
    3.0550  -38.1202  -17.5608 O   0  0  0  0  0  0  0  0  0  0  0  0
    7.6269  -33.9487  -11.9286 O   0  0  0  0  0  0  0  0  0  0  0  0
    4.8278  -36.6279  -16.9999 C   0  0  1  0  0  0  0  0  0  0  0  0
    5.6822  -34.7813  -13.0279 C   0  0  1  0  0  0  0  0  0  0  0  0
    6.1625  -37.0661  -16.7645 O   0  0  0  0  0  0  0  0  0  0  0  0
    4.7178  -35.6000  -12.3730 O   0  0  0  0  0  0  0  0  0  0  0  0
    4.5698  -36.5253  -18.4917 C   0  0  0  0  0  0  0  0  0  0  0  0
    5.4481  -33.3236  -12.6816 C   0  0  0  0  0  0  0  0  0  0  0  0
    3.4332  -37.4922  -18.7887 C   0  0  2  0  0  0  0  0  0  0  0  0
    6.7169  -32.8476  -11.9887 C   0  0  2  0  0  0  0  0  0  0  0  0
    0.3689  -33.2454  -18.3981 N   0  0  0  0  0  0  0  0  0  0  0  0
    1.4203  -33.6285  -17.6504 C   0  0  0  0  0  0  0  0  0  0  0  0
    2.1208  -34.7568  -17.8680 N   0  0  0  0  0  0  0  0  0  0  0  0
    1.7953  -35.5922  -18.8834 C   0  0  0  0  0  0  0  0  0  0  0  0
    0.6568  -35.2421  -19.7470 C   0  0  0  0  0  0  0  0  0  0  0  0
   -0.0657  -33.9839  -19.4436 C   0  0  0  0  0  0  0  0  0  0  0  0
   -1.1249  -33.5871  -20.1895 N   0  0  0  0  0  0  0  0  0  0  0  0
    0.5515  -36.2251  -20.6608 N   0  0  0  0  0  0  0  0  0  0  0  0
    1.5349  -37.1257  -20.4059 C   0  0  0  0  0  0  0  0  0  0  0  0
    2.2766  -36.7485  -19.3466 N   0  0  0  0  0  0  0  0  0  0  0  0
    9.9402  -31.5133  -15.9132 N   0  0  0  0  0  0  0  0  0  0  0  0
    9.5958  -32.7285  -15.4486 C   0  0  0  0  0  0  0  0  0  0  0  0
    8.7478  -32.9237  -14.4226 N   0  0  0  0  0  0  0  0  0  0  0  0
    8.1781  -31.8736  -13.7835 C   0  0  0  0  0  0  0  0  0  0  0  0
    8.5049  -30.5118  -14.2337 C   0  0  0  0  0  0  0  0  0  0  0  0
    9.4469  -30.3795  -15.3702 C   0  0  0  0  0  0  0  0  0  0  0  0
    9.8010  -29.1611  -15.8478 N   0  0  0  0  0  0  0  0  0  0  0  0
    7.8143  -29.6697  -13.4420 N   0  0  0  0  0  0  0  0  0  0  0  0
    7.1081  -30.4256  -12.5623 C   0  0  0  0  0  0  0  0  0  0  0  0
    7.3248  -31.7381  -12.7655 N   0  0  0  0  0  0  0  0  0  0  0  0
  1  3  1  1  0  0  0
  1  5  2  0  0  0  0
  1  9  1  0  0  0  0
  1 18  1  0  0  0  0
  2  4  1  6  0  0  0
  2  6  2  0  0  0  0
  2 10  1  0  0  0  0
  2 17  1  0  0  0  0
  7  9  1  0  0  0  0
  8 10  1  0  0  0  0
 11  7  1  1  0  0  0
 11 13  1  0  0  0  0
 11 15  1  0  0  0  0
 12  8  1  6  0  0  0
 12 14  1  0  0  0  0
 12 16  1  0  0  0  0
 13 21  1  0  0  0  0
 14 22  1  0  0  0  0
 15 17  1  6  0  0  0
 15 19  1  0  0  0  0
 16 18  1  1  0  0  0
 16 20  1  0  0  0  0
 19 21  1  0  0  0  0
 20 22  1  0  0  0  0
 21 32  1  1  0  0  0
 22 42  1  6  0  0  0
 23 24  2  0  0  0  0
 23 28  1  0  0  0  0
 24 25  1  0  0  0  0
 25 26  2  0  0  0  0
 26 27  1  0  0  0  0
 26 32  1  0  0  0  0
 27 28  2  0  0  0  0
 27 30  1  0  0  0  0
 28 29  1  0  0  0  0
 30 31  2  0  0  0  0
 31 32  1  0  0  0  0
 33 34  2  0  0  0  0
 33 38  1  0  0  0  0
 34 35  1  0  0  0  0
 35 36  2  0  0  0  0
 36 37  1  0  0  0  0
 36 42  1  0  0  0  0
 37 38  2  0  0  0  0
 37 40  1  0  0  0  0
 38 39  1  0  0  0  0
 40 41  2  0  0  0  0
 41 42  1  0  0  0  0
M  CHG  2   3  -1   4  -1
M  END
>  <CHROM.1>
74.06929893,31.68691963,5.07661073,-34.68754128,-15.63876922,2.94516065,-0.71295901
-0.93592485

>  <Name>
ligand

>  <RI>
0

>  <Rbt.Current_Directory>
/home/itssahil/PROJECTS/Mol_Feturizer/New_Systems/rnas/4QLN

>  <Rbt.Executable>
rbdock ($Id: //depot/dev/client3/rdock/2013.1/src/exe/rbdock.cxx#4 $)

>  <Rbt.Library>
libRbt.so (2013.1, Build901 2013/11/27)

>  <Rbt.Parameter_File>
/export/apps/rDock/src/rDock_2013.1_src/data/scripts/dock_solv.prm

>  <Rbt.Receptor>
prm/pocket_docking_4.prm

>  <SCORE>
-24.0314

>  <SCORE.INTER>
-23.7689

>  <SCORE.INTER.CONST>
1

>  <SCORE.INTER.POLAR>
0

>  <SCORE.INTER.ROT>
2

>  <SCORE.INTER.SOLV>
25.6306

>  <SCORE.INTER.VDW>
-29.3228

>  <SCORE.INTER.norm>
-0.565926

>  <SCORE.INTRA>
-0.262514

>  <SCORE.INTRA.DIHEDRAL>
-0.000424459

>  <SCORE.INTRA.DIHEDRAL.0>
2.39985

>  <SCORE.INTRA.POLAR>
0

>  <SCORE.INTRA.POLAR.0>
0

>  <SCORE.INTRA.REPUL>
0

>  <SCORE.INTRA.REPUL.0>
0

>  <SCORE.INTRA.SOLV>
0.500638

>  <SCORE.INTRA.SOLV.lig_0>
-110.958

>  <SCORE.INTRA.VDW>
-0.512621

>  <SCORE.INTRA.VDW.0>
-2.34644

>  <SCORE.INTRA.norm>
-0.00625033

>  <SCORE.RESTR>
0

>  <SCORE.RESTR.CAVITY>
0

>  <SCORE.RESTR.norm>
0

>  <SCORE.SYSTEM>
0

>  <SCORE.SYSTEM.CONST>
0

>  <SCORE.SYSTEM.DIHEDRAL>
0

>  <SCORE.SYSTEM.SOLV>
0

>  <SCORE.SYSTEM.norm>
0

>  <SCORE.heavy>
42

>  <SCORE.norm>
-0.572176

>  <RMSD>
2.158

$$$$
ligand
 OpenBabel11021811513D
libRbt.so/2013.1/901 2013/11/27
 42 48  0  0  0  0  0  0  0  0999 V2000
    3.0094  -36.0506  -13.0742 P   0  0  2  0  0  0  0  0  0  0  0  0
    6.9771  -36.2598  -16.1931 P   0  0  1  0  0  0  0  0  0  0  0  0
    2.4507  -37.3412  -12.5217 O   0  5  0  0  0  0  0  0  0  0  0  0
    6.5057  -34.8403  -16.4013 O   0  5  0  0  0  0  0  0  0  0  0  0
    2.2006  -34.7789  -12.9805 O   0  0  0  0  0  0  0  0  0  0  0  0
    8.3237  -36.6923  -16.7215 O   0  0  0  0  0  0  0  0  0  0  0  0
    2.6301  -37.1811  -15.4268 C   0  0  0  0  0  0  0  0  0  0  0  0
    7.6982  -35.8119  -13.6966 C   0  0  0  0  0  0  0  0  0  0  0  0
    3.3959  -36.2896  -14.6183 O   0  0  0  0  0  0  0  0  0  0  0  0
    6.9270  -36.5814  -14.6162 O   0  0  0  0  0  0  0  0  0  0  0  0
    3.5293  -37.8032  -16.4885 C   0  0  1  0  0  0  0  0  0  0  0  0
    6.8100  -35.3476  -12.5491 C   0  0  1  0  0  0  0  0  0  0  0  0
    2.7349  -38.2549  -17.5887 O   0  0  0  0  0  0  0  0  0  0  0  0
    7.3774  -34.1855  -11.9396 O   0  0  0  0  0  0  0  0  0  0  0  0
    4.5315  -36.7935  -17.0219 C   0  0  1  0  0  0  0  0  0  0  0  0
    5.4188  -34.9817  -13.0412 C   0  0  1  0  0  0  0  0  0  0  0  0
    5.8594  -37.2538  -16.7903 O   0  0  0  0  0  0  0  0  0  0  0  0
    4.4424  -35.7886  -12.3895 O   0  0  0  0  0  0  0  0  0  0  0  0
    4.2735  -36.6790  -18.5128 C   0  0  0  0  0  0  0  0  0  0  0  0
    5.2078  -33.5224  -12.6868 C   0  0  0  0  0  0  0  0  0  0  0  0
    3.1217  -37.6264  -18.8137 C   0  0  2  0  0  0  0  0  0  0  0  0
    6.4847  -33.0700  -11.9928 C   0  0  2  0  0  0  0  0  0  0  0  0
    0.1292  -33.3306  -18.4016 N   0  0  0  0  0  0  0  0  0  0  0  0
    1.1758  -33.7337  -17.6577 C   0  0  0  0  0  0  0  0  0  0  0  0
    1.8570  -34.8726  -17.8808 N   0  0  0  0  0  0  0  0  0  0  0  0
    1.5153  -35.6992  -18.8981 C   0  0  0  0  0  0  0  0  0  0  0  0
    0.3807  -35.3273  -19.7579 C   0  0  0  0  0  0  0  0  0  0  0  0
   -0.3201  -34.0583  -19.4486 C   0  0  0  0  0  0  0  0  0  0  0  0
   -1.3743  -33.6415  -20.1905 N   0  0  0  0  0  0  0  0  0  0  0  0
    0.2569  -36.3053  -20.6746 N   0  0  0  0  0  0  0  0  0  0  0  0
    1.2259  -37.2230  -20.4250 C   0  0  0  0  0  0  0  0  0  0  0  0
    1.9762  -36.8617  -19.3664 N   0  0  0  0  0  0  0  0  0  0  0  0
   10.9627  -30.7894  -13.5156 N   0  0  0  0  0  0  0  0  0  0  0  0
   10.7599  -31.8759  -12.7475 C   0  0  0  0  0  0  0  0  0  0  0  0
    9.5418  -32.3534  -12.4348 N   0  0  0  0  0  0  0  0  0  0  0  0
    8.4199  -31.7462  -12.8916 C   0  0  0  0  0  0  0  0  0  0  0  0
    8.5591  -30.5514  -13.7385 C   0  0  0  0  0  0  0  0  0  0  0  0
    9.9343  -30.0875  -14.0383 C   0  0  0  0  0  0  0  0  0  0  0  0
   10.1516  -28.9951  -14.8113 N   0  0  0  0  0  0  0  0  0  0  0  0
    7.3109  -30.1541  -14.0498 N   0  0  0  0  0  0  0  0  0  0  0  0
    6.4487  -31.0178  -13.4544 C   0  0  0  0  0  0  0  0  0  0  0  0
    7.1091  -31.9660  -12.7645 N   0  0  0  0  0  0  0  0  0  0  0  0
  1  3  1  1  0  0  0
  1  5  2  0  0  0  0
  1  9  1  0  0  0  0
  1 18  1  0  0  0  0
  2  4  1  6  0  0  0
  2  6  2  0  0  0  0
  2 10  1  0  0  0  0
  2 17  1  0  0  0  0
  7  9  1  0  0  0  0
  8 10  1  0  0  0  0
 11  7  1  1  0  0  0
 11 13  1  0  0  0  0
 11 15  1  0  0  0  0
 12  8  1  6  0  0  0
 12 14  1  0  0  0  0
 12 16  1  0  0  0  0
 13 21  1  0  0  0  0
 14 22  1  0  0  0  0
 15 17  1  6  0  0  0
 15 19  1  0  0  0  0
 16 18  1  1  0  0  0
 16 20  1  0  0  0  0
 19 21  1  0  0  0  0
 20 22  1  0  0  0  0
 21 32  1  1  0  0  0
 22 42  1  6  0  0  0
 23 24  2  0  0  0  0
 23 28  1  0  0  0  0
 24 25  1  0  0  0  0
 25 26  2  0  0  0  0
 26 27  1  0  0  0  0
 26 32  1  0  0  0  0
 27 28  2  0  0  0  0
 27 30  1  0  0  0  0
 28 29  1  0  0  0  0
 30 31  2  0  0  0  0
 31 32  1  0  0  0  0
 33 34  2  0  0  0  0
 33 38  1  0  0  0  0
 34 35  1  0  0  0  0
 35 36  2  0  0  0  0
 36 37  1  0  0  0  0
 36 42  1  0  0  0  0
 37 38  2  0  0  0  0
 37 40  1  0  0  0  0
 38 39  1  0  0  0  0
 40 41  2  0  0  0  0
 41 42  1  0  0  0  0
M  CHG  2   3  -1   4  -1
M  END
>  <CHROM.1>
74.21507489,-27.40208766,4.91416681,-34.78410465,-15.45412469,-3.13376872
-0.74056118,-0.62359688

>  <Name>
ligand

>  <RI>
0

>  <Rbt.Current_Directory>
/home/itssahil/PROJECTS/Mol_Feturizer/New_Systems/rnas/4QLN

>  <Rbt.Executable>
rbdock ($Id: //depot/dev/client3/rdock/2013.1/src/exe/rbdock.cxx#4 $)

>  <Rbt.Library>
libRbt.so (2013.1, Build901 2013/11/27)

>  <Rbt.Parameter_File>
/export/apps/rDock/src/rDock_2013.1_src/data/scripts/dock_solv.prm

>  <Rbt.Receptor>
prm/pocket_docking_5.prm

>  <SCORE>
-22.191

>  <SCORE.INTER>
-23.1255

>  <SCORE.INTER.CONST>
1

>  <SCORE.INTER.POLAR>
0

>  <SCORE.INTER.ROT>
2

>  <SCORE.INTER.SOLV>
27.2327

>  <SCORE.INTER.VDW>
-29.4279

>  <SCORE.INTER.norm>
-0.550608

>  <SCORE.INTRA>
0.865109

>  <SCORE.INTRA.DIHEDRAL>
0.00107222

>  <SCORE.INTRA.DIHEDRAL.0>
2.39985

>  <SCORE.INTRA.POLAR>
0

>  <SCORE.INTRA.POLAR.0>
0

>  <SCORE.INTRA.REPUL>
0

>  <SCORE.INTRA.REPUL.0>
0

>  <SCORE.INTRA.SOLV>
-0.0469671

>  <SCORE.INTRA.SOLV.lig_0>
-110.958

>  <SCORE.INTRA.VDW>
0.888057

>  <SCORE.INTRA.VDW.0>
-2.34644

>  <SCORE.INTRA.norm>
0.0205978

>  <SCORE.RESTR>
0.0693874

>  <SCORE.RESTR.CAVITY>
0.0693874

>  <SCORE.RESTR.norm>
0.00165208

>  <SCORE.SYSTEM>
0

>  <SCORE.SYSTEM.CONST>
0

>  <SCORE.SYSTEM.DIHEDRAL>
0

>  <SCORE.SYSTEM.SOLV>
0

>  <SCORE.SYSTEM.norm>
0

>  <SCORE.heavy>
42

>  <SCORE.norm>
-0.528358

>  <RMSD>
2.158

$$$$
ligand
 OpenBabel11021811513D
libRbt.so/2013.1/901 2013/11/27
 42 48  0  0  0  0  0  0  0  0999 V2000
    3.2878  -35.8786  -13.0594 P   0  0  2  0  0  0  0  0  0  0  0  0
    7.2563  -36.0640  -16.1789 P   0  0  1  0  0  0  0  0  0  0  0  0
    2.7451  -37.1715  -12.4966 O   0  5  0  0  0  0  0  0  0  0  0  0
    6.7677  -34.6521  -16.3979 O   0  5  0  0  0  0  0  0  0  0  0  0
    2.4637  -34.6162  -12.9752 O   0  0  0  0  0  0  0  0  0  0  0  0
    8.6078  -36.4843  -16.7046 O   0  0  0  0  0  0  0  0  0  0  0  0
    2.9212  -37.0321  -15.4030 C   0  0  0  0  0  0  0  0  0  0  0  0
    7.9731  -35.5879  -13.6863 C   0  0  0  0  0  0  0  0  0  0  0  0
    3.6765  -36.1250  -14.6019 O   0  0  0  0  0  0  0  0  0  0  0  0
    7.2109  -36.3739  -14.5995 O   0  0  0  0  0  0  0  0  0  0  0  0
    3.8274  -37.6514  -16.4602 C   0  0  1  0  0  0  0  0  0  0  0  0
    7.0799  -35.1255  -12.5420 C   0  0  1  0  0  0  0  0  0  0  0  0
    3.0381  -38.1214  -17.5564 O   0  0  0  0  0  0  0  0  0  0  0  0
    7.6334  -33.9518  -11.9419 O   0  0  0  0  0  0  0  0  0  0  0  0
    4.8170  -36.6339  -17.0021 C   0  0  1  0  0  0  0  0  0  0  0  0
    5.6841  -34.7804  -13.0361 C   0  0  1  0  0  0  0  0  0  0  0  0
    6.1505  -37.0762  -16.7676 O   0  0  0  0  0  0  0  0  0  0  0  0
    4.7178  -35.5940  -12.3776 O   0  0  0  0  0  0  0  0  0  0  0  0
    4.5570  -36.5342  -18.4937 C   0  0  0  0  0  0  0  0  0  0  0  0
    5.4556  -33.3210  -12.6931 C   0  0  0  0  0  0  0  0  0  0  0  0
    3.4166  -37.4978  -18.7865 C   0  0  2  0  0  0  0  0  0  0  0  0
    6.7272  -32.8477  -12.0034 C   0  0  2  0  0  0  0  0  0  0  0  0
    0.3769  -33.2320  -18.4109 N   0  0  0  0  0  0  0  0  0  0  0  0
    1.4292  -33.6160  -17.6650 C   0  0  0  0  0  0  0  0  0  0  0  0
    2.1228  -34.7494  -17.8782 N   0  0  0  0  0  0  0  0  0  0  0  0
    1.7886  -35.5896  -18.8868 C   0  0  0  0  0  0  0  0  0  0  0  0
    0.6484  -35.2389  -19.7480 C   0  0  0  0  0  0  0  0  0  0  0  0
   -0.0660  -33.9749  -19.4499 C   0  0  0  0  0  0  0  0  0  0  0  0
   -1.1261  -33.5771  -20.1939 N   0  0  0  0  0  0  0  0  0  0  0  0
    0.5340  -36.2271  -20.6550 N   0  0  0  0  0  0  0  0  0  0  0  0
    1.5136  -37.1314  -20.3983 C   0  0  0  0  0  0  0  0  0  0  0  0
    2.2617  -36.7514  -19.3445 N   0  0  0  0  0  0  0  0  0  0  0  0
    9.9526  -31.5344  -15.9333 N   0  0  0  0  0  0  0  0  0  0  0  0
    9.6051  -32.7473  -15.4646 C   0  0  0  0  0  0  0  0  0  0  0  0
    8.7570  -32.9370  -14.4378 N   0  0  0  0  0  0  0  0  0  0  0  0
    8.1903  -31.8833  -13.8018 C   0  0  0  0  0  0  0  0  0  0  0  0
    8.5206  -30.5238  -14.2565 C   0  0  0  0  0  0  0  0  0  0  0  0
    9.4625  -30.3976  -15.3937 C   0  0  0  0  0  0  0  0  0  0  0  0
    9.8197  -29.1816  -15.8753 N   0  0  0  0  0  0  0  0  0  0  0  0
    7.8325  -29.6773  -13.4672 N   0  0  0  0  0  0  0  0  0  0  0  0
    7.1246  -30.4285  -12.5849 C   0  0  0  0  0  0  0  0  0  0  0  0
    7.3378  -31.7423  -12.7839 N   0  0  0  0  0  0  0  0  0  0  0  0
  1  3  1  1  0  0  0
  1  5  2  0  0  0  0
  1  9  1  0  0  0  0
  1 18  1  0  0  0  0
  2  4  1  6  0  0  0
  2  6  2  0  0  0  0
  2 10  1  0  0  0  0
  2 17  1  0  0  0  0
  7  9  1  0  0  0  0
  8 10  1  0  0  0  0
 11  7  1  1  0  0  0
 11 13  1  0  0  0  0
 11 15  1  0  0  0  0
 12  8  1  6  0  0  0
 12 14  1  0  0  0  0
 12 16  1  0  0  0  0
 13 21  1  0  0  0  0
 14 22  1  0  0  0  0
 15 17  1  6  0  0  0
 15 19  1  0  0  0  0
 16 18  1  1  0  0  0
 16 20  1  0  0  0  0
 19 21  1  0  0  0  0
 20 22  1  0  0  0  0
 21 32  1  1  0  0  0
 22 42  1  6  0  0  0
 23 24  2  0  0  0  0
 23 28  1  0  0  0  0
 24 25  1  0  0  0  0
 25 26  2  0  0  0  0
 26 27  1  0  0  0  0
 26 32  1  0  0  0  0
 27 28  2  0  0  0  0
 27 30  1  0  0  0  0
 28 29  1  0  0  0  0
 30 31  2  0  0  0  0
 31 32  1  0  0  0  0
 33 34  2  0  0  0  0
 33 38  1  0  0  0  0
 34 35  1  0  0  0  0
 35 36  2  0  0  0  0
 36 37  1  0  0  0  0
 36 42  1  0  0  0  0
 37 38  2  0  0  0  0
 37 40  1  0  0  0  0
 38 39  1  0  0  0  0
 40 41  2  0  0  0  0
 41 42  1  0  0  0  0
M  CHG  2   3  -1   4  -1
M  END
>  <CHROM.1>
74.35940386,31.59363981,5.07576968,-34.69040098,-15.64674067,2.94498180,-0.70967919
-0.93725304

>  <Name>
ligand

>  <RI>
0

>  <Rbt.Current_Directory>
/home/itssahil/PROJECTS/Mol_Feturizer/New_Systems/rnas/4QLN

>  <Rbt.Executable>
rbdock ($Id: //depot/dev/client3/rdock/2013.1/src/exe/rbdock.cxx#4 $)

>  <Rbt.Library>
libRbt.so (2013.1, Build901 2013/11/27)

>  <Rbt.Parameter_File>
/export/apps/rDock/src/rDock_2013.1_src/data/scripts/dock_solv.prm

>  <Rbt.Receptor>
prm/pocket_docking_4.prm

>  <SCORE>
-24.02

>  <SCORE.INTER>
-23.768

>  <SCORE.INTER.CONST>
1

>  <SCORE.INTER.POLAR>
0

>  <SCORE.INTER.ROT>
2

>  <SCORE.INTER.SOLV>
25.7511

>  <SCORE.INTER.VDW>
-29.3624

>  <SCORE.INTER.norm>
-0.565905

>  <SCORE.INTRA>
-0.25201

>  <SCORE.INTRA.DIHEDRAL>
-0.000421849

>  <SCORE.INTRA.DIHEDRAL.0>
2.39985

>  <SCORE.INTRA.POLAR>
0

>  <SCORE.INTRA.POLAR.0>
0

>  <SCORE.INTRA.REPUL>
0

>  <SCORE.INTRA.REPUL.0>
0

>  <SCORE.INTRA.SOLV>
0.495795

>  <SCORE.INTRA.SOLV.lig_0>
-110.958

>  <SCORE.INTRA.VDW>
-0.499697

>  <SCORE.INTRA.VDW.0>
-2.34644

>  <SCORE.INTRA.norm>
-0.00600024

>  <SCORE.RESTR>
0

>  <SCORE.RESTR.CAVITY>
0

>  <SCORE.RESTR.norm>
0

>  <SCORE.SYSTEM>
0

>  <SCORE.SYSTEM.CONST>
0

>  <SCORE.SYSTEM.DIHEDRAL>
0

>  <SCORE.SYSTEM.SOLV>
0

>  <SCORE.SYSTEM.norm>
0

>  <SCORE.heavy>
42

>  <SCORE.norm>
-0.571906

>  <RMSD>
2.161

$$$$
ligand
 OpenBabel11021811513D
libRbt.so/2013.1/901 2013/11/27
 42 48  0  0  0  0  0  0  0  0999 V2000
    8.7754  -35.2239  -15.9497 P   0  0  2  0  0  0  0  0  0  0  0  0
    4.9123  -33.9943  -12.9366 P   0  0  1  0  0  0  0  0  0  0  0  0
    9.9862  -35.8930  -15.3421 O   0  5  0  0  0  0  0  0  0  0  0  0
    4.5804  -33.2121  -14.1850 O   0  5  0  0  0  0  0  0  0  0  0  0
    8.8599  -34.6283  -17.3346 O   0  0  0  0  0  0  0  0  0  0  0  0
    3.8776  -34.1523  -11.8485 O   0  0  0  0  0  0  0  0  0  0  0  0
    9.2095  -33.3522  -14.1426 C   0  0  0  0  0  0  0  0  0  0  0  0
    4.5480  -36.3228  -14.1192 C   0  0  0  0  0  0  0  0  0  0  0  0
    8.2730  -34.0774  -14.9377 O   0  0  0  0  0  0  0  0  0  0  0  0
    5.4084  -35.4612  -13.3777 O   0  0  0  0  0  0  0  0  0  0  0  0
    8.5483  -32.9335  -12.8348 C   0  0  1  0  0  0  0  0  0  0  0  0
    5.2930  -36.8685  -15.3309 C   0  0  1  0  0  0  0  0  0  0  0  0
    9.2392  -31.8090  -12.2838 O   0  0  0  0  0  0  0  0  0  0  0  0
    4.3558  -37.2644  -16.3353 O   0  0  0  0  0  0  0  0  0  0  0  0
    7.1007  -32.5281  -13.0546 C   0  0  1  0  0  0  0  0  0  0  0  0
    6.2066  -35.8153  -15.9374 C   0  0  1  0  0  0  0  0  0  0  0  0
    6.2382  -33.3569  -12.2812 O   0  0  0  0  0  0  0  0  0  0  0  0
    7.5553  -36.2735  -15.9255 O   0  0  0  0  0  0  0  0  0  0  0  0
    6.9843  -31.0862  -12.5966 C   0  0  0  0  0  0  0  0  0  0  0  0
    5.7391  -35.6121  -17.3656 C   0  0  0  0  0  0  0  0  0  0  0  0
    8.3723  -30.6833  -12.1210 C   0  0  2  0  0  0  0  0  0  0  0  0
    4.5606  -36.5556  -17.5599 C   0  0  2  0  0  0  0  0  0  0  0  0
    8.7341  -28.5723  -16.9159 N   0  0  0  0  0  0  0  0  0  0  0  0
    8.1585  -29.7207  -16.5146 C   0  0  0  0  0  0  0  0  0  0  0  0
    8.1420  -30.1419  -15.2366 N   0  0  0  0  0  0  0  0  0  0  0  0
    8.7212  -29.4090  -14.2555 C   0  0  0  0  0  0  0  0  0  0  0  0
    9.3717  -28.1392  -14.6148 C   0  0  0  0  0  0  0  0  0  0  0  0
    9.3491  -27.7432  -16.0430 C   0  0  0  0  0  0  0  0  0  0  0  0
    9.9242  -26.5893  -16.4591 N   0  0  0  0  0  0  0  0  0  0  0  0
    9.8587  -27.6205  -13.4719 N   0  0  0  0  0  0  0  0  0  0  0  0
    9.5483  -28.4812  -12.4689 C   0  0  0  0  0  0  0  0  0  0  0  0
    8.8701  -29.5472  -12.9357 N   0  0  0  0  0  0  0  0  0  0  0  0
    0.2461  -36.2458  -20.5368 N   0  0  0  0  0  0  0  0  0  0  0  0
    1.2106  -37.1838  -20.5020 C   0  0  0  0  0  0  0  0  0  0  0  0
    2.2726  -37.1338  -19.6778 N   0  0  0  0  0  0  0  0  0  0  0  0
    2.4314  -36.1038  -18.8119 C   0  0  0  0  0  0  0  0  0  0  0  0
    1.4177  -35.0379  -18.7898 C   0  0  0  0  0  0  0  0  0  0  0  0
    0.2774  -35.1649  -19.7278 C   0  0  0  0  0  0  0  0  0  0  0  0
   -0.7007  -34.2271  -19.7718 N   0  0  0  0  0  0  0  0  0  0  0  0
    1.8113  -34.1533  -17.8542 N   0  0  0  0  0  0  0  0  0  0  0  0
    2.9744  -34.6121  -17.3244 C   0  0  0  0  0  0  0  0  0  0  0  0
    3.3438  -35.7736  -17.8948 N   0  0  0  0  0  0  0  0  0  0  0  0
  1  3  1  1  0  0  0
  1  5  2  0  0  0  0
  1  9  1  0  0  0  0
  1 18  1  0  0  0  0
  2  4  1  6  0  0  0
  2  6  2  0  0  0  0
  2 10  1  0  0  0  0
  2 17  1  0  0  0  0
  7  9  1  0  0  0  0
  8 10  1  0  0  0  0
 11  7  1  6  0  0  0
 11 13  1  0  0  0  0
 11 15  1  0  0  0  0
 12  8  1  1  0  0  0
 12 14  1  0  0  0  0
 12 16  1  0  0  0  0
 13 21  1  0  0  0  0
 14 22  1  0  0  0  0
 15 17  1  1  0  0  0
 15 19  1  0  0  0  0
 16 18  1  6  0  0  0
 16 20  1  0  0  0  0
 19 21  1  0  0  0  0
 20 22  1  0  0  0  0
 21 32  1  6  0  0  0
 22 42  1  1  0  0  0
 23 24  2  0  0  0  0
 23 28  1  0  0  0  0
 24 25  1  0  0  0  0
 25 26  2  0  0  0  0
 26 27  1  0  0  0  0
 26 32  1  0  0  0  0
 27 28  2  0  0  0  0
 27 30  1  0  0  0  0
 28 29  1  0  0  0  0
 30 31  2  0  0  0  0
 31 32  1  0  0  0  0
 33 34  2  0  0  0  0
 33 38  1  0  0  0  0
 34 35  1  0  0  0  0
 35 36  2  0  0  0  0
 36 37  1  0  0  0  0
 36 42  1  0  0  0  0
 37 38  2  0  0  0  0
 37 40  1  0  0  0  0
 38 39  1  0  0  0  0
 40 41  2  0  0  0  0
 41 42  1  0  0  0  0
M  CHG  2   3  -1   4  -1
M  END
>  <CHROM.1>
77.89299352,-102.92400305,6.14703849,-33.44497707,-15.52016905,-0.37193560
0.77417668,2.70334628

>  <Name>
ligand

>  <RI>
0

>  <Rbt.Current_Directory>
/home/itssahil/PROJECTS/Mol_Feturizer/New_Systems/rnas/4QLN

>  <Rbt.Executable>
rbdock ($Id: //depot/dev/client3/rdock/2013.1/src/exe/rbdock.cxx#4 $)

>  <Rbt.Library>
libRbt.so (2013.1, Build901 2013/11/27)

>  <Rbt.Parameter_File>
/export/apps/rDock/src/rDock_2013.1_src/data/scripts/dock_solv.prm

>  <Rbt.Receptor>
prm/pocket_docking_5.prm

>  <SCORE>
-32.0866

>  <SCORE.INTER>
-32.878

>  <SCORE.INTER.CONST>
1

>  <SCORE.INTER.POLAR>
0

>  <SCORE.INTER.ROT>
2

>  <SCORE.INTER.SOLV>
30.2185

>  <SCORE.INTER.VDW>
-36.9248

>  <SCORE.INTER.norm>
-0.782809

>  <SCORE.INTRA>
0.791382

>  <SCORE.INTRA.DIHEDRAL>
-0.000226202

>  <SCORE.INTRA.DIHEDRAL.0>
2.39985

>  <SCORE.INTRA.POLAR>
0

>  <SCORE.INTRA.POLAR.0>
0

>  <SCORE.INTRA.REPUL>
0

>  <SCORE.INTRA.REPUL.0>
0

>  <SCORE.INTRA.SOLV>
-0.0200034

>  <SCORE.INTRA.SOLV.lig_0>
-110.958

>  <SCORE.INTRA.VDW>
0.801497

>  <SCORE.INTRA.VDW.0>
-2.34644

>  <SCORE.INTRA.norm>
0.0188424

>  <SCORE.RESTR>
0

>  <SCORE.RESTR.CAVITY>
0

>  <SCORE.RESTR.norm>
0

>  <SCORE.SYSTEM>
0

>  <SCORE.SYSTEM.CONST>
0

>  <SCORE.SYSTEM.DIHEDRAL>
0

>  <SCORE.SYSTEM.SOLV>
0

>  <SCORE.SYSTEM.norm>
0

>  <SCORE.heavy>
42

>  <SCORE.norm>
-0.763967

>  <RMSD>
2.165

$$$$
ligand
 OpenBabel11021811513D
libRbt.so/2013.1/901 2013/11/27
 42 48  0  0  0  0  0  0  0  0999 V2000
    8.4965  -35.1322  -15.9928 P   0  0  2  0  0  0  0  0  0  0  0  0
    4.8000  -33.8326  -12.8051 P   0  0  1  0  0  0  0  0  0  0  0  0
    9.7140  -35.8390  -15.4441 O   0  5  0  0  0  0  0  0  0  0  0  0
    4.4359  -33.0293  -14.0309 O   0  5  0  0  0  0  0  0  0  0  0  0
    8.5375  -34.5249  -17.3747 O   0  0  0  0  0  0  0  0  0  0  0  0
    3.8090  -33.9746  -11.6750 O   0  0  0  0  0  0  0  0  0  0  0  0
    9.0572  -33.2911  -14.1892 C   0  0  0  0  0  0  0  0  0  0  0  0
    4.3235  -36.1386  -13.9921 C   0  0  0  0  0  0  0  0  0  0  0  0
    8.0686  -33.9833  -14.9498 O   0  0  0  0  0  0  0  0  0  0  0  0
    5.2376  -35.3074  -13.2806 O   0  0  0  0  0  0  0  0  0  0  0  0
    8.4641  -32.8687  -12.8504 C   0  0  1  0  0  0  0  0  0  0  0  0
    5.0011  -36.6911  -15.2398 C   0  0  1  0  0  0  0  0  0  0  0  0
    9.2076  -31.7684  -12.3194 O   0  0  0  0  0  0  0  0  0  0  0  0
    4.0116  -37.0521  -16.2064 O   0  0  0  0  0  0  0  0  0  0  0  0
    7.0196  -32.4232  -13.0039 C   0  0  1  0  0  0  0  0  0  0  0  0
    5.9157  -35.6561  -15.8754 C   0  0  1  0  0  0  0  0  0  0  0  0
    6.1693  -33.2370  -12.2017 O   0  0  0  0  0  0  0  0  0  0  0  0
    7.2510  -36.1496  -15.9257 O   0  0  0  0  0  0  0  0  0  0  0  0
    6.9614  -30.9835  -12.5282 C   0  0  0  0  0  0  0  0  0  0  0  0
    5.3931  -35.4261  -17.2802 C   0  0  0  0  0  0  0  0  0  0  0  0
    8.3787  -30.6221  -12.1092 C   0  0  2  0  0  0  0  0  0  0  0  0
    4.1826  -36.3363  -17.4322 C   0  0  2  0  0  0  0  0  0  0  0  0
    8.8692  -28.6272  -16.9422 N   0  0  0  0  0  0  0  0  0  0  0  0
    8.3167  -29.7842  -16.5330 C   0  0  0  0  0  0  0  0  0  0  0  0
    8.2610  -30.1717  -15.2454 N   0  0  0  0  0  0  0  0  0  0  0  0
    8.7733  -29.3933  -14.2623 C   0  0  0  0  0  0  0  0  0  0  0  0
    9.3947  -28.1113  -14.6299 C   0  0  0  0  0  0  0  0  0  0  0  0
    9.4185  -27.7543  -16.0683 C   0  0  0  0  0  0  0  0  0  0  0  0
    9.9710  -26.5922  -16.4925 N   0  0  0  0  0  0  0  0  0  0  0  0
    9.8154  -27.5457  -13.4829 N   0  0  0  0  0  0  0  0  0  0  0  0
    9.4927  -28.3900  -12.4698 C   0  0  0  0  0  0  0  0  0  0  0  0
    8.8713  -29.4911  -12.9342 N   0  0  0  0  0  0  0  0  0  0  0  0
   -0.1005  -35.7329  -20.4094 N   0  0  0  0  0  0  0  0  0  0  0  0
    0.8580  -36.6769  -20.4495 C   0  0  0  0  0  0  0  0  0  0  0  0
    1.9121  -36.7078  -19.6143 N   0  0  0  0  0  0  0  0  0  0  0  0
    2.0686  -35.7602  -18.6585 C   0  0  0  0  0  0  0  0  0  0  0  0
    1.0612  -34.6936  -18.5509 C   0  0  0  0  0  0  0  0  0  0  0  0
   -0.0706  -34.7287  -19.5070 C   0  0  0  0  0  0  0  0  0  0  0  0
   -1.0426  -33.7840  -19.4762 N   0  0  0  0  0  0  0  0  0  0  0  0
    1.4508  -33.8986  -17.5364 N   0  0  0  0  0  0  0  0  0  0  0  0
    2.6059  -34.4108  -17.0389 C   0  0  0  0  0  0  0  0  0  0  0  0
    2.9739  -35.5193  -17.7072 N   0  0  0  0  0  0  0  0  0  0  0  0
  1  3  1  1  0  0  0
  1  5  2  0  0  0  0
  1  9  1  0  0  0  0
  1 18  1  0  0  0  0
  2  4  1  6  0  0  0
  2  6  2  0  0  0  0
  2 10  1  0  0  0  0
  2 17  1  0  0  0  0
  7  9  1  0  0  0  0
  8 10  1  0  0  0  0
 11  7  1  6  0  0  0
 11 13  1  0  0  0  0
 11 15  1  0  0  0  0
 12  8  1  1  0  0  0
 12 14  1  0  0  0  0
 12 16  1  0  0  0  0
 13 21  1  0  0  0  0
 14 22  1  0  0  0  0
 15 17  1  1  0  0  0
 15 19  1  0  0  0  0
 16 18  1  6  0  0  0
 16 20  1  0  0  0  0
 19 21  1  0  0  0  0
 20 22  1  0  0  0  0
 21 32  1  6  0  0  0
 22 42  1  1  0  0  0
 23 24  2  0  0  0  0
 23 28  1  0  0  0  0
 24 25  1  0  0  0  0
 25 26  2  0  0  0  0
 26 27  1  0  0  0  0
 26 32  1  0  0  0  0
 27 28  2  0  0  0  0
 27 30  1  0  0  0  0
 28 29  1  0  0  0  0
 30 31  2  0  0  0  0
 31 32  1  0  0  0  0
 33 34  2  0  0  0  0
 33 38  1  0  0  0  0
 34 35  1  0  0  0  0
 35 36  2  0  0  0  0
 36 37  1  0  0  0  0
 36 42  1  0  0  0  0
 37 38  2  0  0  0  0
 37 40  1  0  0  0  0
 38 39  1  0  0  0  0
 40 41  2  0  0  0  0
 41 42  1  0  0  0  0
M  CHG  2   3  -1   4  -1
M  END
>  <CHROM.1>
71.55941290,-108.50591876,5.97201367,-33.28986428,-15.45396756,-0.30230211
0.74473081,2.63091741

>  <Name>
ligand

>  <RI>
0

>  <Rbt.Current_Directory>
/home/itssahil/PROJECTS/Mol_Feturizer/New_Systems/rnas/4QLN

>  <Rbt.Executable>
rbdock ($Id: //depot/dev/client3/rdock/2013.1/src/exe/rbdock.cxx#4 $)

>  <Rbt.Library>
libRbt.so (2013.1, Build901 2013/11/27)

>  <Rbt.Parameter_File>
/export/apps/rDock/src/rDock_2013.1_src/data/scripts/dock_solv.prm

>  <Rbt.Receptor>
prm/pocket_docking_2.prm

>  <SCORE>
-30.6287

>  <SCORE.INTER>
-31.1977

>  <SCORE.INTER.CONST>
1

>  <SCORE.INTER.POLAR>
0

>  <SCORE.INTER.ROT>
2

>  <SCORE.INTER.SOLV>
31.486

>  <SCORE.INTER.VDW>
-36.2272

>  <SCORE.INTER.norm>
-0.742803

>  <SCORE.INTRA>
0.375699

>  <SCORE.INTRA.DIHEDRAL>
-0.000127407

>  <SCORE.INTRA.DIHEDRAL.0>
2.39985

>  <SCORE.INTRA.POLAR>
0

>  <SCORE.INTRA.POLAR.0>
0

>  <SCORE.INTRA.REPUL>
0

>  <SCORE.INTRA.REPUL.0>
0

>  <SCORE.INTRA.SOLV>
-0.00996519

>  <SCORE.INTRA.SOLV.lig_0>
-110.958

>  <SCORE.INTRA.VDW>
0.380746

>  <SCORE.INTRA.VDW.0>
-2.34644

>  <SCORE.INTRA.norm>
0.00894523

>  <SCORE.RESTR>
0.193342

>  <SCORE.RESTR.CAVITY>
0.193342

>  <SCORE.RESTR.norm>
0.00460339

>  <SCORE.SYSTEM>
0

>  <SCORE.SYSTEM.CONST>
0

>  <SCORE.SYSTEM.DIHEDRAL>
0

>  <SCORE.SYSTEM.SOLV>
0

>  <SCORE.SYSTEM.norm>
0

>  <SCORE.heavy>
42

>  <SCORE.norm>
-0.729254

>  <RMSD>
2.169

$$$$
ligand
 OpenBabel11021811513D
libRbt.so/2013.1/901 2013/11/27
 42 48  0  0  0  0  0  0  0  0999 V2000
    8.5216  -35.1404  -15.9703 P   0  0  2  0  0  0  0  0  0  0  0  0
    4.7800  -33.7941  -12.8555 P   0  0  1  0  0  0  0  0  0  0  0  0
    9.7239  -35.8531  -15.3962 O   0  5  0  0  0  0  0  0  0  0  0  0
    4.4435  -32.9954  -14.0921 O   0  5  0  0  0  0  0  0  0  0  0  0
    8.5913  -34.5417  -17.3548 O   0  0  0  0  0  0  0  0  0  0  0  0
    3.7684  -33.9219  -11.7420 O   0  0  0  0  0  0  0  0  0  0  0  0
    9.0647  -33.2929  -14.1679 C   0  0  0  0  0  0  0  0  0  0  0  0
    4.3068  -36.1035  -14.0371 C   0  0  0  0  0  0  0  0  0  0  0  0
    8.0843  -33.9822  -14.9416 O   0  0  0  0  0  0  0  0  0  0  0  0
    5.2145  -35.2750  -13.3145 O   0  0  0  0  0  0  0  0  0  0  0  0
    8.4515  -32.8580  -12.8422 C   0  0  1  0  0  0  0  0  0  0  0  0
    5.0018  -36.6685  -15.2694 C   0  0  1  0  0  0  0  0  0  0  0  0
    9.1940  -31.7602  -12.3047 O   0  0  0  0  0  0  0  0  0  0  0  0
    4.0266  -37.0278  -16.2512 O   0  0  0  0  0  0  0  0  0  0  0  0
    7.0134  -32.4026  -13.0236 C   0  0  1  0  0  0  0  0  0  0  0  0
    5.9352  -35.6443  -15.8950 C   0  0  1  0  0  0  0  0  0  0  0  0
    6.1431  -33.2052  -12.2316 O   0  0  0  0  0  0  0  0  0  0  0  0
    7.2674  -36.1481  -15.9191 O   0  0  0  0  0  0  0  0  0  0  0  0
    6.9579  -30.9597  -12.5574 C   0  0  0  0  0  0  0  0  0  0  0  0
    5.4390  -35.4187  -17.3101 C   0  0  0  0  0  0  0  0  0  0  0  0
    8.3704  -30.6064  -12.1157 C   0  0  2  0  0  0  0  0  0  0  0  0
    4.2245  -36.3207  -17.4779 C   0  0  2  0  0  0  0  0  0  0  0  0
    8.8540  -28.5866  -16.9391 N   0  0  0  0  0  0  0  0  0  0  0  0
    8.2719  -29.7295  -16.5313 C   0  0  0  0  0  0  0  0  0  0  0  0
    8.2224  -30.1261  -15.2462 N   0  0  0  0  0  0  0  0  0  0  0  0
    8.7723  -29.3721  -14.2643 C   0  0  0  0  0  0  0  0  0  0  0  0
    9.4276  -28.1067  -14.6304 C   0  0  0  0  0  0  0  0  0  0  0  0
    9.4421  -27.7384  -16.0661 C   0  0  0  0  0  0  0  0  0  0  0  0
   10.0241  -26.5903  -16.4889 N   0  0  0  0  0  0  0  0  0  0  0  0
    9.8816  -27.5641  -13.4851 N   0  0  0  0  0  0  0  0  0  0  0  0
    9.5474  -28.4066  -12.4743 C   0  0  0  0  0  0  0  0  0  0  0  0
    8.8859  -29.4842  -12.9386 N   0  0  0  0  0  0  0  0  0  0  0  0
   -0.0765  -35.7786  -20.4410 N   0  0  0  0  0  0  0  0  0  0  0  0
    0.8656  -36.7398  -20.4470 C   0  0  0  0  0  0  0  0  0  0  0  0
    1.9270  -36.7511  -19.6206 N   0  0  0  0  0  0  0  0  0  0  0  0
    2.1086  -35.7642  -18.7101 C   0  0  0  0  0  0  0  0  0  0  0  0
    1.1203  -34.6767  -18.6419 C   0  0  0  0  0  0  0  0  0  0  0  0
   -0.0211  -34.7354  -19.5853 C   0  0  0  0  0  0  0  0  0  0  0  0
   -0.9769  -33.7738  -19.5886 N   0  0  0  0  0  0  0  0  0  0  0  0
    1.5330  -33.8436  -17.6679 N   0  0  0  0  0  0  0  0  0  0  0  0
    2.6841  -34.3526  -17.1581 C   0  0  0  0  0  0  0  0  0  0  0  0
    3.0270  -35.4963  -17.7788 N   0  0  0  0  0  0  0  0  0  0  0  0
  1  3  1  1  0  0  0
  1  5  2  0  0  0  0
  1  9  1  0  0  0  0
  1 18  1  0  0  0  0
  2  4  1  6  0  0  0
  2  6  2  0  0  0  0
  2 10  1  0  0  0  0
  2 17  1  0  0  0  0
  7  9  1  0  0  0  0
  8 10  1  0  0  0  0
 11  7  1  6  0  0  0
 11 13  1  0  0  0  0
 11 15  1  0  0  0  0
 12  8  1  1  0  0  0
 12 14  1  0  0  0  0
 12 16  1  0  0  0  0
 13 21  1  0  0  0  0
 14 22  1  0  0  0  0
 15 17  1  1  0  0  0
 15 19  1  0  0  0  0
 16 18  1  6  0  0  0
 16 20  1  0  0  0  0
 19 21  1  0  0  0  0
 20 22  1  0  0  0  0
 21 32  1  6  0  0  0
 22 42  1  1  0  0  0
 23 24  2  0  0  0  0
 23 28  1  0  0  0  0
 24 25  1  0  0  0  0
 25 26  2  0  0  0  0
 26 27  1  0  0  0  0
 26 32  1  0  0  0  0
 27 28  2  0  0  0  0
 27 30  1  0  0  0  0
 28 29  1  0  0  0  0
 30 31  2  0  0  0  0
 31 32  1  0  0  0  0
 33 34  2  0  0  0  0
 33 38  1  0  0  0  0
 34 35  1  0  0  0  0
 35 36  2  0  0  0  0
 36 37  1  0  0  0  0
 36 42  1  0  0  0  0
 37 38  2  0  0  0  0
 37 40  1  0  0  0  0
 38 39  1  0  0  0  0
 40 41  2  0  0  0  0
 41 42  1  0  0  0  0
M  CHG  2   3  -1   4  -1
M  END
>  <CHROM.1>
73.95235326,-105.72973772,5.98725652,-33.27749048,-15.47794923,-0.30877178
0.74769704,2.64380125

>  <Name>
ligand

>  <RI>
0

>  <Rbt.Current_Directory>
/home/itssahil/PROJECTS/Mol_Feturizer/New_Systems/rnas/4QLN

>  <Rbt.Executable>
rbdock ($Id: //depot/dev/client3/rdock/2013.1/src/exe/rbdock.cxx#4 $)

>  <Rbt.Library>
libRbt.so (2013.1, Build901 2013/11/27)

>  <Rbt.Parameter_File>
/export/apps/rDock/src/rDock_2013.1_src/data/scripts/dock_solv.prm

>  <Rbt.Receptor>
prm/pocket_docking_2.prm

>  <SCORE>
-30.7315

>  <SCORE.INTER>
-31.5034

>  <SCORE.INTER.CONST>
1

>  <SCORE.INTER.POLAR>
0

>  <SCORE.INTER.ROT>
2

>  <SCORE.INTER.SOLV>
31.6841

>  <SCORE.INTER.VDW>
-36.497

>  <SCORE.INTER.norm>
-0.75008

>  <SCORE.INTRA>
0.559464

>  <SCORE.INTRA.DIHEDRAL>
-0.00018708

>  <SCORE.INTRA.DIHEDRAL.0>
2.39985

>  <SCORE.INTRA.POLAR>
0

>  <SCORE.INTRA.POLAR.0>
0

>  <SCORE.INTRA.REPUL>
0

>  <SCORE.INTRA.REPUL.0>
0

>  <SCORE.INTRA.SOLV>
-0.0135509

>  <SCORE.INTRA.SOLV.lig_0>
-110.958

>  <SCORE.INTRA.VDW>
0.566333

>  <SCORE.INTRA.VDW.0>
-2.34644

>  <SCORE.INTRA.norm>
0.0133206

>  <SCORE.RESTR>
0.21242

>  <SCORE.RESTR.CAVITY>
0.21242

>  <SCORE.RESTR.norm>
0.00505762

>  <SCORE.SYSTEM>
0

>  <SCORE.SYSTEM.CONST>
0

>  <SCORE.SYSTEM.DIHEDRAL>
0

>  <SCORE.SYSTEM.SOLV>
0

>  <SCORE.SYSTEM.norm>
0

>  <SCORE.heavy>
42

>  <SCORE.norm>
-0.731702

>  <RMSD>
2.170

$$$$
ligand
 OpenBabel11021811513D
libRbt.so/2013.1/901 2013/11/27
 42 48  0  0  0  0  0  0  0  0999 V2000
    8.5439  -35.0900  -16.0168 P   0  0  2  0  0  0  0  0  0  0  0  0
    4.8164  -33.7958  -12.8633 P   0  0  1  0  0  0  0  0  0  0  0  0
    9.7546  -35.8005  -15.4578 O   0  5  0  0  0  0  0  0  0  0  0  0
    4.4662  -32.9878  -14.0901 O   0  5  0  0  0  0  0  0  0  0  0  0
    8.6001  -34.4782  -17.3961 O   0  0  0  0  0  0  0  0  0  0  0  0
    3.8135  -33.9401  -11.7440 O   0  0  0  0  0  0  0  0  0  0  0  0
    9.0885  -33.2559  -14.2012 C   0  0  0  0  0  0  0  0  0  0  0  0
    4.3490  -36.0970  -14.0629 C   0  0  0  0  0  0  0  0  0  0  0  0
    8.1068  -33.9441  -14.9744 O   0  0  0  0  0  0  0  0  0  0  0  0
    5.2568  -35.2696  -13.3391 O   0  0  0  0  0  0  0  0  0  0  0  0
    8.4821  -32.8371  -12.8673 C   0  0  1  0  0  0  0  0  0  0  0  0
    5.0387  -36.6464  -15.3053 C   0  0  1  0  0  0  0  0  0  0  0  0
    9.2216  -31.7396  -12.3249 O   0  0  0  0  0  0  0  0  0  0  0  0
    4.0588  -37.0027  -16.2834 O   0  0  0  0  0  0  0  0  0  0  0  0
    7.0399  -32.3890  -13.0343 C   0  0  1  0  0  0  0  0  0  0  0  0
    5.9613  -35.6106  -15.9279 C   0  0  1  0  0  0  0  0  0  0  0  0
    6.1802  -33.2042  -12.2437 O   0  0  0  0  0  0  0  0  0  0  0  0
    7.2964  -36.1059  -15.9660 O   0  0  0  0  0  0  0  0  0  0  0  0
    6.9789  -30.9508  -12.5543 C   0  0  0  0  0  0  0  0  0  0  0  0
    5.4536  -35.3752  -17.3373 C   0  0  0  0  0  0  0  0  0  0  0  0
    8.3922  -30.5928  -12.1194 C   0  0  2  0  0  0  0  0  0  0  0  0
    4.2435  -36.2831  -17.5050 C   0  0  2  0  0  0  0  0  0  0  0  0
    8.8874  -28.5572  -16.9349 N   0  0  0  0  0  0  0  0  0  0  0  0
    8.3228  -29.7114  -16.5346 C   0  0  0  0  0  0  0  0  0  0  0  0
    8.2676  -30.1107  -15.2507 N   0  0  0  0  0  0  0  0  0  0  0  0
    8.7929  -29.3480  -14.2622 C   0  0  0  0  0  0  0  0  0  0  0  0
    9.4281  -28.0699  -14.6198 C   0  0  0  0  0  0  0  0  0  0  0  0
    9.4504  -27.6993  -16.0548 C   0  0  0  0  0  0  0  0  0  0  0  0
   10.0150  -26.5398  -16.4701 N   0  0  0  0  0  0  0  0  0  0  0  0
    9.8599  -27.5205  -13.4692 N   0  0  0  0  0  0  0  0  0  0  0  0
    9.5312  -28.3706  -12.4630 C   0  0  0  0  0  0  0  0  0  0  0  0
    8.8950  -29.4598  -12.9354 N   0  0  0  0  0  0  0  0  0  0  0  0
   -0.0923  -35.7514  -20.4187 N   0  0  0  0  0  0  0  0  0  0  0  0
    0.8542  -36.7080  -20.4383 C   0  0  0  0  0  0  0  0  0  0  0  0
    1.9247  -36.7171  -19.6238 N   0  0  0  0  0  0  0  0  0  0  0  0
    2.1116  -35.7325  -18.7118 C   0  0  0  0  0  0  0  0  0  0  0  0
    1.1189  -34.6500  -18.6289 C   0  0  0  0  0  0  0  0  0  0  0  0
   -0.0325  -34.7109  -19.5599 C   0  0  0  0  0  0  0  0  0  0  0  0
   -0.9928  -33.7539  -19.5493 N   0  0  0  0  0  0  0  0  0  0  0  0
    1.5384  -33.8183  -17.6566 N   0  0  0  0  0  0  0  0  0  0  0  0
    2.6974  -34.3235  -17.1612 C   0  0  0  0  0  0  0  0  0  0  0  0
    3.0389  -35.4634  -17.7898 N   0  0  0  0  0  0  0  0  0  0  0  0
  1  3  1  1  0  0  0
  1  5  2  0  0  0  0
  1  9  1  0  0  0  0
  1 18  1  0  0  0  0
  2  4  1  6  0  0  0
  2  6  2  0  0  0  0
  2 10  1  0  0  0  0
  2 17  1  0  0  0  0
  7  9  1  0  0  0  0
  8 10  1  0  0  0  0
 11  7  1  6  0  0  0
 11 13  1  0  0  0  0
 11 15  1  0  0  0  0
 12  8  1  1  0  0  0
 12 14  1  0  0  0  0
 12 16  1  0  0  0  0
 13 21  1  0  0  0  0
 14 22  1  0  0  0  0
 15 17  1  1  0  0  0
 15 19  1  0  0  0  0
 16 18  1  6  0  0  0
 16 20  1  0  0  0  0
 19 21  1  0  0  0  0
 20 22  1  0  0  0  0
 21 32  1  6  0  0  0
 22 42  1  1  0  0  0
 23 24  2  0  0  0  0
 23 28  1  0  0  0  0
 24 25  1  0  0  0  0
 25 26  2  0  0  0  0
 26 27  1  0  0  0  0
 26 32  1  0  0  0  0
 27 28  2  0  0  0  0
 27 30  1  0  0  0  0
 28 29  1  0  0  0  0
 30 31  2  0  0  0  0
 31 32  1  0  0  0  0
 33 34  2  0  0  0  0
 33 38  1  0  0  0  0
 34 35  1  0  0  0  0
 35 36  2  0  0  0  0
 36 37  1  0  0  0  0
 36 42  1  0  0  0  0
 37 38  2  0  0  0  0
 37 40  1  0  0  0  0
 38 39  1  0  0  0  0
 40 41  2  0  0  0  0
 41 42  1  0  0  0  0
M  CHG  2   3  -1   4  -1
M  END
>  <CHROM.1>
72.63877355,-105.32450859,6.00567019,-33.25100726,-15.48884755,-0.31512813
0.74441289,2.65259096

>  <Name>
ligand

>  <RI>
0

>  <Rbt.Current_Directory>
/home/itssahil/PROJECTS/Mol_Feturizer/New_Systems/rnas/4QLN

>  <Rbt.Executable>
rbdock ($Id: //depot/dev/client3/rdock/2013.1/src/exe/rbdock.cxx#4 $)

>  <Rbt.Library>
libRbt.so (2013.1, Build901 2013/11/27)

>  <Rbt.Parameter_File>
/export/apps/rDock/src/rDock_2013.1_src/data/scripts/dock_solv.prm

>  <Rbt.Receptor>
prm/pocket_docking_2.prm

>  <SCORE>
-30.7321

>  <SCORE.INTER>
-31.4567

>  <SCORE.INTER.CONST>
1

>  <SCORE.INTER.POLAR>
0

>  <SCORE.INTER.ROT>
2

>  <SCORE.INTER.SOLV>
31.8561

>  <SCORE.INTER.VDW>
-36.5232

>  <SCORE.INTER.norm>
-0.74897

>  <SCORE.INTRA>
0.521636

>  <SCORE.INTRA.DIHEDRAL>
-0.000212491

>  <SCORE.INTRA.DIHEDRAL.0>
2.39985

>  <SCORE.INTRA.POLAR>
0

>  <SCORE.INTRA.POLAR.0>
0

>  <SCORE.INTRA.REPUL>
0

>  <SCORE.INTRA.REPUL.0>
0

>  <SCORE.INTRA.SOLV>
-0.0128517

>  <SCORE.INTRA.SOLV.lig_0>
-110.958

>  <SCORE.INTRA.VDW>
0.528168

>  <SCORE.INTRA.VDW.0>
-2.34644

>  <SCORE.INTRA.norm>
0.0124199

>  <SCORE.RESTR>
0.202992

>  <SCORE.RESTR.CAVITY>
0.202992

>  <SCORE.RESTR.norm>
0.00483314

>  <SCORE.SYSTEM>
0

>  <SCORE.SYSTEM.CONST>
0

>  <SCORE.SYSTEM.DIHEDRAL>
0

>  <SCORE.SYSTEM.SOLV>
0

>  <SCORE.SYSTEM.norm>
0

>  <SCORE.heavy>
42

>  <SCORE.norm>
-0.731717

>  <RMSD>
2.175

$$$$
ligand
 OpenBabel11021811513D
libRbt.so/2013.1/901 2013/11/27
 42 48  0  0  0  0  0  0  0  0999 V2000
    8.5466  -35.0838  -16.0187 P   0  0  2  0  0  0  0  0  0  0  0  0
    4.8188  -33.7958  -12.8629 P   0  0  1  0  0  0  0  0  0  0  0  0
    9.7594  -35.7912  -15.4603 O   0  5  0  0  0  0  0  0  0  0  0  0
    4.4658  -32.9895  -14.0899 O   0  5  0  0  0  0  0  0  0  0  0  0
    8.6003  -34.4727  -17.3984 O   0  0  0  0  0  0  0  0  0  0  0  0
    3.8172  -33.9417  -11.7426 O   0  0  0  0  0  0  0  0  0  0  0  0
    9.0886  -33.2473  -14.2048 C   0  0  0  0  0  0  0  0  0  0  0  0
    4.3556  -36.0989  -14.0606 C   0  0  0  0  0  0  0  0  0  0  0  0
    8.1079  -33.9382  -14.9766 O   0  0  0  0  0  0  0  0  0  0  0  0
    5.2621  -35.2690  -13.3381 O   0  0  0  0  0  0  0  0  0  0  0  0
    8.4824  -32.8289  -12.8706 C   0  0  1  0  0  0  0  0  0  0  0  0
    5.0455  -36.6475  -15.3032 C   0  0  1  0  0  0  0  0  0  0  0  0
    9.2199  -31.7295  -12.3295 O   0  0  0  0  0  0  0  0  0  0  0  0
    4.0656  -37.0066  -16.2803 O   0  0  0  0  0  0  0  0  0  0  0  0
    7.0391  -32.3842  -13.0366 C   0  0  1  0  0  0  0  0  0  0  0  0
    5.9653  -35.6101  -15.9273 C   0  0  1  0  0  0  0  0  0  0  0  0
    6.1819  -33.2008  -12.2448 O   0  0  0  0  0  0  0  0  0  0  0  0
    7.3014  -36.1024  -15.9662 O   0  0  0  0  0  0  0  0  0  0  0  0
    6.9753  -30.9458  -12.5576 C   0  0  0  0  0  0  0  0  0  0  0  0
    5.4559  -35.3767  -17.3364 C   0  0  0  0  0  0  0  0  0  0  0  0
    8.3882  -30.5844  -12.1241 C   0  0  2  0  0  0  0  0  0  0  0  0
    4.2477  -36.2874  -17.5024 C   0  0  2  0  0  0  0  0  0  0  0  0
    8.8831  -28.5552  -16.9424 N   0  0  0  0  0  0  0  0  0  0  0  0
    8.3225  -29.7110  -16.5410 C   0  0  0  0  0  0  0  0  0  0  0  0
    8.2668  -30.1083  -15.2564 N   0  0  0  0  0  0  0  0  0  0  0  0
    8.7874  -29.3417  -14.2684 C   0  0  0  0  0  0  0  0  0  0  0  0
    9.4180  -28.0617  -14.6273 C   0  0  0  0  0  0  0  0  0  0  0  0
    9.4412  -27.6935  -16.0629 C   0  0  0  0  0  0  0  0  0  0  0  0
   10.0018  -26.5325  -16.4792 N   0  0  0  0  0  0  0  0  0  0  0  0
    9.8457  -27.5086  -13.4769 N   0  0  0  0  0  0  0  0  0  0  0  0
    9.5188  -28.3583  -12.4698 C   0  0  0  0  0  0  0  0  0  0  0  0
    8.8877  -29.4508  -12.9413 N   0  0  0  0  0  0  0  0  0  0  0  0
   -0.0782  -35.7533  -20.4306 N   0  0  0  0  0  0  0  0  0  0  0  0
    0.8723  -36.7060  -20.4527 C   0  0  0  0  0  0  0  0  0  0  0  0
    1.9394  -36.7163  -19.6338 N   0  0  0  0  0  0  0  0  0  0  0  0
    2.1185  -35.7372  -18.7145 C   0  0  0  0  0  0  0  0  0  0  0  0
    1.1212  -34.6592  -18.6284 C   0  0  0  0  0  0  0  0  0  0  0  0
   -0.0261  -34.7184  -19.5646 C   0  0  0  0  0  0  0  0  0  0  0  0
   -0.9902  -33.7653  -19.5516 N   0  0  0  0  0  0  0  0  0  0  0  0
    1.5333  -33.8324  -17.6488 N   0  0  0  0  0  0  0  0  0  0  0  0
    2.6923  -34.3364  -17.1520 C   0  0  0  0  0  0  0  0  0  0  0  0
    3.0410  -35.4706  -17.7867 N   0  0  0  0  0  0  0  0  0  0  0  0
  1  3  1  1  0  0  0
  1  5  2  0  0  0  0
  1  9  1  0  0  0  0
  1 18  1  0  0  0  0
  2  4  1  6  0  0  0
  2  6  2  0  0  0  0
  2 10  1  0  0  0  0
  2 17  1  0  0  0  0
  7  9  1  0  0  0  0
  8 10  1  0  0  0  0
 11  7  1  6  0  0  0
 11 13  1  0  0  0  0
 11 15  1  0  0  0  0
 12  8  1  1  0  0  0
 12 14  1  0  0  0  0
 12 16  1  0  0  0  0
 13 21  1  0  0  0  0
 14 22  1  0  0  0  0
 15 17  1  1  0  0  0
 15 19  1  0  0  0  0
 16 18  1  6  0  0  0
 16 20  1  0  0  0  0
 19 21  1  0  0  0  0
 20 22  1  0  0  0  0
 21 32  1  6  0  0  0
 22 42  1  1  0  0  0
 23 24  2  0  0  0  0
 23 28  1  0  0  0  0
 24 25  1  0  0  0  0
 25 26  2  0  0  0  0
 26 27  1  0  0  0  0
 26 32  1  0  0  0  0
 27 28  2  0  0  0  0
 27 30  1  0  0  0  0
 28 29  1  0  0  0  0
 30 31  2  0  0  0  0
 31 32  1  0  0  0  0
 33 34  2  0  0  0  0
 33 38  1  0  0  0  0
 34 35  1  0  0  0  0
 35 36  2  0  0  0  0
 36 37  1  0  0  0  0
 36 42  1  0  0  0  0
 37 38  2  0  0  0  0
 37 40  1  0  0  0  0
 38 39  1  0  0  0  0
 40 41  2  0  0  0  0
 41 42  1  0  0  0  0
M  CHG  2   3  -1   4  -1
M  END
>  <CHROM.1>
72.45186059,-105.84495532,6.00652563,-33.24933164,-15.49132985,-0.31478450
0.74620447,2.65008495

>  <Name>
ligand

>  <RI>
0

>  <Rbt.Current_Directory>
/home/itssahil/PROJECTS/Mol_Feturizer/New_Systems/rnas/4QLN

>  <Rbt.Executable>
rbdock ($Id: //depot/dev/client3/rdock/2013.1/src/exe/rbdock.cxx#4 $)

>  <Rbt.Library>
libRbt.so (2013.1, Build901 2013/11/27)

>  <Rbt.Parameter_File>
/export/apps/rDock/src/rDock_2013.1_src/data/scripts/dock_solv.prm

>  <Rbt.Receptor>
prm/pocket_docking_2.prm

>  <SCORE>
-30.7195

>  <SCORE.INTER>
-31.4285

>  <SCORE.INTER.CONST>
1

>  <SCORE.INTER.POLAR>
0

>  <SCORE.INTER.ROT>
2

>  <SCORE.INTER.SOLV>
31.7867

>  <SCORE.INTER.VDW>
-36.4812

>  <SCORE.INTER.norm>
-0.748297

>  <SCORE.INTRA>
0.504777

>  <SCORE.INTRA.DIHEDRAL>
-0.000199573

>  <SCORE.INTRA.DIHEDRAL.0>
2.39985

>  <SCORE.INTRA.POLAR>
0

>  <SCORE.INTRA.POLAR.0>
0

>  <SCORE.INTRA.REPUL>
0

>  <SCORE.INTRA.REPUL.0>
0

>  <SCORE.INTRA.SOLV>
-0.0123067

>  <SCORE.INTRA.SOLV.lig_0>
-110.958

>  <SCORE.INTRA.VDW>
0.51103

>  <SCORE.INTRA.VDW.0>
-2.34644

>  <SCORE.INTRA.norm>
0.0120185

>  <SCORE.RESTR>
0.204215

>  <SCORE.RESTR.CAVITY>
0.204215

>  <SCORE.RESTR.norm>
0.00486226

>  <SCORE.SYSTEM>
0

>  <SCORE.SYSTEM.CONST>
0

>  <SCORE.SYSTEM.DIHEDRAL>
0

>  <SCORE.SYSTEM.SOLV>
0

>  <SCORE.SYSTEM.norm>
0

>  <SCORE.heavy>
42

>  <SCORE.norm>
-0.731416

>  <RMSD>
2.177

$$$$
ligand
 OpenBabel11021811513D
libRbt.so/2013.1/901 2013/11/27
 42 48  0  0  0  0  0  0  0  0999 V2000
    5.2223  -34.0320  -12.2036 P   0  0  2  0  0  0  0  0  0  0  0  0
    8.5311  -34.1702  -16.0177 P   0  0  1  0  0  0  0  0  0  0  0  0
    4.9106  -35.3130  -11.4654 O   0  5  0  0  0  0  0  0  0  0  0  0
    7.8886  -32.8196  -16.2261 O   0  5  0  0  0  0  0  0  0  0  0  0
    4.3220  -32.8308  -12.0404 O   0  0  0  0  0  0  0  0  0  0  0  0
    9.7903  -34.5301  -16.7688 O   0  0  0  0  0  0  0  0  0  0  0  0
    4.5217  -35.3901  -14.3534 C   0  0  0  0  0  0  0  0  0  0  0  0
    9.6613  -33.4481  -13.7474 C   0  0  0  0  0  0  0  0  0  0  0  0
    5.3327  -34.3698  -13.7735 O   0  0  0  0  0  0  0  0  0  0  0  0
    8.8120  -34.3574  -14.4433 O   0  0  0  0  0  0  0  0  0  0  0  0
    5.2625  -36.0225  -15.5256 C   0  0  1  0  0  0  0  0  0  0  0  0
    8.9635  -32.9639  -12.4826 C   0  0  1  0  0  0  0  0  0  0  0  0
    4.3244  -36.6339  -16.4154 O   0  0  0  0  0  0  0  0  0  0  0  0
    9.5158  -31.7092  -12.0771 O   0  0  0  0  0  0  0  0  0  0  0  0
    6.0393  -34.9807  -16.3128 C   0  0  1  0  0  0  0  0  0  0  0  0
    7.4747  -32.7623  -12.7165 C   0  0  1  0  0  0  0  0  0  0  0  0
    7.4265  -35.3041  -16.3150 O   0  0  0  0  0  0  0  0  0  0  0  0
    6.7250  -33.5903  -11.8325 O   0  0  0  0  0  0  0  0  0  0  0  0
    5.4946  -35.0181  -17.7286 C   0  0  0  0  0  0  0  0  0  0  0  0
    7.1888  -31.3011  -12.4283 C   0  0  0  0  0  0  0  0  0  0  0  0
    4.4079  -36.0830  -17.7325 C   0  0  2  0  0  0  0  0  0  0  0  0
    8.5215  -30.6829  -12.0305 C   0  0  2  0  0  0  0  0  0  0  0  0
    0.1255  -36.4038  -20.7551 N   0  0  0  0  0  0  0  0  0  0  0  0
    1.1996  -37.2115  -20.6836 C   0  0  0  0  0  0  0  0  0  0  0  0
    2.2370  -37.0040  -19.8517 N   0  0  0  0  0  0  0  0  0  0  0  0
    2.2552  -35.9383  -19.0157 C   0  0  0  0  0  0  0  0  0  0  0  0
    1.1155  -35.0080  -19.0344 C   0  0  0  0  0  0  0  0  0  0  0  0
    0.0115  -35.3034  -19.9783 C   0  0  0  0  0  0  0  0  0  0  0  0
   -1.0753  -34.4984  -20.0589 N   0  0  0  0  0  0  0  0  0  0  0  0
    1.3836  -34.0541  -18.1230 N   0  0  0  0  0  0  0  0  0  0  0  0
    2.5882  -34.3465  -17.5692 C   0  0  0  0  0  0  0  0  0  0  0  0
    3.1078  -35.4697  -18.1010 N   0  0  0  0  0  0  0  0  0  0  0  0
    8.4078  -29.0392  -17.0162 N   0  0  0  0  0  0  0  0  0  0  0  0
    7.9509  -30.1805  -16.4683 C   0  0  0  0  0  0  0  0  0  0  0  0
    8.0491  -30.4726  -15.1589 N   0  0  0  0  0  0  0  0  0  0  0  0
    8.6313  -29.6054  -14.2959 C   0  0  0  0  0  0  0  0  0  0  0  0
    9.1557  -28.3344  -14.8190 C   0  0  0  0  0  0  0  0  0  0  0  0
    9.0095  -28.0858  -16.2727 C   0  0  0  0  0  0  0  0  0  0  0  0
    9.4649  -26.9399  -16.8362 N   0  0  0  0  0  0  0  0  0  0  0  0
    9.6723  -27.6706  -13.7677 N   0  0  0  0  0  0  0  0  0  0  0  0
    9.4947  -28.4481  -12.6686 C   0  0  0  0  0  0  0  0  0  0  0  0
    8.8749  -29.6005  -12.9831 N   0  0  0  0  0  0  0  0  0  0  0  0
  1  3  1  1  0  0  0
  1  5  2  0  0  0  0
  1  9  1  0  0  0  0
  1 18  1  0  0  0  0
  2  4  1  6  0  0  0
  2  6  2  0  0  0  0
  2 10  1  0  0  0  0
  2 17  1  0  0  0  0
  7  9  1  0  0  0  0
  8 10  1  0  0  0  0
 11  7  1  1  0  0  0
 11 13  1  0  0  0  0
 11 15  1  0  0  0  0
 12  8  1  6  0  0  0
 12 14  1  0  0  0  0
 12 16  1  0  0  0  0
 13 21  1  0  0  0  0
 14 22  1  0  0  0  0
 15 17  1  6  0  0  0
 15 19  1  0  0  0  0
 16 18  1  1  0  0  0
 16 20  1  0  0  0  0
 19 21  1  0  0  0  0
 20 22  1  0  0  0  0
 21 32  1  1  0  0  0
 22 42  1  6  0  0  0
 23 24  2  0  0  0  0
 23 28  1  0  0  0  0
 24 25  1  0  0  0  0
 25 26  2  0  0  0  0
 26 27  1  0  0  0  0
 26 32  1  0  0  0  0
 27 28  2  0  0  0  0
 27 30  1  0  0  0  0
 28 29  1  0  0  0  0
 30 31  2  0  0  0  0
 31 32  1  0  0  0  0
 33 34  2  0  0  0  0
 33 38  1  0  0  0  0
 34 35  1  0  0  0  0
 35 36  2  0  0  0  0
 36 37  1  0  0  0  0
 36 42  1  0  0  0  0
 37 38  2  0  0  0  0
 37 40  1  0  0  0  0
 38 39  1  0  0  0  0
 40 41  2  0  0  0  0
 41 42  1  0  0  0  0
M  CHG  2   3  -1   4  -1
M  END
>  <CHROM.1>
-110.02164973,82.11069317,6.09787352,-33.24809599,-15.49925237,0.09436015
0.80823483,2.19325952

>  <Name>
ligand

>  <RI>
0

>  <Rbt.Current_Directory>
/home/itssahil/PROJECTS/Mol_Feturizer/New_Systems/rnas/4QLN

>  <Rbt.Executable>
rbdock ($Id: //depot/dev/client3/rdock/2013.1/src/exe/rbdock.cxx#4 $)

>  <Rbt.Library>
libRbt.so (2013.1, Build901 2013/11/27)

>  <Rbt.Parameter_File>
/export/apps/rDock/src/rDock_2013.1_src/data/scripts/dock_solv.prm

>  <Rbt.Receptor>
prm/pocket_docking_2.prm

>  <SCORE>
-25.325

>  <SCORE.INTER>
-28.2907

>  <SCORE.INTER.CONST>
1

>  <SCORE.INTER.POLAR>
0

>  <SCORE.INTER.ROT>
2

>  <SCORE.INTER.SOLV>
33.6202

>  <SCORE.INTER.VDW>
-35.0006

>  <SCORE.INTER.norm>
-0.673589

>  <SCORE.INTRA>
1.66419

>  <SCORE.INTRA.DIHEDRAL>
0.000707927

>  <SCORE.INTRA.DIHEDRAL.0>
2.39985

>  <SCORE.INTRA.POLAR>
0

>  <SCORE.INTRA.POLAR.0>
0

>  <SCORE.INTRA.REPUL>
0

>  <SCORE.INTRA.REPUL.0>
0

>  <SCORE.INTRA.SOLV>
0.927958

>  <SCORE.INTRA.SOLV.lig_0>
-110.958

>  <SCORE.INTRA.VDW>
1.19986

>  <SCORE.INTRA.VDW.0>
-2.34644

>  <SCORE.INTRA.norm>
0.0396235

>  <SCORE.RESTR>
1.30153

>  <SCORE.RESTR.CAVITY>
1.30153

>  <SCORE.RESTR.norm>
0.0309888

>  <SCORE.SYSTEM>
0

>  <SCORE.SYSTEM.CONST>
0

>  <SCORE.SYSTEM.DIHEDRAL>
0

>  <SCORE.SYSTEM.SOLV>
0

>  <SCORE.SYSTEM.norm>
0

>  <SCORE.heavy>
42

>  <SCORE.norm>
-0.602977

>  <RMSD>
2.179

$$$$
ligand
 OpenBabel11021811513D
libRbt.so/2013.1/901 2013/11/27
 42 48  0  0  0  0  0  0  0  0999 V2000
    8.9035  -35.3968  -15.8050 P   0  0  2  0  0  0  0  0  0  0  0  0
    4.8931  -34.1131  -13.0151 P   0  0  1  0  0  0  0  0  0  0  0  0
   10.0845  -36.0475  -15.1233 O   0  5  0  0  0  0  0  0  0  0  0  0
    4.6213  -33.3607  -14.2959 O   0  5  0  0  0  0  0  0  0  0  0  0
    9.0547  -34.8326  -17.1974 O   0  0  0  0  0  0  0  0  0  0  0  0
    3.8064  -34.2501  -11.9760 O   0  0  0  0  0  0  0  0  0  0  0  0
    9.2430  -33.4829  -14.0220 C   0  0  0  0  0  0  0  0  0  0  0  0
    4.5936  -36.4692  -14.1606 C   0  0  0  0  0  0  0  0  0  0  0  0
    8.3488  -34.2294  -14.8455 O   0  0  0  0  0  0  0  0  0  0  0  0
    5.4142  -35.5878  -13.3975 O   0  0  0  0  0  0  0  0  0  0  0  0
    8.5171  -33.0371  -12.7584 C   0  0  1  0  0  0  0  0  0  0  0  0
    5.3988  -37.0396  -15.3213 C   0  0  1  0  0  0  0  0  0  0  0  0
    9.1770  -31.8978  -12.1998 O   0  0  0  0  0  0  0  0  0  0  0  0
    4.5134  -37.4617  -16.3614 O   0  0  0  0  0  0  0  0  0  0  0  0
    7.0810  -32.6420  -13.0585 C   0  0  1  0  0  0  0  0  0  0  0  0
    6.3387  -35.9972  -15.9059 C   0  0  1  0  0  0  0  0  0  0  0  0
    6.1835  -33.4562  -12.3098 O   0  0  0  0  0  0  0  0  0  0  0  0
    7.6863  -36.4500  -15.8170 O   0  0  0  0  0  0  0  0  0  0  0  0
    6.9385  -31.1905  -12.6399 C   0  0  0  0  0  0  0  0  0  0  0  0
    5.9417  -35.8282  -17.3598 C   0  0  0  0  0  0  0  0  0  0  0  0
    8.3003  -30.7719  -12.1058 C   0  0  2  0  0  0  0  0  0  0  0  0
    4.7767  -36.7801  -17.5903 C   0  0  2  0  0  0  0  0  0  0  0  0
    8.6510  -28.6255  -16.8858 N   0  0  0  0  0  0  0  0  0  0  0  0
    8.0280  -29.7481  -16.4823 C   0  0  0  0  0  0  0  0  0  0  0  0
    8.0215  -30.1829  -15.2087 N   0  0  0  0  0  0  0  0  0  0  0  0
    8.6610  -29.4918  -14.2349 C   0  0  0  0  0  0  0  0  0  0  0  0
    9.3659  -28.2522  -14.5969 C   0  0  0  0  0  0  0  0  0  0  0  0
    9.3284  -27.8388  -16.0199 C   0  0  0  0  0  0  0  0  0  0  0  0
    9.9509  -26.7104  -16.4381 N   0  0  0  0  0  0  0  0  0  0  0  0
    9.9064  -27.7721  -13.4612 N   0  0  0  0  0  0  0  0  0  0  0  0
    9.5775  -28.6279  -12.4598 C   0  0  0  0  0  0  0  0  0  0  0  0
    8.8349  -29.6528  -12.9207 N   0  0  0  0  0  0  0  0  0  0  0  0
    0.4623  -36.6823  -20.5818 N   0  0  0  0  0  0  0  0  0  0  0  0
    1.4067  -37.6324  -20.4521 C   0  0  0  0  0  0  0  0  0  0  0  0
    2.4716  -37.5216  -19.6376 N   0  0  0  0  0  0  0  0  0  0  0  0
    2.6544  -36.4125  -18.8810 C   0  0  0  0  0  0  0  0  0  0  0  0
    1.6637  -35.3284  -18.9672 C   0  0  0  0  0  0  0  0  0  0  0  0
    0.5186  -35.5257  -19.8870 C   0  0  0  0  0  0  0  0  0  0  0  0
   -0.4394  -34.5765  -20.0259 N   0  0  0  0  0  0  0  0  0  0  0  0
    2.0784  -34.3619  -18.1265 N   0  0  0  0  0  0  0  0  0  0  0  0
    3.2328  -34.7892  -17.5532 C   0  0  0  0  0  0  0  0  0  0  0  0
    3.5760  -36.0104  -18.0026 N   0  0  0  0  0  0  0  0  0  0  0  0
  1  3  1  1  0  0  0
  1  5  2  0  0  0  0
  1  9  1  0  0  0  0
  1 18  1  0  0  0  0
  2  4  1  6  0  0  0
  2  6  2  0  0  0  0
  2 10  1  0  0  0  0
  2 17  1  0  0  0  0
  7  9  1  0  0  0  0
  8 10  1  0  0  0  0
 11  7  1  6  0  0  0
 11 13  1  0  0  0  0
 11 15  1  0  0  0  0
 12  8  1  1  0  0  0
 12 14  1  0  0  0  0
 12 16  1  0  0  0  0
 13 21  1  0  0  0  0
 14 22  1  0  0  0  0
 15 17  1  1  0  0  0
 15 19  1  0  0  0  0
 16 18  1  6  0  0  0
 16 20  1  0  0  0  0
 19 21  1  0  0  0  0
 20 22  1  0  0  0  0
 21 32  1  6  0  0  0
 22 42  1  1  0  0  0
 23 24  2  0  0  0  0
 23 28  1  0  0  0  0
 24 25  1  0  0  0  0
 25 26  2  0  0  0  0
 26 27  1  0  0  0  0
 26 32  1  0  0  0  0
 27 28  2  0  0  0  0
 27 30  1  0  0  0  0
 28 29  1  0  0  0  0
 30 31  2  0  0  0  0
 31 32  1  0  0  0  0
 33 34  2  0  0  0  0
 33 38  1  0  0  0  0
 34 35  1  0  0  0  0
 35 36  2  0  0  0  0
 36 37  1  0  0  0  0
 36 42  1  0  0  0  0
 37 38  2  0  0  0  0
 37 40  1  0  0  0  0
 38 39  1  0  0  0  0
 40 41  2  0  0  0  0
 41 42  1  0  0  0  0
M  CHG  2   3  -1   4  -1
M  END
>  <CHROM.1>
83.48518198,-97.35926105,6.22028987,-33.61693834,-15.52683682,-0.40868176
0.79640271,2.73512499

>  <Name>
ligand

>  <RI>
0

>  <Rbt.Current_Directory>
/home/itssahil/PROJECTS/Mol_Feturizer/New_Systems/rnas/4QLN

>  <Rbt.Executable>
rbdock ($Id: //depot/dev/client3/rdock/2013.1/src/exe/rbdock.cxx#4 $)

>  <Rbt.Library>
libRbt.so (2013.1, Build901 2013/11/27)

>  <Rbt.Parameter_File>
/export/apps/rDock/src/rDock_2013.1_src/data/scripts/dock_solv.prm

>  <Rbt.Receptor>
prm/pocket_docking_5.prm

>  <SCORE>
-31.2958

>  <SCORE.INTER>
-32.4683

>  <SCORE.INTER.CONST>
1

>  <SCORE.INTER.POLAR>
0

>  <SCORE.INTER.ROT>
2

>  <SCORE.INTER.SOLV>
30.2151

>  <SCORE.INTER.VDW>
-36.6506

>  <SCORE.INTER.norm>
-0.773055

>  <SCORE.INTRA>
1.17247

>  <SCORE.INTRA.DIHEDRAL>
-0.000301189

>  <SCORE.INTRA.DIHEDRAL.0>
2.39985

>  <SCORE.INTRA.POLAR>
0

>  <SCORE.INTRA.POLAR.0>
0

>  <SCORE.INTRA.REPUL>
0

>  <SCORE.INTRA.REPUL.0>
0

>  <SCORE.INTRA.SOLV>
-0.0325378

>  <SCORE.INTRA.SOLV.lig_0>
-110.958

>  <SCORE.INTRA.VDW>
1.18889

>  <SCORE.INTRA.VDW.0>
-2.34644

>  <SCORE.INTRA.norm>
0.027916

>  <SCORE.RESTR>
0

>  <SCORE.RESTR.CAVITY>
0

>  <SCORE.RESTR.norm>
0

>  <SCORE.SYSTEM>
0

>  <SCORE.SYSTEM.CONST>
0

>  <SCORE.SYSTEM.DIHEDRAL>
0

>  <SCORE.SYSTEM.SOLV>
0

>  <SCORE.SYSTEM.norm>
0

>  <SCORE.heavy>
42

>  <SCORE.norm>
-0.745139

>  <RMSD>
2.179

$$$$
ligand
 OpenBabel11021811513D
libRbt.so/2013.1/901 2013/11/27
 42 48  0  0  0  0  0  0  0  0999 V2000
    8.5507  -35.0572  -16.0303 P   0  0  2  0  0  0  0  0  0  0  0  0
    4.8264  -33.7903  -12.8619 P   0  0  1  0  0  0  0  0  0  0  0  0
    9.7667  -35.7630  -15.4770 O   0  5  0  0  0  0  0  0  0  0  0  0
    4.4683  -32.9809  -14.0855 O   0  5  0  0  0  0  0  0  0  0  0  0
    8.5995  -34.4414  -17.4081 O   0  0  0  0  0  0  0  0  0  0  0  0
    3.8277  -33.9427  -11.7399 O   0  0  0  0  0  0  0  0  0  0  0  0
    9.0916  -33.2251  -14.2115 C   0  0  0  0  0  0  0  0  0  0  0  0
    4.3670  -36.0907  -14.0663 C   0  0  0  0  0  0  0  0  0  0  0  0
    8.1110  -33.9163  -14.9835 O   0  0  0  0  0  0  0  0  0  0  0  0
    5.2728  -35.2606  -13.3430 O   0  0  0  0  0  0  0  0  0  0  0  0
    8.4872  -32.8130  -12.8746 C   0  0  1  0  0  0  0  0  0  0  0  0
    5.0557  -36.6333  -15.3122 C   0  0  1  0  0  0  0  0  0  0  0  0
    9.2228  -31.7132  -12.3315 O   0  0  0  0  0  0  0  0  0  0  0  0
    4.0745  -36.9919  -16.2882 O   0  0  0  0  0  0  0  0  0  0  0  0
    7.0423  -32.3717  -13.0360 C   0  0  1  0  0  0  0  0  0  0  0  0
    5.9711  -35.5912  -15.9349 C   0  0  1  0  0  0  0  0  0  0  0  0
    6.1891  -33.1935  -12.2449 O   0  0  0  0  0  0  0  0  0  0  0  0
    7.3085  -36.0795  -15.9784 O   0  0  0  0  0  0  0  0  0  0  0  0
    6.9754  -30.9352  -12.5520 C   0  0  0  0  0  0  0  0  0  0  0  0
    5.4578  -35.3545  -17.3421 C   0  0  0  0  0  0  0  0  0  0  0  0
    8.3882  -30.5712  -12.1205 C   0  0  2  0  0  0  0  0  0  0  0  0
    4.2519  -36.2681  -17.5084 C   0  0  2  0  0  0  0  0  0  0  0  0
    8.8919  -28.5378  -16.9361 N   0  0  0  0  0  0  0  0  0  0  0  0
    8.3387  -29.6982  -16.5377 C   0  0  0  0  0  0  0  0  0  0  0  0
    8.2795  -30.0960  -15.2534 N   0  0  0  0  0  0  0  0  0  0  0  0
    8.7885  -29.3251  -14.2626 C   0  0  0  0  0  0  0  0  0  0  0  0
    9.4104  -28.0400  -14.6182 C   0  0  0  0  0  0  0  0  0  0  0  0
    9.4382  -27.6716  -16.0536 C   0  0  0  0  0  0  0  0  0  0  0  0
    9.9914  -26.5059  -16.4670 N   0  0  0  0  0  0  0  0  0  0  0  0
    9.8275  -27.4834  -13.4655 N   0  0  0  0  0  0  0  0  0  0  0  0
    9.5023  -28.3358  -12.4602 C   0  0  0  0  0  0  0  0  0  0  0  0
    8.8827  -29.4335  -12.9350 N   0  0  0  0  0  0  0  0  0  0  0  0
   -0.0932  -35.7482  -20.4106 N   0  0  0  0  0  0  0  0  0  0  0  0
    0.8585  -36.6996  -20.4361 C   0  0  0  0  0  0  0  0  0  0  0  0
    1.9308  -36.7062  -19.6239 N   0  0  0  0  0  0  0  0  0  0  0  0
    2.1143  -35.7242  -18.7085 C   0  0  0  0  0  0  0  0  0  0  0  0
    1.1160  -34.6474  -18.6190 C   0  0  0  0  0  0  0  0  0  0  0  0
   -0.0371  -34.7108  -19.5478 C   0  0  0  0  0  0  0  0  0  0  0  0
   -1.0025  -33.7591  -19.5313 N   0  0  0  0  0  0  0  0  0  0  0  0
    1.5331  -33.8174  -17.6443 N   0  0  0  0  0  0  0  0  0  0  0  0
    2.6959  -34.3183  -17.1535 C   0  0  0  0  0  0  0  0  0  0  0  0
    3.0422  -35.4538  -17.7873 N   0  0  0  0  0  0  0  0  0  0  0  0
  1  3  1  1  0  0  0
  1  5  2  0  0  0  0
  1  9  1  0  0  0  0
  1 18  1  0  0  0  0
  2  4  1  6  0  0  0
  2  6  2  0  0  0  0
  2 10  1  0  0  0  0
  2 17  1  0  0  0  0
  7  9  1  0  0  0  0
  8 10  1  0  0  0  0
 11  7  1  6  0  0  0
 11 13  1  0  0  0  0
 11 15  1  0  0  0  0
 12  8  1  1  0  0  0
 12 14  1  0  0  0  0
 12 16  1  0  0  0  0
 13 21  1  0  0  0  0
 14 22  1  0  0  0  0
 15 17  1  1  0  0  0
 15 19  1  0  0  0  0
 16 18  1  6  0  0  0
 16 20  1  0  0  0  0
 19 21  1  0  0  0  0
 20 22  1  0  0  0  0
 21 32  1  6  0  0  0
 22 42  1  1  0  0  0
 23 24  2  0  0  0  0
 23 28  1  0  0  0  0
 24 25  1  0  0  0  0
 25 26  2  0  0  0  0
 26 27  1  0  0  0  0
 26 32  1  0  0  0  0
 27 28  2  0  0  0  0
 27 30  1  0  0  0  0
 28 29  1  0  0  0  0
 30 31  2  0  0  0  0
 31 32  1  0  0  0  0
 33 34  2  0  0  0  0
 33 38  1  0  0  0  0
 34 35  1  0  0  0  0
 35 36  2  0  0  0  0
 36 37  1  0  0  0  0
 36 42  1  0  0  0  0
 37 38  2  0  0  0  0
 37 40  1  0  0  0  0
 38 39  1  0  0  0  0
 40 41  2  0  0  0  0
 41 42  1  0  0  0  0
M  CHG  2   3  -1   4  -1
M  END
>  <CHROM.1>
71.88888560,-105.41825575,6.00777183,-33.23375729,-15.49024496,-0.31845655
0.74493271,2.65425977

>  <Name>
ligand

>  <RI>
0

>  <Rbt.Current_Directory>
/home/itssahil/PROJECTS/Mol_Feturizer/New_Systems/rnas/4QLN

>  <Rbt.Executable>
rbdock ($Id: //depot/dev/client3/rdock/2013.1/src/exe/rbdock.cxx#4 $)

>  <Rbt.Library>
libRbt.so (2013.1, Build901 2013/11/27)

>  <Rbt.Parameter_File>
/export/apps/rDock/src/rDock_2013.1_src/data/scripts/dock_solv.prm

>  <Rbt.Receptor>
prm/pocket_docking_2.prm

>  <SCORE>
-30.7249

>  <SCORE.INTER>
-31.4008

>  <SCORE.INTER.CONST>
1

>  <SCORE.INTER.POLAR>
0

>  <SCORE.INTER.ROT>
2

>  <SCORE.INTER.SOLV>
31.8737

>  <SCORE.INTER.VDW>
-36.4918

>  <SCORE.INTER.norm>
-0.747639

>  <SCORE.INTRA>
0.476128

>  <SCORE.INTRA.DIHEDRAL>
-0.000218054

>  <SCORE.INTRA.DIHEDRAL.0>
2.39985

>  <SCORE.INTRA.POLAR>
0

>  <SCORE.INTRA.POLAR.0>
0

>  <SCORE.INTRA.REPUL>
0

>  <SCORE.INTRA.REPUL.0>
0

>  <SCORE.INTRA.SOLV>
-0.0121503

>  <SCORE.INTRA.SOLV.lig_0>
-110.958

>  <SCORE.INTRA.VDW>
0.482312

>  <SCORE.INTRA.VDW.0>
-2.34644

>  <SCORE.INTRA.norm>
0.0113364

>  <SCORE.RESTR>
0.19976

>  <SCORE.RESTR.CAVITY>
0.19976

>  <SCORE.RESTR.norm>
0.00475618

>  <SCORE.SYSTEM>
0

>  <SCORE.SYSTEM.CONST>
0

>  <SCORE.SYSTEM.DIHEDRAL>
0

>  <SCORE.SYSTEM.SOLV>
0

>  <SCORE.SYSTEM.norm>
0

>  <SCORE.heavy>
42

>  <SCORE.norm>
-0.731546

>  <RMSD>
2.180

$$$$
ligand
 OpenBabel11021811513D
libRbt.so/2013.1/901 2013/11/27
 42 48  0  0  0  0  0  0  0  0999 V2000
    8.5460  -35.0688  -16.0168 P   0  0  2  0  0  0  0  0  0  0  0  0
    4.8268  -33.7832  -12.8500 P   0  0  1  0  0  0  0  0  0  0  0  0
    9.7605  -35.7762  -15.4621 O   0  5  0  0  0  0  0  0  0  0  0  0
    4.4701  -32.9763  -14.0756 O   0  5  0  0  0  0  0  0  0  0  0  0
    8.5957  -34.4571  -17.3964 O   0  0  0  0  0  0  0  0  0  0  0  0
    3.8283  -33.9298  -11.7270 O   0  0  0  0  0  0  0  0  0  0  0  0
    9.0927  -33.2330  -14.2035 C   0  0  0  0  0  0  0  0  0  0  0  0
    4.3607  -36.0858  -14.0475 C   0  0  0  0  0  0  0  0  0  0  0  0
    8.1099  -33.9238  -14.9730 O   0  0  0  0  0  0  0  0  0  0  0  0
    5.2691  -35.2561  -13.3271 O   0  0  0  0  0  0  0  0  0  0  0  0
    8.4901  -32.8155  -12.8674 C   0  0  1  0  0  0  0  0  0  0  0  0
    5.0473  -36.6337  -15.2923 C   0  0  1  0  0  0  0  0  0  0  0  0
    9.2289  -31.7161  -12.3279 O   0  0  0  0  0  0  0  0  0  0  0  0
    4.0647  -36.9925  -16.2668 O   0  0  0  0  0  0  0  0  0  0  0  0
    7.0462  -32.3710  -13.0293 C   0  0  1  0  0  0  0  0  0  0  0  0
    5.9650  -35.5958  -15.9184 C   0  0  1  0  0  0  0  0  0  0  0  0
    6.1914  -33.1882  -12.2354 O   0  0  0  0  0  0  0  0  0  0  0  0
    7.3012  -36.0877  -15.9614 O   0  0  0  0  0  0  0  0  0  0  0  0
    6.9834  -30.9328  -12.5493 C   0  0  0  0  0  0  0  0  0  0  0  0
    5.4516  -35.3618  -17.3261 C   0  0  0  0  0  0  0  0  0  0  0  0
    8.3974  -30.5713  -12.1196 C   0  0  2  0  0  0  0  0  0  0  0  0
    4.2432  -36.2727  -17.4891 C   0  0  2  0  0  0  0  0  0  0  0  0
    8.8917  -28.5467  -16.9399 N   0  0  0  0  0  0  0  0  0  0  0  0
    8.3342  -29.7037  -16.5377 C   0  0  0  0  0  0  0  0  0  0  0  0
    8.2782  -30.0995  -15.2527 N   0  0  0  0  0  0  0  0  0  0  0  0
    8.7953  -29.3301  -14.2650 C   0  0  0  0  0  0  0  0  0  0  0  0
    9.4223  -28.0486  -14.6248 C   0  0  0  0  0  0  0  0  0  0  0  0
    9.4461  -27.6822  -16.0608 C   0  0  0  0  0  0  0  0  0  0  0  0
   10.0036  -26.5199  -16.4780 N   0  0  0  0  0  0  0  0  0  0  0  0
    9.8470  -27.4927  -13.4746 N   0  0  0  0  0  0  0  0  0  0  0  0
    9.5215  -28.3421  -12.4668 C   0  0  0  0  0  0  0  0  0  0  0  0
    8.8944  -29.4373  -12.9377 N   0  0  0  0  0  0  0  0  0  0  0  0
   -0.0842  -35.7312  -20.4136 N   0  0  0  0  0  0  0  0  0  0  0  0
    0.8672  -36.6828  -20.4399 C   0  0  0  0  0  0  0  0  0  0  0  0
    1.9347  -36.6954  -19.6214 N   0  0  0  0  0  0  0  0  0  0  0  0
    2.1131  -35.7198  -18.6982 C   0  0  0  0  0  0  0  0  0  0  0  0
    1.1146  -34.6432  -18.6073 C   0  0  0  0  0  0  0  0  0  0  0  0
   -0.0329  -34.6998  -19.5434 C   0  0  0  0  0  0  0  0  0  0  0  0
   -0.9981  -33.7478  -19.5261 N   0  0  0  0  0  0  0  0  0  0  0  0
    1.5262  -33.8201  -17.6245 N   0  0  0  0  0  0  0  0  0  0  0  0
    2.6858  -34.3248  -17.1302 C   0  0  0  0  0  0  0  0  0  0  0  0
    3.0355  -35.4560  -17.7697 N   0  0  0  0  0  0  0  0  0  0  0  0
  1  3  1  1  0  0  0
  1  5  2  0  0  0  0
  1  9  1  0  0  0  0
  1 18  1  0  0  0  0
  2  4  1  6  0  0  0
  2  6  2  0  0  0  0
  2 10  1  0  0  0  0
  2 17  1  0  0  0  0
  7  9  1  0  0  0  0
  8 10  1  0  0  0  0
 11  7  1  6  0  0  0
 11 13  1  0  0  0  0
 11 15  1  0  0  0  0
 12  8  1  1  0  0  0
 12 14  1  0  0  0  0
 12 16  1  0  0  0  0
 13 21  1  0  0  0  0
 14 22  1  0  0  0  0
 15 17  1  1  0  0  0
 15 19  1  0  0  0  0
 16 18  1  6  0  0  0
 16 20  1  0  0  0  0
 19 21  1  0  0  0  0
 20 22  1  0  0  0  0
 21 32  1  6  0  0  0
 22 42  1  1  0  0  0
 23 24  2  0  0  0  0
 23 28  1  0  0  0  0
 24 25  1  0  0  0  0
 25 26  2  0  0  0  0
 26 27  1  0  0  0  0
 26 32  1  0  0  0  0
 27 28  2  0  0  0  0
 27 30  1  0  0  0  0
 28 29  1  0  0  0  0
 30 31  2  0  0  0  0
 31 32  1  0  0  0  0
 33 34  2  0  0  0  0
 33 38  1  0  0  0  0
 34 35  1  0  0  0  0
 35 36  2  0  0  0  0
 36 37  1  0  0  0  0
 36 42  1  0  0  0  0
 37 38  2  0  0  0  0
 37 40  1  0  0  0  0
 38 39  1  0  0  0  0
 40 41  2  0  0  0  0
 41 42  1  0  0  0  0
M  CHG  2   3  -1   4  -1
M  END
>  <CHROM.1>
72.15523312,-106.10030032,6.00861074,-33.23517881,-15.48231363,-0.31393833
0.74474170,2.64835322

>  <Name>
ligand

>  <RI>
0

>  <Rbt.Current_Directory>
/home/itssahil/PROJECTS/Mol_Feturizer/New_Systems/rnas/4QLN

>  <Rbt.Executable>
rbdock ($Id: //depot/dev/client3/rdock/2013.1/src/exe/rbdock.cxx#4 $)

>  <Rbt.Library>
libRbt.so (2013.1, Build901 2013/11/27)

>  <Rbt.Parameter_File>
/export/apps/rDock/src/rDock_2013.1_src/data/scripts/dock_solv.prm

>  <Rbt.Receptor>
prm/pocket_docking_2.prm

>  <SCORE>
-30.7039

>  <SCORE.INTER>
-31.394

>  <SCORE.INTER.CONST>
1

>  <SCORE.INTER.POLAR>
0

>  <SCORE.INTER.ROT>
2

>  <SCORE.INTER.SOLV>
31.9119

>  <SCORE.INTER.VDW>
-36.5

>  <SCORE.INTER.norm>
-0.747477

>  <SCORE.INTRA>
0.489774

>  <SCORE.INTRA.DIHEDRAL>
-0.000195352

>  <SCORE.INTRA.DIHEDRAL.0>
2.39985

>  <SCORE.INTRA.POLAR>
0

>  <SCORE.INTRA.POLAR.0>
0

>  <SCORE.INTRA.REPUL>
0

>  <SCORE.INTRA.REPUL.0>
0

>  <SCORE.INTRA.SOLV>
-0.0118852

>  <SCORE.INTRA.SOLV.lig_0>
-110.958

>  <SCORE.INTRA.VDW>
0.495815

>  <SCORE.INTRA.VDW.0>
-2.34644

>  <SCORE.INTRA.norm>
0.0116613

>  <SCORE.RESTR>
0.200309

>  <SCORE.RESTR.CAVITY>
0.200309

>  <SCORE.RESTR.norm>
0.00476926

>  <SCORE.SYSTEM>
0

>  <SCORE.SYSTEM.CONST>
0

>  <SCORE.SYSTEM.DIHEDRAL>
0

>  <SCORE.SYSTEM.SOLV>
0

>  <SCORE.SYSTEM.norm>
0

>  <SCORE.heavy>
42

>  <SCORE.norm>
-0.731046

>  <RMSD>
2.180

$$$$
ligand
 OpenBabel11021811513D
libRbt.so/2013.1/901 2013/11/27
 42 48  0  0  0  0  0  0  0  0999 V2000
    8.5403  -35.0544  -16.0273 P   0  0  2  0  0  0  0  0  0  0  0  0
    4.8203  -33.7947  -12.8510 P   0  0  1  0  0  0  0  0  0  0  0  0
    9.7588  -35.7579  -15.4766 O   0  5  0  0  0  0  0  0  0  0  0  0
    4.4581  -32.9859  -14.0737 O   0  5  0  0  0  0  0  0  0  0  0  0
    8.5850  -34.4385  -17.4052 O   0  0  0  0  0  0  0  0  0  0  0  0
    3.8243  -33.9491  -11.7269 O   0  0  0  0  0  0  0  0  0  0  0  0
    9.0815  -33.2214  -14.2096 C   0  0  0  0  0  0  0  0  0  0  0  0
    4.3627  -36.0959  -14.0544 C   0  0  0  0  0  0  0  0  0  0  0  0
    8.1007  -33.9144  -14.9795 O   0  0  0  0  0  0  0  0  0  0  0  0
    5.2685  -35.2642  -13.3331 O   0  0  0  0  0  0  0  0  0  0  0  0
    8.4792  -32.8104  -12.8713 C   0  0  1  0  0  0  0  0  0  0  0  0
    5.0498  -36.6371  -15.3019 C   0  0  1  0  0  0  0  0  0  0  0  0
    9.2139  -31.7093  -12.3298 O   0  0  0  0  0  0  0  0  0  0  0  0
    4.0672  -36.9976  -16.2758 O   0  0  0  0  0  0  0  0  0  0  0  0
    7.0331  -32.3720  -13.0296 C   0  0  1  0  0  0  0  0  0  0  0  0
    5.9619  -35.5933  -15.9264 C   0  0  1  0  0  0  0  0  0  0  0  0
    6.1832  -33.1953  -12.2368 O   0  0  0  0  0  0  0  0  0  0  0  0
    7.3001  -36.0791  -15.9728 O   0  0  0  0  0  0  0  0  0  0  0  0
    6.9645  -30.9355  -12.5454 C   0  0  0  0  0  0  0  0  0  0  0  0
    5.4452  -35.3575  -17.3326 C   0  0  0  0  0  0  0  0  0  0  0  0
    8.3776  -30.5689  -12.1169 C   0  0  2  0  0  0  0  0  0  0  0  0
    4.2406  -36.2734  -17.4963 C   0  0  2  0  0  0  0  0  0  0  0  0
    8.8899  -28.5459  -16.9360 N   0  0  0  0  0  0  0  0  0  0  0  0
    8.3427  -29.7088  -16.5368 C   0  0  0  0  0  0  0  0  0  0  0  0
    8.2801  -30.1034  -15.2516 N   0  0  0  0  0  0  0  0  0  0  0  0
    8.7794  -29.3263  -14.2608 C   0  0  0  0  0  0  0  0  0  0  0  0
    9.3943  -28.0380  -14.6172 C   0  0  0  0  0  0  0  0  0  0  0  0
    9.4262  -27.6735  -16.0535 C   0  0  0  0  0  0  0  0  0  0  0  0
    9.9735  -26.5054  -16.4677 N   0  0  0  0  0  0  0  0  0  0  0  0
    9.8023  -27.4753  -13.4642 N   0  0  0  0  0  0  0  0  0  0  0  0
    9.4781  -28.3270  -12.4579 C   0  0  0  0  0  0  0  0  0  0  0  0
    8.8682  -29.4302  -12.9325 N   0  0  0  0  0  0  0  0  0  0  0  0
   -0.0972  -35.7465  -20.4081 N   0  0  0  0  0  0  0  0  0  0  0  0
    0.8581  -36.6942  -20.4381 C   0  0  0  0  0  0  0  0  0  0  0  0
    1.9278  -36.7033  -19.6226 N   0  0  0  0  0  0  0  0  0  0  0  0
    2.1048  -35.7279  -18.6988 C   0  0  0  0  0  0  0  0  0  0  0  0
    1.1023  -34.6555  -18.6040 C   0  0  0  0  0  0  0  0  0  0  0  0
   -0.0477  -34.7158  -19.5369 C   0  0  0  0  0  0  0  0  0  0  0  0
   -1.0166  -33.7678  -19.5159 N   0  0  0  0  0  0  0  0  0  0  0  0
    1.5132  -33.8318  -17.6215 N   0  0  0  0  0  0  0  0  0  0  0  0
    2.6763  -34.3322  -17.1310 C   0  0  0  0  0  0  0  0  0  0  0  0
    3.0288  -35.4614  -17.7726 N   0  0  0  0  0  0  0  0  0  0  0  0
  1  3  1  1  0  0  0
  1  5  2  0  0  0  0
  1  9  1  0  0  0  0
  1 18  1  0  0  0  0
  2  4  1  6  0  0  0
  2  6  2  0  0  0  0
  2 10  1  0  0  0  0
  2 17  1  0  0  0  0
  7  9  1  0  0  0  0
  8 10  1  0  0  0  0
 11  7  1  6  0  0  0
 11 13  1  0  0  0  0
 11 15  1  0  0  0  0
 12  8  1  1  0  0  0
 12 14  1  0  0  0  0
 12 16  1  0  0  0  0
 13 21  1  0  0  0  0
 14 22  1  0  0  0  0
 15 17  1  1  0  0  0
 15 19  1  0  0  0  0
 16 18  1  6  0  0  0
 16 20  1  0  0  0  0
 19 21  1  0  0  0  0
 20 22  1  0  0  0  0
 21 32  1  6  0  0  0
 22 42  1  1  0  0  0
 23 24  2  0  0  0  0
 23 28  1  0  0  0  0
 24 25  1  0  0  0  0
 25 26  2  0  0  0  0
 26 27  1  0  0  0  0
 26 32  1  0  0  0  0
 27 28  2  0  0  0  0
 27 30  1  0  0  0  0
 28 29  1  0  0  0  0
 30 31  2  0  0  0  0
 31 32  1  0  0  0  0
 33 34  2  0  0  0  0
 33 38  1  0  0  0  0
 34 35  1  0  0  0  0
 35 36  2  0  0  0  0
 36 37  1  0  0  0  0
 36 42  1  0  0  0  0
 37 38  2  0  0  0  0
 37 40  1  0  0  0  0
 38 39  1  0  0  0  0
 40 41  2  0  0  0  0
 41 42  1  0  0  0  0
M  CHG  2   3  -1   4  -1
M  END
>  <CHROM.1>
71.38408327,-105.97142790,5.99807936,-33.23552171,-15.48350414,-0.31656642
0.74578299,2.65004891

>  <Name>
ligand

>  <RI>
0

>  <Rbt.Current_Directory>
/home/itssahil/PROJECTS/Mol_Feturizer/New_Systems/rnas/4QLN

>  <Rbt.Executable>
rbdock ($Id: //depot/dev/client3/rdock/2013.1/src/exe/rbdock.cxx#4 $)

>  <Rbt.Library>
libRbt.so (2013.1, Build901 2013/11/27)

>  <Rbt.Parameter_File>
/export/apps/rDock/src/rDock_2013.1_src/data/scripts/dock_solv.prm

>  <Rbt.Receptor>
prm/pocket_docking_2.prm

>  <SCORE>
-30.6543

>  <SCORE.INTER>
-31.2621

>  <SCORE.INTER.CONST>
1

>  <SCORE.INTER.POLAR>
0

>  <SCORE.INTER.ROT>
2

>  <SCORE.INTER.SOLV>
31.8051

>  <SCORE.INTER.VDW>
-36.3764

>  <SCORE.INTER.norm>
-0.744335

>  <SCORE.INTRA>
0.419241

>  <SCORE.INTRA.DIHEDRAL>
-0.000207755

>  <SCORE.INTRA.DIHEDRAL.0>
2.39985

>  <SCORE.INTRA.POLAR>
0

>  <SCORE.INTRA.POLAR.0>
0

>  <SCORE.INTRA.REPUL>
0

>  <SCORE.INTRA.REPUL.0>
0

>  <SCORE.INTRA.SOLV>
-0.0112668

>  <SCORE.INTRA.SOLV.lig_0>
-110.958

>  <SCORE.INTRA.VDW>
0.424979

>  <SCORE.INTRA.VDW.0>
-2.34644

>  <SCORE.INTRA.norm>
0.00998194

>  <SCORE.RESTR>
0.188492

>  <SCORE.RESTR.CAVITY>
0.188492

>  <SCORE.RESTR.norm>
0.0044879

>  <SCORE.SYSTEM>
0

>  <SCORE.SYSTEM.CONST>
0

>  <SCORE.SYSTEM.DIHEDRAL>
0

>  <SCORE.SYSTEM.SOLV>
0

>  <SCORE.SYSTEM.norm>
0

>  <SCORE.heavy>
42

>  <SCORE.norm>
-0.729865

>  <RMSD>
2.181

$$$$
ligand
 OpenBabel11021811513D
libRbt.so/2013.1/901 2013/11/27
 42 48  0  0  0  0  0  0  0  0999 V2000
    8.5559  -35.0419  -16.0398 P   0  0  2  0  0  0  0  0  0  0  0  0
    4.8400  -33.7848  -12.8576 P   0  0  1  0  0  0  0  0  0  0  0  0
    9.7746  -35.7468  -15.4914 O   0  5  0  0  0  0  0  0  0  0  0  0
    4.4769  -32.9741  -14.0787 O   0  5  0  0  0  0  0  0  0  0  0  0
    8.5994  -34.4240  -17.4168 O   0  0  0  0  0  0  0  0  0  0  0  0
    3.8452  -33.9403  -11.7326 O   0  0  0  0  0  0  0  0  0  0  0  0
    9.1001  -33.2117  -14.2200 C   0  0  0  0  0  0  0  0  0  0  0  0
    4.3799  -36.0841  -14.0638 C   0  0  0  0  0  0  0  0  0  0  0  0
    8.1180  -33.9031  -14.9898 O   0  0  0  0  0  0  0  0  0  0  0  0
    5.2869  -35.2538  -13.3423 O   0  0  0  0  0  0  0  0  0  0  0  0
    8.4994  -32.8024  -12.8805 C   0  0  1  0  0  0  0  0  0  0  0  0
    5.0653  -36.6239  -15.3128 C   0  0  1  0  0  0  0  0  0  0  0  0
    9.2352  -31.7024  -12.3382 O   0  0  0  0  0  0  0  0  0  0  0  0
    4.0816  -36.9824  -16.2862 O   0  0  0  0  0  0  0  0  0  0  0  0
    7.0533  -32.3630  -13.0366 C   0  0  1  0  0  0  0  0  0  0  0  0
    5.9773  -35.5796  -15.9368 C   0  0  1  0  0  0  0  0  0  0  0  0
    6.2039  -33.1870  -12.2440 O   0  0  0  0  0  0  0  0  0  0  0  0
    7.3153  -36.0660  -15.9854 O   0  0  0  0  0  0  0  0  0  0  0  0
    6.9860  -30.9272  -12.5503 C   0  0  0  0  0  0  0  0  0  0  0  0
    5.4592  -35.3416  -17.3421 C   0  0  0  0  0  0  0  0  0  0  0  0
    8.3998  -30.5619  -12.1228 C   0  0  2  0  0  0  0  0  0  0  0  0
    4.2540  -36.2566  -17.5058 C   0  0  2  0  0  0  0  0  0  0  0  0
    8.8986  -28.5275  -16.9385 N   0  0  0  0  0  0  0  0  0  0  0  0
    8.3500  -29.6902  -16.5402 C   0  0  0  0  0  0  0  0  0  0  0  0
    8.2914  -30.0879  -15.2559 N   0  0  0  0  0  0  0  0  0  0  0  0
    8.7964  -29.3147  -14.2649 C   0  0  0  0  0  0  0  0  0  0  0  0
    9.4131  -28.0270  -14.6203 C   0  0  0  0  0  0  0  0  0  0  0  0
    9.4405  -27.6588  -16.0558 C   0  0  0  0  0  0  0  0  0  0  0  0
    9.9890  -26.4909  -16.4691 N   0  0  0  0  0  0  0  0  0  0  0  0
    9.8269  -27.4683  -13.4675 N   0  0  0  0  0  0  0  0  0  0  0  0
    9.5045  -28.3218  -12.4621 C   0  0  0  0  0  0  0  0  0  0  0  0
    8.8901  -29.4223  -12.9372 N   0  0  0  0  0  0  0  0  0  0  0  0
   -0.0968  -35.7339  -20.3989 N   0  0  0  0  0  0  0  0  0  0  0  0
    0.8566  -36.6833  -20.4297 C   0  0  0  0  0  0  0  0  0  0  0  0
    1.9303  -36.6910  -19.6192 N   0  0  0  0  0  0  0  0  0  0  0  0
    2.1134  -35.7122  -18.7003 C   0  0  0  0  0  0  0  0  0  0  0  0
    1.1132  -34.6377  -18.6051 C   0  0  0  0  0  0  0  0  0  0  0  0
   -0.0413  -34.6997  -19.5322 C   0  0  0  0  0  0  0  0  0  0  0  0
   -1.0085  -33.7499  -19.5105 N   0  0  0  0  0  0  0  0  0  0  0  0
    1.5303  -33.8106  -17.6279 N   0  0  0  0  0  0  0  0  0  0  0  0
    2.6949  -34.3112  -17.1409 C   0  0  0  0  0  0  0  0  0  0  0  0
    3.0423  -35.4436  -17.7797 N   0  0  0  0  0  0  0  0  0  0  0  0
  1  3  1  1  0  0  0
  1  5  2  0  0  0  0
  1  9  1  0  0  0  0
  1 18  1  0  0  0  0
  2  4  1  6  0  0  0
  2  6  2  0  0  0  0
  2 10  1  0  0  0  0
  2 17  1  0  0  0  0
  7  9  1  0  0  0  0
  8 10  1  0  0  0  0
 11  7  1  6  0  0  0
 11 13  1  0  0  0  0
 11 15  1  0  0  0  0
 12  8  1  1  0  0  0
 12 14  1  0  0  0  0
 12 16  1  0  0  0  0
 13 21  1  0  0  0  0
 14 22  1  0  0  0  0
 15 17  1  1  0  0  0
 15 19  1  0  0  0  0
 16 18  1  6  0  0  0
 16 20  1  0  0  0  0
 19 21  1  0  0  0  0
 20 22  1  0  0  0  0
 21 32  1  6  0  0  0
 22 42  1  1  0  0  0
 23 24  2  0  0  0  0
 23 28  1  0  0  0  0
 24 25  1  0  0  0  0
 25 26  2  0  0  0  0
 26 27  1  0  0  0  0
 26 32  1  0  0  0  0
 27 28  2  0  0  0  0
 27 30  1  0  0  0  0
 28 29  1  0  0  0  0
 30 31  2  0  0  0  0
 31 32  1  0  0  0  0
 33 34  2  0  0  0  0
 33 38  1  0  0  0  0
 34 35  1  0  0  0  0
 35 36  2  0  0  0  0
 36 37  1  0  0  0  0
 36 42  1  0  0  0  0
 37 38  2  0  0  0  0
 37 40  1  0  0  0  0
 38 39  1  0  0  0  0
 40 41  2  0  0  0  0
 41 42  1  0  0  0  0
M  CHG  2   3  -1   4  -1
M  END
>  <CHROM.1>
71.58925113,-105.58437121,6.01361892,-33.22295888,-15.48942023,-0.31967626
0.74341739,2.65506622

>  <Name>
ligand

>  <RI>
0

>  <Rbt.Current_Directory>
/home/itssahil/PROJECTS/Mol_Feturizer/New_Systems/rnas/4QLN

>  <Rbt.Executable>
rbdock ($Id: //depot/dev/client3/rdock/2013.1/src/exe/rbdock.cxx#4 $)

>  <Rbt.Library>
libRbt.so (2013.1, Build901 2013/11/27)

>  <Rbt.Parameter_File>
/export/apps/rDock/src/rDock_2013.1_src/data/scripts/dock_solv.prm

>  <Rbt.Receptor>
prm/pocket_docking_2.prm

>  <SCORE>
-30.769

>  <SCORE.INTER>
-31.408

>  <SCORE.INTER.CONST>
1

>  <SCORE.INTER.POLAR>
0

>  <SCORE.INTER.ROT>
2

>  <SCORE.INTER.SOLV>
31.9478

>  <SCORE.INTER.VDW>
-36.5213

>  <SCORE.INTER.norm>
-0.74781

>  <SCORE.INTRA>
0.433841

>  <SCORE.INTRA.DIHEDRAL>
-0.000216657

>  <SCORE.INTRA.DIHEDRAL.0>
2.39985

>  <SCORE.INTRA.POLAR>
0

>  <SCORE.INTRA.POLAR.0>
0

>  <SCORE.INTRA.REPUL>
0

>  <SCORE.INTRA.REPUL.0>
0

>  <SCORE.INTRA.SOLV>
-0.0117449

>  <SCORE.INTRA.SOLV.lig_0>
-110.958

>  <SCORE.INTRA.VDW>
0.439822

>  <SCORE.INTRA.VDW.0>
-2.34644

>  <SCORE.INTRA.norm>
0.0103295

>  <SCORE.RESTR>
0.20515

>  <SCORE.RESTR.CAVITY>
0.20515

>  <SCORE.RESTR.norm>
0.00488452

>  <SCORE.SYSTEM>
0

>  <SCORE.SYSTEM.CONST>
0

>  <SCORE.SYSTEM.DIHEDRAL>
0

>  <SCORE.SYSTEM.SOLV>
0

>  <SCORE.SYSTEM.norm>
0

>  <SCORE.heavy>
42

>  <SCORE.norm>
-0.732596

>  <RMSD>
2.183

$$$$
ligand
 OpenBabel11021811513D
libRbt.so/2013.1/901 2013/11/27
 42 48  0  0  0  0  0  0  0  0999 V2000
    8.5499  -35.0461  -16.0264 P   0  0  2  0  0  0  0  0  0  0  0  0
    4.8336  -33.7812  -12.8477 P   0  0  1  0  0  0  0  0  0  0  0  0
    9.7678  -35.7512  -15.4764 O   0  5  0  0  0  0  0  0  0  0  0  0
    4.4718  -32.9719  -14.0702 O   0  5  0  0  0  0  0  0  0  0  0  0
    8.5946  -34.4302  -17.4043 O   0  0  0  0  0  0  0  0  0  0  0  0
    3.8381  -33.9342  -11.7230 O   0  0  0  0  0  0  0  0  0  0  0  0
    9.0948  -33.2138  -14.2090 C   0  0  0  0  0  0  0  0  0  0  0  0
    4.3721  -36.0818  -14.0509 C   0  0  0  0  0  0  0  0  0  0  0  0
    8.1125  -33.9054  -14.9783 O   0  0  0  0  0  0  0  0  0  0  0  0
    5.2795  -35.2513  -13.3301 O   0  0  0  0  0  0  0  0  0  0  0  0
    8.4939  -32.8020  -12.8704 C   0  0  1  0  0  0  0  0  0  0  0  0
    5.0576  -36.6239  -15.2988 C   0  0  1  0  0  0  0  0  0  0  0  0
    9.2304  -31.7019  -12.3293 O   0  0  0  0  0  0  0  0  0  0  0  0
    4.0740  -36.9830  -16.2721 O   0  0  0  0  0  0  0  0  0  0  0  0
    7.0483  -32.3615  -13.0278 C   0  0  1  0  0  0  0  0  0  0  0  0
    5.9708  -35.5814  -15.9239 C   0  0  1  0  0  0  0  0  0  0  0  0
    6.1977  -33.1837  -12.2344 O   0  0  0  0  0  0  0  0  0  0  0  0
    7.3084  -36.0690  -15.9712 O   0  0  0  0  0  0  0  0  0  0  0  0
    6.9820  -30.9250  -12.5435 C   0  0  0  0  0  0  0  0  0  0  0  0
    5.4536  -35.3449  -17.3297 C   0  0  0  0  0  0  0  0  0  0  0  0
    8.3959  -30.5603  -12.1159 C   0  0  2  0  0  0  0  0  0  0  0  0
    4.2476  -36.2591  -17.4927 C   0  0  2  0  0  0  0  0  0  0  0  0
    8.8957  -28.5318  -16.9339 N   0  0  0  0  0  0  0  0  0  0  0  0
    8.3455  -29.6931  -16.5342 C   0  0  0  0  0  0  0  0  0  0  0  0
    8.2869  -30.0894  -15.2494 N   0  0  0  0  0  0  0  0  0  0  0  0
    8.7935  -29.3160  -14.2595 C   0  0  0  0  0  0  0  0  0  0  0  0
    9.4120  -28.0296  -14.6165 C   0  0  0  0  0  0  0  0  0  0  0  0
    9.4393  -27.6629  -16.0524 C   0  0  0  0  0  0  0  0  0  0  0  0
    9.9895  -26.4963  -16.4671 N   0  0  0  0  0  0  0  0  0  0  0  0
    9.8272  -27.4704  -13.4644 N   0  0  0  0  0  0  0  0  0  0  0  0
    9.5039  -28.3224  -12.4580 C   0  0  0  0  0  0  0  0  0  0  0  0
    8.8876  -29.4224  -12.9317 N   0  0  0  0  0  0  0  0  0  0  0  0
   -0.1001  -35.7354  -20.3903 N   0  0  0  0  0  0  0  0  0  0  0  0
    0.8527  -36.6855  -20.4195 C   0  0  0  0  0  0  0  0  0  0  0  0
    1.9256  -36.6934  -19.6080 N   0  0  0  0  0  0  0  0  0  0  0  0
    2.1086  -35.7140  -18.6896 C   0  0  0  0  0  0  0  0  0  0  0  0
    1.1090  -34.6387  -18.5961 C   0  0  0  0  0  0  0  0  0  0  0  0
   -0.0446  -34.7006  -19.5243 C   0  0  0  0  0  0  0  0  0  0  0  0
   -1.0111  -33.7501  -19.5041 N   0  0  0  0  0  0  0  0  0  0  0  0
    1.5258  -33.8113  -17.6191 N   0  0  0  0  0  0  0  0  0  0  0  0
    2.6896  -34.3123  -17.1307 C   0  0  0  0  0  0  0  0  0  0  0  0
    3.0368  -35.4454  -17.7683 N   0  0  0  0  0  0  0  0  0  0  0  0
  1  3  1  1  0  0  0
  1  5  2  0  0  0  0
  1  9  1  0  0  0  0
  1 18  1  0  0  0  0
  2  4  1  6  0  0  0
  2  6  2  0  0  0  0
  2 10  1  0  0  0  0
  2 17  1  0  0  0  0
  7  9  1  0  0  0  0
  8 10  1  0  0  0  0
 11  7  1  6  0  0  0
 11 13  1  0  0  0  0
 11 15  1  0  0  0  0
 12  8  1  1  0  0  0
 12 14  1  0  0  0  0
 12 16  1  0  0  0  0
 13 21  1  0  0  0  0
 14 22  1  0  0  0  0
 15 17  1  1  0  0  0
 15 19  1  0  0  0  0
 16 18  1  6  0  0  0
 16 20  1  0  0  0  0
 19 21  1  0  0  0  0
 20 22  1  0  0  0  0
 21 32  1  6  0  0  0
 22 42  1  1  0  0  0
 23 24  2  0  0  0  0
 23 28  1  0  0  0  0
 24 25  1  0  0  0  0
 25 26  2  0  0  0  0
 26 27  1  0  0  0  0
 26 32  1  0  0  0  0
 27 28  2  0  0  0  0
 27 30  1  0  0  0  0
 28 29  1  0  0  0  0
 30 31  2  0  0  0  0
 31 32  1  0  0  0  0
 33 34  2  0  0  0  0
 33 38  1  0  0  0  0
 34 35  1  0  0  0  0
 35 36  2  0  0  0  0
 36 37  1  0  0  0  0
 36 42  1  0  0  0  0
 37 38  2  0  0  0  0
 37 40  1  0  0  0  0
 38 39  1  0  0  0  0
 40 41  2  0  0  0  0
 41 42  1  0  0  0  0
M  CHG  2   3  -1   4  -1
M  END
>  <CHROM.1>
71.65708075,-105.63401219,6.00882709,-33.22389872,-15.47994303,-0.31847015
0.74348943,2.65302025

>  <Name>
ligand

>  <RI>
0

>  <Rbt.Current_Directory>
/home/itssahil/PROJECTS/Mol_Feturizer/New_Systems/rnas/4QLN

>  <Rbt.Executable>
rbdock ($Id: //depot/dev/client3/rdock/2013.1/src/exe/rbdock.cxx#4 $)

>  <Rbt.Library>
libRbt.so (2013.1, Build901 2013/11/27)

>  <Rbt.Parameter_File>
/export/apps/rDock/src/rDock_2013.1_src/data/scripts/dock_solv.prm

>  <Rbt.Receptor>
prm/pocket_docking_2.prm

>  <SCORE>
-30.7477

>  <SCORE.INTER>
-31.3811

>  <SCORE.INTER.CONST>
1

>  <SCORE.INTER.POLAR>
0

>  <SCORE.INTER.ROT>
2

>  <SCORE.INTER.SOLV>
31.9494

>  <SCORE.INTER.VDW>
-36.5039

>  <SCORE.INTER.norm>
-0.747169

>  <SCORE.INTRA>
0.435095

>  <SCORE.INTRA.DIHEDRAL>
-0.000214467

>  <SCORE.INTRA.DIHEDRAL.0>
2.39985

>  <SCORE.INTRA.POLAR>
0

>  <SCORE.INTRA.POLAR.0>
0

>  <SCORE.INTRA.REPUL>
0

>  <SCORE.INTRA.REPUL.0>
0

>  <SCORE.INTRA.SOLV>
-0.0117694

>  <SCORE.INTRA.SOLV.lig_0>
-110.958

>  <SCORE.INTRA.VDW>
0.441087

>  <SCORE.INTRA.VDW.0>
-2.34644

>  <SCORE.INTRA.norm>
0.0103594

>  <SCORE.RESTR>
0.198285

>  <SCORE.RESTR.CAVITY>
0.198285

>  <SCORE.RESTR.norm>
0.00472107

>  <SCORE.SYSTEM>
0

>  <SCORE.SYSTEM.CONST>
0

>  <SCORE.SYSTEM.DIHEDRAL>
0

>  <SCORE.SYSTEM.SOLV>
0

>  <SCORE.SYSTEM.norm>
0

>  <SCORE.heavy>
42

>  <SCORE.norm>
-0.732088

>  <RMSD>
2.183

$$$$
ligand
 OpenBabel11021811513D
libRbt.so/2013.1/901 2013/11/27
 42 48  0  0  0  0  0  0  0  0999 V2000
    3.2282  -35.7601  -12.9966 P   0  0  2  0  0  0  0  0  0  0  0  0
    7.2578  -36.0532  -16.0282 P   0  0  1  0  0  0  0  0  0  0  0  0
    2.6637  -37.0345  -12.4133 O   0  5  0  0  0  0  0  0  0  0  0  0
    6.7852  -34.6434  -16.2920 O   0  5  0  0  0  0  0  0  0  0  0  0
    2.4129  -34.4897  -12.9605 O   0  0  0  0  0  0  0  0  0  0  0  0
    8.6162  -36.4966  -16.5155 O   0  0  0  0  0  0  0  0  0  0  0  0
    2.9000  -36.9685  -15.3181 C   0  0  0  0  0  0  0  0  0  0  0  0
    7.9275  -35.5208  -13.5339 C   0  0  0  0  0  0  0  0  0  0  0  0
    3.6462  -36.0477  -14.5242 O   0  0  0  0  0  0  0  0  0  0  0  0
    7.1777  -36.3234  -14.4430 O   0  0  0  0  0  0  0  0  0  0  0  0
    3.8225  -37.6208  -16.3408 C   0  0  1  0  0  0  0  0  0  0  0  0
    7.0150  -35.0233  -12.4200 C   0  0  1  0  0  0  0  0  0  0  0  0
    3.0519  -38.1118  -17.4411 O   0  0  0  0  0  0  0  0  0  0  0  0
    7.5657  -33.8394  -11.8378 O   0  0  0  0  0  0  0  0  0  0  0  0
    4.8312  -36.6246  -16.8872 C   0  0  1  0  0  0  0  0  0  0  0  0
    5.6323  -34.6800  -12.9511 C   0  0  1  0  0  0  0  0  0  0  0  0
    6.1560  -37.0711  -16.6145 O   0  0  0  0  0  0  0  0  0  0  0  0
    4.6463  -35.4696  -12.2928 O   0  0  0  0  0  0  0  0  0  0  0  0
    4.6024  -36.5599  -18.3858 C   0  0  0  0  0  0  0  0  0  0  0  0
    5.4088  -33.2108  -12.6489 C   0  0  0  0  0  0  0  0  0  0  0  0
    3.4604  -37.5218  -18.6782 C   0  0  2  0  0  0  0  0  0  0  0  0
    6.6699  -32.7303  -11.9450 C   0  0  2  0  0  0  0  0  0  0  0  0
    0.3558  -33.2966  -18.3832 N   0  0  0  0  0  0  0  0  0  0  0  0
    1.3776  -33.6792  -17.5954 C   0  0  0  0  0  0  0  0  0  0  0  0
    2.0937  -34.8015  -17.7923 N   0  0  0  0  0  0  0  0  0  0  0  0
    1.8159  -35.6310  -18.8265 C   0  0  0  0  0  0  0  0  0  0  0  0
    0.7119  -35.2810  -19.7340 C   0  0  0  0  0  0  0  0  0  0  0  0
   -0.0304  -34.0295  -19.4514 C   0  0  0  0  0  0  0  0  0  0  0  0
   -1.0603  -33.6333  -20.2376 N   0  0  0  0  0  0  0  0  0  0  0  0
    0.6508  -36.2574  -20.6587 N   0  0  0  0  0  0  0  0  0  0  0  0
    1.6285  -37.1541  -20.3699 C   0  0  0  0  0  0  0  0  0  0  0  0
    2.3232  -36.7807  -19.2780 N   0  0  0  0  0  0  0  0  0  0  0  0
    7.7048  -30.8639  -16.7427 N   0  0  0  0  0  0  0  0  0  0  0  0
    7.0436  -31.9746  -16.3679 C   0  0  0  0  0  0  0  0  0  0  0  0
    6.8514  -32.3333  -15.0857 N   0  0  0  0  0  0  0  0  0  0  0  0
    7.3285  -31.5705  -14.0725 C   0  0  0  0  0  0  0  0  0  0  0  0
    8.0627  -30.3390  -14.4017 C   0  0  0  0  0  0  0  0  0  0  0  0
    8.2327  -30.0123  -15.8372 C   0  0  0  0  0  0  0  0  0  0  0  0
    8.8960  -28.8961  -16.2274 N   0  0  0  0  0  0  0  0  0  0  0  0
    8.4193  -29.7799  -13.2299 N   0  0  0  0  0  0  0  0  0  0  0  0
    7.9547  -30.5827  -12.2382 C   0  0  0  0  0  0  0  0  0  0  0  0
    7.3052  -31.6492  -12.7399 N   0  0  0  0  0  0  0  0  0  0  0  0
  1  3  1  1  0  0  0
  1  5  2  0  0  0  0
  1  9  1  0  0  0  0
  1 18  1  0  0  0  0
  2  4  1  6  0  0  0
  2  6  2  0  0  0  0
  2 10  1  0  0  0  0
  2 17  1  0  0  0  0
  7  9  1  0  0  0  0
  8 10  1  0  0  0  0
 11  7  1  1  0  0  0
 11 13  1  0  0  0  0
 11 15  1  0  0  0  0
 12  8  1  6  0  0  0
 12 14  1  0  0  0  0
 12 16  1  0  0  0  0
 13 21  1  0  0  0  0
 14 22  1  0  0  0  0
 15 17  1  6  0  0  0
 15 19  1  0  0  0  0
 16 18  1  1  0  0  0
 16 20  1  0  0  0  0
 19 21  1  0  0  0  0
 20 22  1  0  0  0  0
 21 32  1  1  0  0  0
 22 42  1  6  0  0  0
 23 24  2  0  0  0  0
 23 28  1  0  0  0  0
 24 25  1  0  0  0  0
 25 26  2  0  0  0  0
 26 27  1  0  0  0  0
 26 32  1  0  0  0  0
 27 28  2  0  0  0  0
 27 30  1  0  0  0  0
 28 29  1  0  0  0  0
 30 31  2  0  0  0  0
 31 32  1  0  0  0  0
 33 34  2  0  0  0  0
 33 38  1  0  0  0  0
 34 35  1  0  0  0  0
 35 36  2  0  0  0  0
 36 37  1  0  0  0  0
 36 42  1  0  0  0  0
 37 38  2  0  0  0  0
 37 40  1  0  0  0  0
 38 39  1  0  0  0  0
 40 41  2  0  0  0  0
 41 42  1  0  0  0  0
M  CHG  2   3  -1   4  -1
M  END
>  <CHROM.1>
71.48636828,83.43483518,4.88311150,-34.60048746,-15.64214236,3.08712175,-0.80106582
-0.71150005

>  <Name>
ligand

>  <RI>
0

>  <Rbt.Current_Directory>
/home/itssahil/PROJECTS/Mol_Feturizer/New_Systems/rnas/4QLN

>  <Rbt.Executable>
rbdock ($Id: //depot/dev/client3/rdock/2013.1/src/exe/rbdock.cxx#4 $)

>  <Rbt.Library>
libRbt.so (2013.1, Build901 2013/11/27)

>  <Rbt.Parameter_File>
/export/apps/rDock/src/rDock_2013.1_src/data/scripts/dock_solv.prm

>  <Rbt.Receptor>
prm/pocket_docking_4.prm

>  <SCORE>
-25.0378

>  <SCORE.INTER>
-25.9666

>  <SCORE.INTER.CONST>
1

>  <SCORE.INTER.POLAR>
0

>  <SCORE.INTER.ROT>
2

>  <SCORE.INTER.SOLV>
27.7235

>  <SCORE.INTER.VDW>
-31.4855

>  <SCORE.INTER.norm>
-0.618252

>  <SCORE.INTRA>
0.928795

>  <SCORE.INTRA.DIHEDRAL>
0.00100571

>  <SCORE.INTRA.DIHEDRAL.0>
2.39985

>  <SCORE.INTRA.POLAR>
0

>  <SCORE.INTRA.POLAR.0>
0

>  <SCORE.INTRA.REPUL>
0

>  <SCORE.INTRA.REPUL.0>
0

>  <SCORE.INTRA.SOLV>
0.926865

>  <SCORE.INTRA.SOLV.lig_0>
-110.958

>  <SCORE.INTRA.VDW>
0.464859

>  <SCORE.INTRA.VDW.0>
-2.34644

>  <SCORE.INTRA.norm>
0.0221142

>  <SCORE.RESTR>
0

>  <SCORE.RESTR.CAVITY>
0

>  <SCORE.RESTR.norm>
0

>  <SCORE.SYSTEM>
0

>  <SCORE.SYSTEM.CONST>
0

>  <SCORE.SYSTEM.DIHEDRAL>
0

>  <SCORE.SYSTEM.SOLV>
0

>  <SCORE.SYSTEM.norm>
0

>  <SCORE.heavy>
42

>  <SCORE.norm>
-0.596138

>  <RMSD>
2.183

$$$$
ligand
 OpenBabel11021811513D
libRbt.so/2013.1/901 2013/11/27
 42 48  0  0  0  0  0  0  0  0999 V2000
    8.5616  -35.0429  -16.0161 P   0  0  2  0  0  0  0  0  0  0  0  0
    4.8596  -33.7688  -12.8246 P   0  0  1  0  0  0  0  0  0  0  0  0
    9.7840  -35.7423  -15.4688 O   0  5  0  0  0  0  0  0  0  0  0  0
    4.4894  -32.9670  -14.0495 O   0  5  0  0  0  0  0  0  0  0  0  0
    8.5976  -34.4345  -17.3976 O   0  0  0  0  0  0  0  0  0  0  0  0
    3.8704  -33.9178  -11.6937 O   0  0  0  0  0  0  0  0  0  0  0  0
    9.1122  -33.1994  -14.2118 C   0  0  0  0  0  0  0  0  0  0  0  0
    4.3968  -36.0770  -14.0126 C   0  0  0  0  0  0  0  0  0  0  0  0
    8.1273  -33.8974  -14.9719 O   0  0  0  0  0  0  0  0  0  0  0  0
    5.3061  -35.2405  -13.3012 O   0  0  0  0  0  0  0  0  0  0  0  0
    8.5174  -32.7816  -12.8722 C   0  0  1  0  0  0  0  0  0  0  0  0
    5.0768  -36.6245  -15.2611 C   0  0  1  0  0  0  0  0  0  0  0  0
    9.2544  -31.6769  -12.3411 O   0  0  0  0  0  0  0  0  0  0  0  0
    4.0888  -36.9911  -16.2272 O   0  0  0  0  0  0  0  0  0  0  0  0
    7.0701  -32.3452  -13.0243 C   0  0  1  0  0  0  0  0  0  0  0  0
    5.9843  -35.5833  -15.8968 C   0  0  1  0  0  0  0  0  0  0  0  0
    6.2256  -33.1649  -12.2219 O   0  0  0  0  0  0  0  0  0  0  0  0
    7.3227  -36.0683  -15.9486 O   0  0  0  0  0  0  0  0  0  0  0  0
    7.0032  -30.9062  -12.5476 C   0  0  0  0  0  0  0  0  0  0  0  0
    5.4591  -35.3558  -17.3011 C   0  0  0  0  0  0  0  0  0  0  0  0
    8.4184  -30.5360  -12.1295 C   0  0  2  0  0  0  0  0  0  0  0  0
    4.2543  -36.2735  -17.4527 C   0  0  2  0  0  0  0  0  0  0  0  0
    8.8931  -28.5356  -16.9619 N   0  0  0  0  0  0  0  0  0  0  0  0
    8.3484  -29.6963  -16.5529 C   0  0  0  0  0  0  0  0  0  0  0  0
    8.2960  -30.0848  -15.2655 N   0  0  0  0  0  0  0  0  0  0  0  0
    8.8038  -29.3036  -14.2823 C   0  0  0  0  0  0  0  0  0  0  0  0
    9.4166  -28.0174  -14.6495 C   0  0  0  0  0  0  0  0  0  0  0  0
    9.4372  -27.6595  -16.0878 C   0  0  0  0  0  0  0  0  0  0  0  0
    9.9818  -26.4937  -16.5118 N   0  0  0  0  0  0  0  0  0  0  0  0
    9.8342  -27.4497  -13.5025 N   0  0  0  0  0  0  0  0  0  0  0  0
    9.5177  -28.2965  -12.4897 C   0  0  0  0  0  0  0  0  0  0  0  0
    8.9032  -29.4015  -12.9542 N   0  0  0  0  0  0  0  0  0  0  0  0
   -0.0846  -35.7486  -20.3631 N   0  0  0  0  0  0  0  0  0  0  0  0
    0.8734  -36.6934  -20.3965 C   0  0  0  0  0  0  0  0  0  0  0  0
    1.9431  -36.7023  -19.5808 N   0  0  0  0  0  0  0  0  0  0  0  0
    2.1171  -35.7298  -18.6535 C   0  0  0  0  0  0  0  0  0  0  0  0
    1.1114  -34.6608  -18.5549 C   0  0  0  0  0  0  0  0  0  0  0  0
   -0.0382  -34.7210  -19.4882 C   0  0  0  0  0  0  0  0  0  0  0  0
   -1.0099  -33.7759  -19.4639 N   0  0  0  0  0  0  0  0  0  0  0  0
    1.5198  -33.8394  -17.5693 N   0  0  0  0  0  0  0  0  0  0  0  0
    2.6843  -34.3382  -17.0805 C   0  0  0  0  0  0  0  0  0  0  0  0
    3.0402  -35.4640  -17.7262 N   0  0  0  0  0  0  0  0  0  0  0  0
  1  3  1  1  0  0  0
  1  5  2  0  0  0  0
  1  9  1  0  0  0  0
  1 18  1  0  0  0  0
  2  4  1  6  0  0  0
  2  6  2  0  0  0  0
  2 10  1  0  0  0  0
  2 17  1  0  0  0  0
  7  9  1  0  0  0  0
  8 10  1  0  0  0  0
 11  7  1  6  0  0  0
 11 13  1  0  0  0  0
 11 15  1  0  0  0  0
 12  8  1  1  0  0  0
 12 14  1  0  0  0  0
 12 16  1  0  0  0  0
 13 21  1  0  0  0  0
 14 22  1  0  0  0  0
 15 17  1  1  0  0  0
 15 19  1  0  0  0  0
 16 18  1  6  0  0  0
 16 20  1  0  0  0  0
 19 21  1  0  0  0  0
 20 22  1  0  0  0  0
 21 32  1  6  0  0  0
 22 42  1  1  0  0  0
 23 24  2  0  0  0  0
 23 28  1  0  0  0  0
 24 25  1  0  0  0  0
 25 26  2  0  0  0  0
 26 27  1  0  0  0  0
 26 32  1  0  0  0  0
 27 28  2  0  0  0  0
 27 30  1  0  0  0  0
 28 29  1  0  0  0  0
 30 31  2  0  0  0  0
 31 32  1  0  0  0  0
 33 34  2  0  0  0  0
 33 38  1  0  0  0  0
 34 35  1  0  0  0  0
 35 36  2  0  0  0  0
 36 37  1  0  0  0  0
 36 42  1  0  0  0  0
 37 38  2  0  0  0  0
 37 40  1  0  0  0  0
 38 39  1  0  0  0  0
 40 41  2  0  0  0  0
 41 42  1  0  0  0  0
M  CHG  2   3  -1   4  -1
M  END
>  <CHROM.1>
71.54249476,-106.61356128,6.02194217,-33.22138546,-15.46885019,-0.31924822
0.74242039,2.64597119

>  <Name>
ligand

>  <RI>
0

>  <Rbt.Current_Directory>
/home/itssahil/PROJECTS/Mol_Feturizer/New_Systems/rnas/4QLN

>  <Rbt.Executable>
rbdock ($Id: //depot/dev/client3/rdock/2013.1/src/exe/rbdock.cxx#4 $)

>  <Rbt.Library>
libRbt.so (2013.1, Build901 2013/11/27)

>  <Rbt.Parameter_File>
/export/apps/rDock/src/rDock_2013.1_src/data/scripts/dock_solv.prm

>  <Rbt.Receptor>
prm/pocket_docking_2.prm

>  <SCORE>
-30.6777

>  <SCORE.INTER>
-31.301

>  <SCORE.INTER.CONST>
1

>  <SCORE.INTER.POLAR>
0

>  <SCORE.INTER.ROT>
2

>  <SCORE.INTER.SOLV>
31.9006

>  <SCORE.INTER.VDW>
-36.4342

>  <SCORE.INTER.norm>
-0.745262

>  <SCORE.INTRA>
0.411668

>  <SCORE.INTRA.DIHEDRAL>
-0.000186895

>  <SCORE.INTRA.DIHEDRAL.0>
2.39985

>  <SCORE.INTRA.POLAR>
0

>  <SCORE.INTRA.POLAR.0>
0

>  <SCORE.INTRA.REPUL>
0

>  <SCORE.INTRA.REPUL.0>
0

>  <SCORE.INTRA.SOLV>
-0.0109718

>  <SCORE.INTRA.SOLV.lig_0>
-110.958

>  <SCORE.INTRA.VDW>
0.417247

>  <SCORE.INTRA.VDW.0>
-2.34644

>  <SCORE.INTRA.norm>
0.00980162

>  <SCORE.RESTR>
0.211664

>  <SCORE.RESTR.CAVITY>
0.211664

>  <SCORE.RESTR.norm>
0.00503962

>  <SCORE.SYSTEM>
0

>  <SCORE.SYSTEM.CONST>
0

>  <SCORE.SYSTEM.DIHEDRAL>
0

>  <SCORE.SYSTEM.SOLV>
0

>  <SCORE.SYSTEM.norm>
0

>  <SCORE.heavy>
42

>  <SCORE.norm>
-0.730421

>  <RMSD>
2.187

$$$$
ligand
 OpenBabel11021811513D
libRbt.so/2013.1/901 2013/11/27
 42 48  0  0  0  0  0  0  0  0999 V2000
    8.8384  -35.0678  -16.0114 P   0  0  2  0  0  0  0  0  0  0  0  0
    5.0253  -33.9348  -12.8984 P   0  0  1  0  0  0  0  0  0  0  0  0
   10.0716  -35.7275  -15.4396 O   0  5  0  0  0  0  0  0  0  0  0  0
    4.6551  -33.1407  -14.1283 O   0  5  0  0  0  0  0  0  0  0  0  0
    8.8841  -34.4524  -17.3895 O   0  0  0  0  0  0  0  0  0  0  0  0
    4.0171  -34.1224  -11.7903 O   0  0  0  0  0  0  0  0  0  0  0  0
    9.2856  -33.2146  -14.1885 C   0  0  0  0  0  0  0  0  0  0  0  0
    4.6681  -36.2521  -14.1048 C   0  0  0  0  0  0  0  0  0  0  0  0
    8.3422  -33.9424  -14.9730 O   0  0  0  0  0  0  0  0  0  0  0  0
    5.5324  -35.3883  -13.3704 O   0  0  0  0  0  0  0  0  0  0  0  0
    8.6475  -32.8233  -12.8610 C   0  0  1  0  0  0  0  0  0  0  0  0
    5.3939  -36.7706  -15.3399 C   0  0  1  0  0  0  0  0  0  0  0  0
    9.3343  -31.6964  -12.3096 O   0  0  0  0  0  0  0  0  0  0  0  0
    4.4407  -37.1664  -16.3291 O   0  0  0  0  0  0  0  0  0  0  0  0
    7.1897  -32.4358  -13.0436 C   0  0  1  0  0  0  0  0  0  0  0  0
    6.2791  -35.6963  -15.9515 C   0  0  1  0  0  0  0  0  0  0  0  0
    6.3562  -33.2873  -12.2632 O   0  0  0  0  0  0  0  0  0  0  0  0
    7.6341  -36.1351  -15.9752 O   0  0  0  0  0  0  0  0  0  0  0  0
    7.0631  -31.0020  -12.5633 C   0  0  0  0  0  0  0  0  0  0  0  0
    5.7776  -35.4806  -17.3663 C   0  0  0  0  0  0  0  0  0  0  0  0
    8.4553  -30.5856  -12.1125 C   0  0  2  0  0  0  0  0  0  0  0  0
    4.6085  -36.4382  -17.5480 C   0  0  2  0  0  0  0  0  0  0  0  0
    8.7259  -28.4284  -16.8928 N   0  0  0  0  0  0  0  0  0  0  0  0
    8.1811  -29.5934  -16.4961 C   0  0  0  0  0  0  0  0  0  0  0  0
    8.1856  -30.0250  -15.2214 N   0  0  0  0  0  0  0  0  0  0  0  0
    8.7557  -29.2865  -14.2393 C   0  0  0  0  0  0  0  0  0  0  0  0
    9.3729  -27.9987  -14.5936 C   0  0  0  0  0  0  0  0  0  0  0  0
    9.3286  -27.5920  -16.0183 C   0  0  0  0  0  0  0  0  0  0  0  0
    9.8727  -26.4215  -16.4298 N   0  0  0  0  0  0  0  0  0  0  0  0
    9.8572  -27.4778  -13.4507 N   0  0  0  0  0  0  0  0  0  0  0  0
    9.5760  -28.3536  -12.4522 C   0  0  0  0  0  0  0  0  0  0  0  0
    8.9192  -29.4316  -12.9220 N   0  0  0  0  0  0  0  0  0  0  0  0
    0.2810  -36.0912  -20.5016 N   0  0  0  0  0  0  0  0  0  0  0  0
    1.2663  -37.0080  -20.5106 C   0  0  0  0  0  0  0  0  0  0  0  0
    2.3288  -36.9715  -19.6864 N   0  0  0  0  0  0  0  0  0  0  0  0
    2.4667  -35.9782  -18.7752 C   0  0  0  0  0  0  0  0  0  0  0  0
    1.4296  -34.9373  -18.7036 C   0  0  0  0  0  0  0  0  0  0  0  0
    0.2902  -35.0474  -19.6448 C   0  0  0  0  0  0  0  0  0  0  0  0
   -0.7087  -34.1308  -19.6450 N   0  0  0  0  0  0  0  0  0  0  0  0
    1.8057  -34.0872  -17.7296 N   0  0  0  0  0  0  0  0  0  0  0  0
    2.9800  -34.5433  -17.2227 C   0  0  0  0  0  0  0  0  0  0  0  0
    3.3738  -35.6693  -17.8455 N   0  0  0  0  0  0  0  0  0  0  0  0
  1  3  1  1  0  0  0
  1  5  2  0  0  0  0
  1  9  1  0  0  0  0
  1 18  1  0  0  0  0
  2  4  1  6  0  0  0
  2  6  2  0  0  0  0
  2 10  1  0  0  0  0
  2 17  1  0  0  0  0
  7  9  1  0  0  0  0
  8 10  1  0  0  0  0
 11  7  1  6  0  0  0
 11 13  1  0  0  0  0
 11 15  1  0  0  0  0
 12  8  1  1  0  0  0
 12 14  1  0  0  0  0
 12 16  1  0  0  0  0
 13 21  1  0  0  0  0
 14 22  1  0  0  0  0
 15 17  1  1  0  0  0
 15 19  1  0  0  0  0
 16 18  1  6  0  0  0
 16 20  1  0  0  0  0
 19 21  1  0  0  0  0
 20 22  1  0  0  0  0
 21 32  1  6  0  0  0
 22 42  1  1  0  0  0
 23 24  2  0  0  0  0
 23 28  1  0  0  0  0
 24 25  1  0  0  0  0
 25 26  2  0  0  0  0
 26 27  1  0  0  0  0
 26 32  1  0  0  0  0
 27 28  2  0  0  0  0
 27 30  1  0  0  0  0
 28 29  1  0  0  0  0
 30 31  2  0  0  0  0
 31 32  1  0  0  0  0
 33 34  2  0  0  0  0
 33 38  1  0  0  0  0
 34 35  1  0  0  0  0
 35 36  2  0  0  0  0
 36 37  1  0  0  0  0
 36 42  1  0  0  0  0
 37 38  2  0  0  0  0
 37 40  1  0  0  0  0
 38 39  1  0  0  0  0
 40 41  2  0  0  0  0
 41 42  1  0  0  0  0
M  CHG  2   3  -1   4  -1
M  END
>  <CHROM.1>
76.90351431,-105.10525391,6.20342488,-33.32996173,-15.50724771,-0.38635826
0.76772935,2.72011561

>  <Name>
ligand

>  <RI>
0

>  <Rbt.Current_Directory>
/home/itssahil/PROJECTS/Mol_Feturizer/New_Systems/rnas/4QLN

>  <Rbt.Executable>
rbdock ($Id: //depot/dev/client3/rdock/2013.1/src/exe/rbdock.cxx#4 $)

>  <Rbt.Library>
libRbt.so (2013.1, Build901 2013/11/27)

>  <Rbt.Parameter_File>
/export/apps/rDock/src/rDock_2013.1_src/data/scripts/dock_solv.prm

>  <Rbt.Receptor>
prm/pocket_docking_6.prm

>  <SCORE>
-32.0206

>  <SCORE.INTER>
-32.7068

>  <SCORE.INTER.CONST>
1

>  <SCORE.INTER.POLAR>
0

>  <SCORE.INTER.ROT>
2

>  <SCORE.INTER.SOLV>
30.6271

>  <SCORE.INTER.VDW>
-36.9469

>  <SCORE.INTER.norm>
-0.778733

>  <SCORE.INTRA>
0.686135

>  <SCORE.INTRA.DIHEDRAL>
-0.000176948

>  <SCORE.INTRA.DIHEDRAL.0>
2.39985

>  <SCORE.INTRA.POLAR>
0

>  <SCORE.INTRA.POLAR.0>
0

>  <SCORE.INTRA.REPUL>
0

>  <SCORE.INTRA.REPUL.0>
0

>  <SCORE.INTRA.SOLV>
-0.0165487

>  <SCORE.INTRA.SOLV.lig_0>
-110.958

>  <SCORE.INTRA.VDW>
0.694498

>  <SCORE.INTRA.VDW.0>
-2.34644

>  <SCORE.INTRA.norm>
0.0163365

>  <SCORE.RESTR>
0

>  <SCORE.RESTR.CAVITY>
0

>  <SCORE.RESTR.norm>
0

>  <SCORE.SYSTEM>
0

>  <SCORE.SYSTEM.CONST>
0

>  <SCORE.SYSTEM.DIHEDRAL>
0

>  <SCORE.SYSTEM.SOLV>
0

>  <SCORE.SYSTEM.norm>
0

>  <SCORE.heavy>
42

>  <SCORE.norm>
-0.762396

>  <RMSD>
2.188

$$$$
ligand
 OpenBabel11021811513D
libRbt.so/2013.1/901 2013/11/27
 42 48  0  0  0  0  0  0  0  0999 V2000
    3.8062  -33.6470  -12.7951 P   0  0  2  0  0  0  0  0  0  0  0  0
    7.4731  -36.3224  -15.0110 P   0  0  1  0  0  0  0  0  0  0  0  0
    2.9411  -34.3217  -11.7562 O   0  5  0  0  0  0  0  0  0  0  0  0
    7.3915  -35.1168  -15.9167 O   0  5  0  0  0  0  0  0  0  0  0  0
    3.3697  -32.3349  -13.4015 O   0  0  0  0  0  0  0  0  0  0  0  0
    8.6379  -37.2759  -15.1280 O   0  0  0  0  0  0  0  0  0  0  0  0
    3.0645  -35.6431  -14.3516 C   0  0  0  0  0  0  0  0  0  0  0  0
    8.3664  -34.9135  -12.9689 C   0  0  0  0  0  0  0  0  0  0  0  0
    4.0658  -34.6933  -13.9905 O   0  0  0  0  0  0  0  0  0  0  0  0
    7.3890  -35.8137  -13.4857 O   0  0  0  0  0  0  0  0  0  0  0  0
    3.7309  -36.9033  -14.8904 C   0  0  1  0  0  0  0  0  0  0  0  0
    7.6713  -33.7465  -12.2789 C   0  0  1  0  0  0  0  0  0  0  0  0
    2.8103  -37.6191  -15.7185 O   0  0  0  0  0  0  0  0  0  0  0  0
    8.5473  -32.6174  -12.2408 O   0  0  0  0  0  0  0  0  0  0  0  0
    4.9488  -36.5650  -15.7333 C   0  0  1  0  0  0  0  0  0  0  0  0
    6.4133  -33.3334  -13.0263 C   0  0  1  0  0  0  0  0  0  0  0  0
    6.1123  -37.1681  -15.1751 O   0  0  0  0  0  0  0  0  0  0  0  0
    5.2781  -33.4508  -12.1738 O   0  0  0  0  0  0  0  0  0  0  0  0
    4.6837  -37.1291  -17.1168 C   0  0  0  0  0  0  0  0  0  0  0  0
    6.6110  -31.8859  -13.4327 C   0  0  0  0  0  0  0  0  0  0  0  0
    3.3118  -37.7833  -17.0477 C   0  0  2  0  0  0  0  0  0  0  0  0
    7.9836  -31.4867  -12.9099 C   0  0  2  0  0  0  0  0  0  0  0  0
    0.6957  -33.4065  -18.3039 N   0  0  0  0  0  0  0  0  0  0  0  0
    1.5047  -33.6644  -17.2598 C   0  0  0  0  0  0  0  0  0  0  0  0
    2.1156  -34.8470  -17.0617 N   0  0  0  0  0  0  0  0  0  0  0  0
    1.9439  -35.8723  -17.9301 C   0  0  0  0  0  0  0  0  0  0  0  0
    1.0733  -35.6682  -19.0985 C   0  0  0  0  0  0  0  0  0  0  0  0
    0.4352  -34.3387  -19.2477 C   0  0  0  0  0  0  0  0  0  0  0  0
   -0.3804  -34.0667  -20.2948 N   0  0  0  0  0  0  0  0  0  0  0  0
    1.0765  -36.8254  -19.7865 N   0  0  0  0  0  0  0  0  0  0  0  0
    1.8778  -37.6944  -19.1188 C   0  0  0  0  0  0  0  0  0  0  0  0
    2.3951  -37.1264  -18.0124 N   0  0  0  0  0  0  0  0  0  0  0  0
   12.3519  -32.5227  -15.6335 N   0  0  0  0  0  0  0  0  0  0  0  0
   11.8254  -33.1512  -14.5661 C   0  0  0  0  0  0  0  0  0  0  0  0
   10.6849  -32.7712  -13.9623 N   0  0  0  0  0  0  0  0  0  0  0  0
    9.9844  -31.7021  -14.4118 C   0  0  0  0  0  0  0  0  0  0  0  0
   10.4957  -30.9623  -15.5760 C   0  0  0  0  0  0  0  0  0  0  0  0
   11.7581  -31.4429  -16.1857 C   0  0  0  0  0  0  0  0  0  0  0  0
   12.2980  -30.8188  -17.2615 N   0  0  0  0  0  0  0  0  0  0  0  0
    9.6231  -29.9640  -15.8099 N   0  0  0  0  0  0  0  0  0  0  0  0
    8.6401  -30.0562  -14.8775 C   0  0  0  0  0  0  0  0  0  0  0  0
    8.8553  -31.0912  -14.0448 N   0  0  0  0  0  0  0  0  0  0  0  0
  1  3  1  1  0  0  0
  1  5  2  0  0  0  0
  1  9  1  0  0  0  0
  1 18  1  0  0  0  0
  2  4  1  6  0  0  0
  2  6  2  0  0  0  0
  2 10  1  0  0  0  0
  2 17  1  0  0  0  0
  7  9  1  0  0  0  0
  8 10  1  0  0  0  0
 11  7  1  6  0  0  0
 11 13  1  0  0  0  0
 11 15  1  0  0  0  0
 12  8  1  6  0  0  0
 12 14  1  0  0  0  0
 12 16  1  0  0  0  0
 13 21  1  0  0  0  0
 14 22  1  0  0  0  0
 15 17  1  1  0  0  0
 15 19  1  0  0  0  0
 16 18  1  1  0  0  0
 16 20  1  0  0  0  0
 19 21  1  0  0  0  0
 20 22  1  0  0  0  0
 21 32  1  6  0  0  0
 22 42  1  6  0  0  0
 23 24  2  0  0  0  0
 23 28  1  0  0  0  0
 24 25  1  0  0  0  0
 25 26  2  0  0  0  0
 26 27  1  0  0  0  0
 26 32  1  0  0  0  0
 27 28  2  0  0  0  0
 27 30  1  0  0  0  0
 28 29  1  0  0  0  0
 30 31  2  0  0  0  0
 31 32  1  0  0  0  0
 33 34  2  0  0  0  0
 33 38  1  0  0  0  0
 34 35  1  0  0  0  0
 35 36  2  0  0  0  0
 36 37  1  0  0  0  0
 36 42  1  0  0  0  0
 37 38  2  0  0  0  0
 37 40  1  0  0  0  0
 38 39  1  0  0  0  0
 40 41  2  0  0  0  0
 41 42  1  0  0  0  0
M  CHG  2   3  -1   4  -1
M  END
>  <CHROM.1>
51.04874547,1.07729593,5.78860174,-34.31819574,-15.28297059,2.75356094,-0.37374996
-1.69309014

>  <Name>
ligand

>  <RI>
0

>  <Rbt.Current_Directory>
/home/itssahil/PROJECTS/Mol_Feturizer/New_Systems/rnas/4QLN

>  <Rbt.Executable>
rbdock ($Id: //depot/dev/client3/rdock/2013.1/src/exe/rbdock.cxx#4 $)

>  <Rbt.Library>
libRbt.so (2013.1, Build901 2013/11/27)

>  <Rbt.Parameter_File>
/export/apps/rDock/src/rDock_2013.1_src/data/scripts/dock_solv.prm

>  <Rbt.Receptor>
prm/pocket_docking_6.prm

>  <SCORE>
-17.3484

>  <SCORE.INTER>
-17.1746

>  <SCORE.INTER.CONST>
1

>  <SCORE.INTER.POLAR>
0

>  <SCORE.INTER.ROT>
2

>  <SCORE.INTER.SOLV>
28.5234

>  <SCORE.INTER.VDW>
-25.8909

>  <SCORE.INTER.norm>
-0.40892

>  <SCORE.INTRA>
-0.173784

>  <SCORE.INTRA.DIHEDRAL>
-1.07583e-05

>  <SCORE.INTRA.DIHEDRAL.0>
2.39985

>  <SCORE.INTRA.POLAR>
0

>  <SCORE.INTRA.POLAR.0>
0

>  <SCORE.INTRA.REPUL>
0

>  <SCORE.INTRA.REPUL.0>
0

>  <SCORE.INTRA.SOLV>
-0.00326927

>  <SCORE.INTRA.SOLV.lig_0>
-110.958

>  <SCORE.INTRA.VDW>
-0.172144

>  <SCORE.INTRA.VDW.0>
-2.34644

>  <SCORE.INTRA.norm>
-0.00413772

>  <SCORE.RESTR>
0

>  <SCORE.RESTR.CAVITY>
0

>  <SCORE.RESTR.norm>
0

>  <SCORE.SYSTEM>
0

>  <SCORE.SYSTEM.CONST>
0

>  <SCORE.SYSTEM.DIHEDRAL>
0

>  <SCORE.SYSTEM.SOLV>
0

>  <SCORE.SYSTEM.norm>
0

>  <SCORE.heavy>
42

>  <SCORE.norm>
-0.413058

>  <RMSD>
2.189

$$$$
ligand
 OpenBabel11021811513D
libRbt.so/2013.1/901 2013/11/27
 42 48  0  0  0  0  0  0  0  0999 V2000
    3.7934  -33.6722  -12.7550 P   0  0  2  0  0  0  0  0  0  0  0  0
    7.4492  -36.3446  -14.9927 P   0  0  1  0  0  0  0  0  0  0  0  0
    2.9293  -34.3500  -11.7173 O   0  5  0  0  0  0  0  0  0  0  0  0
    7.3680  -35.1344  -15.8924 O   0  5  0  0  0  0  0  0  0  0  0  0
    3.3583  -32.3562  -13.3540 O   0  0  0  0  0  0  0  0  0  0  0  0
    8.6116  -37.3000  -15.1172 O   0  0  0  0  0  0  0  0  0  0  0  0
    3.0436  -35.6590  -14.3194 C   0  0  0  0  0  0  0  0  0  0  0  0
    8.3504  -34.9476  -12.9459 C   0  0  0  0  0  0  0  0  0  0  0  0
    4.0478  -34.7132  -13.9561 O   0  0  0  0  0  0  0  0  0  0  0  0
    7.3698  -35.8431  -13.4647 O   0  0  0  0  0  0  0  0  0  0  0  0
    3.7060  -36.9181  -14.8659 C   0  0  1  0  0  0  0  0  0  0  0  0
    7.6594  -33.7825  -12.2486 C   0  0  1  0  0  0  0  0  0  0  0  0
    2.7819  -37.6278  -15.6953 O   0  0  0  0  0  0  0  0  0  0  0  0
    8.5380  -32.6554  -12.2071 O   0  0  0  0  0  0  0  0  0  0  0  0
    4.9227  -36.5783  -15.7101 C   0  0  1  0  0  0  0  0  0  0  0  0
    6.4006  -33.3631  -12.9909 C   0  0  1  0  0  0  0  0  0  0  0  0
    6.0861  -37.1865  -15.1577 O   0  0  0  0  0  0  0  0  0  0  0  0
    5.2671  -33.4821  -12.1363 O   0  0  0  0  0  0  0  0  0  0  0  0
    4.6530  -37.1350  -17.0957 C   0  0  0  0  0  0  0  0  0  0  0  0
    6.6004  -31.9139  -13.3907 C   0  0  0  0  0  0  0  0  0  0  0  0
    3.2798  -37.7866  -17.0265 C   0  0  2  0  0  0  0  0  0  0  0  0
    7.9752  -31.5202  -12.8694 C   0  0  2  0  0  0  0  0  0  0  0  0
    0.7293  -33.3749  -18.2957 N   0  0  0  0  0  0  0  0  0  0  0  0
    1.5479  -33.6367  -17.2600 C   0  0  0  0  0  0  0  0  0  0  0  0
    2.1391  -34.8285  -17.0570 N   0  0  0  0  0  0  0  0  0  0  0  0
    1.9360  -35.8598  -17.9114 C   0  0  0  0  0  0  0  0  0  0  0  0
    1.0531  -35.6520  -19.0699 C   0  0  0  0  0  0  0  0  0  0  0  0
    0.4382  -34.3123  -19.2252 C   0  0  0  0  0  0  0  0  0  0  0  0
   -0.3868  -34.0365  -20.2639 N   0  0  0  0  0  0  0  0  0  0  0  0
    1.0249  -36.8165  -19.7448 N   0  0  0  0  0  0  0  0  0  0  0  0
    1.8189  -37.6932  -19.0784 C   0  0  0  0  0  0  0  0  0  0  0  0
    2.3623  -37.1231  -17.9857 N   0  0  0  0  0  0  0  0  0  0  0  0
   12.3805  -32.4984  -15.5542 N   0  0  0  0  0  0  0  0  0  0  0  0
   11.8612  -33.1239  -14.4816 C   0  0  0  0  0  0  0  0  0  0  0  0
   10.7094  -32.7605  -13.8894 N   0  0  0  0  0  0  0  0  0  0  0  0
    9.9889  -31.7125  -14.3569 C   0  0  0  0  0  0  0  0  0  0  0  0
   10.4913  -30.9772  -15.5278 C   0  0  0  0  0  0  0  0  0  0  0  0
   11.7672  -31.4387  -16.1240 C   0  0  0  0  0  0  0  0  0  0  0  0
   12.3001  -30.8174  -17.2048 N   0  0  0  0  0  0  0  0  0  0  0  0
    9.5991  -30.0009  -15.7798 N   0  0  0  0  0  0  0  0  0  0  0  0
    8.6128  -30.1019  -14.8519 C   0  0  0  0  0  0  0  0  0  0  0  0
    8.8450  -31.1211  -14.0044 N   0  0  0  0  0  0  0  0  0  0  0  0
  1  3  1  1  0  0  0
  1  5  2  0  0  0  0
  1  9  1  0  0  0  0
  1 18  1  0  0  0  0
  2  4  1  6  0  0  0
  2  6  2  0  0  0  0
  2 10  1  0  0  0  0
  2 17  1  0  0  0  0
  7  9  1  0  0  0  0
  8 10  1  0  0  0  0
 11  7  1  6  0  0  0
 11 13  1  0  0  0  0
 11 15  1  0  0  0  0
 12  8  1  6  0  0  0
 12 14  1  0  0  0  0
 12 16  1  0  0  0  0
 13 21  1  0  0  0  0
 14 22  1  0  0  0  0
 15 17  1  1  0  0  0
 15 19  1  0  0  0  0
 16 18  1  1  0  0  0
 16 20  1  0  0  0  0
 19 21  1  0  0  0  0
 20 22  1  0  0  0  0
 21 32  1  6  0  0  0
 22 42  1  6  0  0  0
 23 24  2  0  0  0  0
 23 28  1  0  0  0  0
 24 25  1  0  0  0  0
 25 26  2  0  0  0  0
 26 27  1  0  0  0  0
 26 32  1  0  0  0  0
 27 28  2  0  0  0  0
 27 30  1  0  0  0  0
 28 29  1  0  0  0  0
 30 31  2  0  0  0  0
 31 32  1  0  0  0  0
 33 34  2  0  0  0  0
 33 38  1  0  0  0  0
 34 35  1  0  0  0  0
 35 36  2  0  0  0  0
 36 37  1  0  0  0  0
 36 42  1  0  0  0  0
 37 38  2  0  0  0  0
 37 40  1  0  0  0  0
 38 39  1  0  0  0  0
 40 41  2  0  0  0  0
 41 42  1  0  0  0  0
M  CHG  2   3  -1   4  -1
M  END
>  <CHROM.1>
52.53186434,-0.68017244,5.77697757,-34.32911416,-15.24975292,2.76887749,-0.38782032
-1.64835687

>  <Name>
ligand

>  <RI>
0

>  <Rbt.Current_Directory>
/home/itssahil/PROJECTS/Mol_Feturizer/New_Systems/rnas/4QLN

>  <Rbt.Executable>
rbdock ($Id: //depot/dev/client3/rdock/2013.1/src/exe/rbdock.cxx#4 $)

>  <Rbt.Library>
libRbt.so (2013.1, Build901 2013/11/27)

>  <Rbt.Parameter_File>
/export/apps/rDock/src/rDock_2013.1_src/data/scripts/dock_solv.prm

>  <Rbt.Receptor>
prm/pocket_docking_6.prm

>  <SCORE>
-17.3337

>  <SCORE.INTER>
-17.1788

>  <SCORE.INTER.CONST>
1

>  <SCORE.INTER.POLAR>
0

>  <SCORE.INTER.ROT>
2

>  <SCORE.INTER.SOLV>
28.4214

>  <SCORE.INTER.VDW>
-25.8597

>  <SCORE.INTER.norm>
-0.409018

>  <SCORE.INTRA>
-0.15496

>  <SCORE.INTRA.DIHEDRAL>
7.69205e-05

>  <SCORE.INTRA.DIHEDRAL.0>
2.39985

>  <SCORE.INTRA.POLAR>
0

>  <SCORE.INTRA.POLAR.0>
0

>  <SCORE.INTRA.REPUL>
0

>  <SCORE.INTRA.REPUL.0>
0

>  <SCORE.INTRA.SOLV>
-0.00574604

>  <SCORE.INTRA.SOLV.lig_0>
-110.958

>  <SCORE.INTRA.VDW>
-0.152125

>  <SCORE.INTRA.VDW.0>
-2.34644

>  <SCORE.INTRA.norm>
-0.00368952

>  <SCORE.RESTR>
0

>  <SCORE.RESTR.CAVITY>
0

>  <SCORE.RESTR.norm>
0

>  <SCORE.SYSTEM>
0

>  <SCORE.SYSTEM.CONST>
0

>  <SCORE.SYSTEM.DIHEDRAL>
0

>  <SCORE.SYSTEM.SOLV>
0

>  <SCORE.SYSTEM.norm>
0

>  <SCORE.heavy>
42

>  <SCORE.norm>
-0.412708

>  <RMSD>
2.190

$$$$
ligand
 OpenBabel11021811513D
libRbt.so/2013.1/901 2013/11/27
 42 48  0  0  0  0  0  0  0  0999 V2000
    3.0462  -36.1094  -13.0743 P   0  0  2  0  0  0  0  0  0  0  0  0
    7.0077  -36.2366  -16.2054 P   0  0  1  0  0  0  0  0  0  0  0  0
    2.4920  -37.4138  -12.5504 O   0  5  0  0  0  0  0  0  0  0  0  0
    6.5323  -34.8139  -16.3801 O   0  5  0  0  0  0  0  0  0  0  0  0
    2.2344  -34.8423  -12.9498 O   0  0  0  0  0  0  0  0  0  0  0  0
    8.3543  -36.6533  -16.7464 O   0  0  0  0  0  0  0  0  0  0  0  0
    2.6647  -37.1867  -15.4515 C   0  0  0  0  0  0  0  0  0  0  0  0
    7.7330  -35.8442  -13.7008 C   0  0  0  0  0  0  0  0  0  0  0  0
    3.4300  -36.3119  -14.6243 O   0  0  0  0  0  0  0  0  0  0  0  0
    6.9619  -36.5944  -14.6362 O   0  0  0  0  0  0  0  0  0  0  0  0
    3.5633  -37.7819  -16.5290 C   0  0  1  0  0  0  0  0  0  0  0  0
    6.8461  -35.4086  -12.5411 C   0  0  1  0  0  0  0  0  0  0  0  0
    2.7678  -38.2103  -17.6376 O   0  0  0  0  0  0  0  0  0  0  0  0
    7.4118  -34.2593  -11.9063 O   0  0  0  0  0  0  0  0  0  0  0  0
    4.5618  -36.7576  -17.0412 C   0  0  1  0  0  0  0  0  0  0  0  0
    5.4529  -35.0352  -13.0218 C   0  0  1  0  0  0  0  0  0  0  0  0
    5.8914  -37.2196  -16.8230 O   0  0  0  0  0  0  0  0  0  0  0  0
    4.4799  -35.8594  -12.3868 O   0  0  0  0  0  0  0  0  0  0  0  0
    4.3003  -36.6096  -18.5285 C   0  0  0  0  0  0  0  0  0  0  0  0
    5.2389  -33.5850  -12.6336 C   0  0  0  0  0  0  0  0  0  0  0  0
    3.1503  -37.5528  -18.8487 C   0  0  2  0  0  0  0  0  0  0  0  0
    6.5161  -33.1452  -11.9321 C   0  0  2  0  0  0  0  0  0  0  0  0
    0.2913  -33.1633  -18.4788 N   0  0  0  0  0  0  0  0  0  0  0  0
    1.3590  -33.5661  -17.7654 C   0  0  0  0  0  0  0  0  0  0  0  0
    2.0000  -34.7313  -17.9723 N   0  0  0  0  0  0  0  0  0  0  0  0
    1.5923  -35.5867  -18.9402 C   0  0  0  0  0  0  0  0  0  0  0  0
    0.4307  -35.2170  -19.7642 C   0  0  0  0  0  0  0  0  0  0  0  0
   -0.2225  -33.9182  -19.4756 C   0  0  0  0  0  0  0  0  0  0  0  0
   -1.2974  -33.5014  -20.1873 N   0  0  0  0  0  0  0  0  0  0  0  0
    0.2412  -36.2259  -20.6351 N   0  0  0  0  0  0  0  0  0  0  0  0
    1.1961  -37.1597  -20.3913 C   0  0  0  0  0  0  0  0  0  0  0  0
    2.0017  -36.7787  -19.3813 N   0  0  0  0  0  0  0  0  0  0  0  0
   10.9851  -30.8801  -13.5037 N   0  0  0  0  0  0  0  0  0  0  0  0
   10.7867  -31.9923  -12.7722 C   0  0  0  0  0  0  0  0  0  0  0  0
    9.5704  -32.4618  -12.4406 N   0  0  0  0  0  0  0  0  0  0  0  0
    8.4460  -31.8190  -12.8386 C   0  0  0  0  0  0  0  0  0  0  0  0
    8.5803  -30.5944  -13.6426 C   0  0  0  0  0  0  0  0  0  0  0  0
    9.9537  -30.1415  -13.9668 C   0  0  0  0  0  0  0  0  0  0  0  0
   10.1665  -29.0234  -14.7034 N   0  0  0  0  0  0  0  0  0  0  0  0
    7.3304  -30.1649  -13.8995 N   0  0  0  0  0  0  0  0  0  0  0  0
    6.4717  -31.0372  -13.3115 C   0  0  0  0  0  0  0  0  0  0  0  0
    7.1360  -32.0222  -12.6795 N   0  0  0  0  0  0  0  0  0  0  0  0
  1  3  1  1  0  0  0
  1  5  2  0  0  0  0
  1  9  1  0  0  0  0
  1 18  1  0  0  0  0
  2  4  1  6  0  0  0
  2  6  2  0  0  0  0
  2 10  1  0  0  0  0
  2 17  1  0  0  0  0
  7  9  1  0  0  0  0
  8 10  1  0  0  0  0
 11  7  1  1  0  0  0
 11 13  1  0  0  0  0
 11 15  1  0  0  0  0
 12  8  1  6  0  0  0
 12 14  1  0  0  0  0
 12 16  1  0  0  0  0
 13 21  1  0  0  0  0
 14 22  1  0  0  0  0
 15 17  1  6  0  0  0
 15 19  1  0  0  0  0
 16 18  1  1  0  0  0
 16 20  1  0  0  0  0
 19 21  1  0  0  0  0
 20 22  1  0  0  0  0
 21 32  1  1  0  0  0
 22 42  1  6  0  0  0
 23 24  2  0  0  0  0
 23 28  1  0  0  0  0
 24 25  1  0  0  0  0
 25 26  2  0  0  0  0
 26 27  1  0  0  0  0
 26 32  1  0  0  0  0
 27 28  2  0  0  0  0
 27 30  1  0  0  0  0
 28 29  1  0  0  0  0
 30 31  2  0  0  0  0
 31 32  1  0  0  0  0
 33 34  2  0  0  0  0
 33 38  1  0  0  0  0
 34 35  1  0  0  0  0
 35 36  2  0  0  0  0
 36 37  1  0  0  0  0
 36 42  1  0  0  0  0
 37 38  2  0  0  0  0
 37 40  1  0  0  0  0
 38 39  1  0  0  0  0
 40 41  2  0  0  0  0
 41 42  1  0  0  0  0
M  CHG  2   3  -1   4  -1
M  END
>  <CHROM.1>
78.82156329,-25.21951635,4.95442165,-34.77949986,-15.44817204,3.13533143
-0.74173935,-0.61852550

>  <Name>
ligand

>  <RI>
0

>  <Rbt.Current_Directory>
/home/itssahil/PROJECTS/Mol_Feturizer/New_Systems/rnas/4QLN

>  <Rbt.Executable>
rbdock ($Id: //depot/dev/client3/rdock/2013.1/src/exe/rbdock.cxx#4 $)

>  <Rbt.Library>
libRbt.so (2013.1, Build901 2013/11/27)

>  <Rbt.Parameter_File>
/export/apps/rDock/src/rDock_2013.1_src/data/scripts/dock_solv.prm

>  <Rbt.Receptor>
prm/pocket_docking_7.prm

>  <SCORE>
-22.6646

>  <SCORE.INTER>
-23.689

>  <SCORE.INTER.CONST>
1

>  <SCORE.INTER.POLAR>
0

>  <SCORE.INTER.ROT>
2

>  <SCORE.INTER.SOLV>
27.4163

>  <SCORE.INTER.VDW>
-29.8647

>  <SCORE.INTER.norm>
-0.564023

>  <SCORE.INTRA>
1.02433

>  <SCORE.INTRA.DIHEDRAL>
0.00109662

>  <SCORE.INTRA.DIHEDRAL.0>
2.39985

>  <SCORE.INTRA.POLAR>
0

>  <SCORE.INTRA.POLAR.0>
0

>  <SCORE.INTRA.REPUL>
0

>  <SCORE.INTRA.REPUL.0>
0

>  <SCORE.INTRA.SOLV>
-0.0497364

>  <SCORE.INTRA.SOLV.lig_0>
-110.958

>  <SCORE.INTRA.VDW>
1.04865

>  <SCORE.INTRA.VDW.0>
-2.34644

>  <SCORE.INTRA.norm>
0.0243888

>  <SCORE.RESTR>
0

>  <SCORE.RESTR.CAVITY>
0

>  <SCORE.RESTR.norm>
0

>  <SCORE.SYSTEM>
0

>  <SCORE.SYSTEM.CONST>
0

>  <SCORE.SYSTEM.DIHEDRAL>
0

>  <SCORE.SYSTEM.SOLV>
0

>  <SCORE.SYSTEM.norm>
0

>  <SCORE.heavy>
42

>  <SCORE.norm>
-0.539634

>  <RMSD>
2.195

$$$$
ligand
 OpenBabel11021811513D
libRbt.so/2013.1/901 2013/11/27
 42 48  0  0  0  0  0  0  0  0999 V2000
    8.9522  -34.9381  -16.1967 P   0  0  2  0  0  0  0  0  0  0  0  0
    5.2275  -34.0128  -12.9128 P   0  0  1  0  0  0  0  0  0  0  0  0
   10.2236  -35.5794  -15.6915 O   0  5  0  0  0  0  0  0  0  0  0  0
    4.7900  -33.1920  -14.1024 O   0  5  0  0  0  0  0  0  0  0  0  0
    8.9296  -34.2792  -17.5551 O   0  0  0  0  0  0  0  0  0  0  0  0
    4.2667  -34.2638  -11.7755 O   0  0  0  0  0  0  0  0  0  0  0  0
    9.4153  -33.1303  -14.3327 C   0  0  0  0  0  0  0  0  0  0  0  0
    4.8900  -36.3010  -14.1792 C   0  0  0  0  0  0  0  0  0  0  0  0
    8.4639  -33.8603  -15.1054 O   0  0  0  0  0  0  0  0  0  0  0  0
    5.7567  -35.4358  -13.4492 O   0  0  0  0  0  0  0  0  0  0  0  0
    8.8163  -32.7989  -12.9711 C   0  0  1  0  0  0  0  0  0  0  0  0
    5.5836  -36.7597  -15.4558 C   0  0  1  0  0  0  0  0  0  0  0  0
    9.4916  -31.6704  -12.4091 O   0  0  0  0  0  0  0  0  0  0  0  0
    4.6055  -37.1520  -16.4219 O   0  0  0  0  0  0  0  0  0  0  0  0
    7.3426  -32.4482  -13.0882 C   0  0  1  0  0  0  0  0  0  0  0  0
    6.4153  -35.6418  -16.0643 C   0  0  1  0  0  0  0  0  0  0  0  0
    6.5626  -33.3473  -12.3058 O   0  0  0  0  0  0  0  0  0  0  0  0
    7.7801  -36.0404  -16.1512 O   0  0  0  0  0  0  0  0  0  0  0  0
    7.1943  -31.0343  -12.5579 C   0  0  0  0  0  0  0  0  0  0  0  0
    5.8558  -35.3969  -17.4523 C   0  0  0  0  0  0  0  0  0  0  0  0
    8.5902  -30.5921  -12.1447 C   0  0  2  0  0  0  0  0  0  0  0  0
    4.7078  -36.3817  -17.6221 C   0  0  2  0  0  0  0  0  0  0  0  0
    8.7920  -28.3600  -16.8940 N   0  0  0  0  0  0  0  0  0  0  0  0
    8.3166  -29.5621  -16.5197 C   0  0  0  0  0  0  0  0  0  0  0  0
    8.3301  -30.0092  -15.2504 N   0  0  0  0  0  0  0  0  0  0  0  0
    8.8381  -29.2489  -14.2509 C   0  0  0  0  0  0  0  0  0  0  0  0
    9.3773  -27.9202  -14.5802 C   0  0  0  0  0  0  0  0  0  0  0  0
    9.3278  -27.4986  -16.0004 C   0  0  0  0  0  0  0  0  0  0  0  0
    9.8024  -26.2907  -16.3894 N   0  0  0  0  0  0  0  0  0  0  0  0
    9.8112  -27.3846  -13.4238 N   0  0  0  0  0  0  0  0  0  0  0  0
    9.5717  -28.2894  -12.4404 C   0  0  0  0  0  0  0  0  0  0  0  0
    8.9914  -29.4006  -12.9331 N   0  0  0  0  0  0  0  0  0  0  0  0
    0.2710  -36.0614  -20.4123 N   0  0  0  0  0  0  0  0  0  0  0  0
    1.2810  -36.9478  -20.4874 C   0  0  0  0  0  0  0  0  0  0  0  0
    2.3704  -36.9082  -19.6992 N   0  0  0  0  0  0  0  0  0  0  0  0
    2.5120  -35.9433  -18.7584 C   0  0  0  0  0  0  0  0  0  0  0  0
    1.4489  -34.9367  -18.6146 C   0  0  0  0  0  0  0  0  0  0  0  0
    0.2807  -35.0480  -19.5197 C   0  0  0  0  0  0  0  0  0  0  0  0
   -0.7433  -34.1619  -19.4533 N   0  0  0  0  0  0  0  0  0  0  0  0
    1.8346  -34.1100  -17.6244 N   0  0  0  0  0  0  0  0  0  0  0  0
    3.0385  -34.5483  -17.1744 C   0  0  0  0  0  0  0  0  0  0  0  0
    3.4420  -35.6400  -17.8498 N   0  0  0  0  0  0  0  0  0  0  0  0
  1  3  1  1  0  0  0
  1  5  2  0  0  0  0
  1  9  1  0  0  0  0
  1 18  1  0  0  0  0
  2  4  1  6  0  0  0
  2  6  2  0  0  0  0
  2 10  1  0  0  0  0
  2 17  1  0  0  0  0
  7  9  1  0  0  0  0
  8 10  1  0  0  0  0
 11  7  1  6  0  0  0
 11 13  1  0  0  0  0
 11 15  1  0  0  0  0
 12  8  1  1  0  0  0
 12 14  1  0  0  0  0
 12 16  1  0  0  0  0
 13 21  1  0  0  0  0
 14 22  1  0  0  0  0
 15 17  1  1  0  0  0
 15 19  1  0  0  0  0
 16 18  1  6  0  0  0
 16 20  1  0  0  0  0
 19 21  1  0  0  0  0
 20 22  1  0  0  0  0
 21 32  1  6  0  0  0
 22 42  1  1  0  0  0
 23 24  2  0  0  0  0
 23 28  1  0  0  0  0
 24 25  1  0  0  0  0
 25 26  2  0  0  0  0
 26 27  1  0  0  0  0
 26 32  1  0  0  0  0
 27 28  2  0  0  0  0
 27 30  1  0  0  0  0
 28 29  1  0  0  0  0
 30 31  2  0  0  0  0
 31 32  1  0  0  0  0
 33 34  2  0  0  0  0
 33 38  1  0  0  0  0
 34 35  1  0  0  0  0
 35 36  2  0  0  0  0
 36 37  1  0  0  0  0
 36 42  1  0  0  0  0
 37 38  2  0  0  0  0
 37 40  1  0  0  0  0
 38 39  1  0  0  0  0
 40 41  2  0  0  0  0
 41 42  1  0  0  0  0
M  CHG  2   3  -1   4  -1
M  END
>  <CHROM.1>
73.17103863,-105.34006609,6.30495555,-33.29954442,-15.54534252,-0.41909490
0.75074995,2.75896249

>  <Name>
ligand

>  <RI>
0

>  <Rbt.Current_Directory>
/home/itssahil/PROJECTS/Mol_Feturizer/New_Systems/rnas/4QLN

>  <Rbt.Executable>
rbdock ($Id: //depot/dev/client3/rdock/2013.1/src/exe/rbdock.cxx#4 $)

>  <Rbt.Library>
libRbt.so (2013.1, Build901 2013/11/27)

>  <Rbt.Parameter_File>
/export/apps/rDock/src/rDock_2013.1_src/data/scripts/dock_solv.prm

>  <Rbt.Receptor>
prm/pocket_docking_8.prm

>  <SCORE>
-32.468

>  <SCORE.INTER>
-33.0076

>  <SCORE.INTER.CONST>
1

>  <SCORE.INTER.POLAR>
0

>  <SCORE.INTER.ROT>
2

>  <SCORE.INTER.SOLV>
30.7159

>  <SCORE.INTER.VDW>
-37.177

>  <SCORE.INTER.norm>
-0.785895

>  <SCORE.INTRA>
0.539614

>  <SCORE.INTRA.DIHEDRAL>
-0.00020636

>  <SCORE.INTRA.DIHEDRAL.0>
2.39985

>  <SCORE.INTRA.POLAR>
0

>  <SCORE.INTRA.POLAR.0>
0

>  <SCORE.INTRA.REPUL>
0

>  <SCORE.INTRA.REPUL.0>
0

>  <SCORE.INTRA.SOLV>
-0.0132511

>  <SCORE.INTRA.SOLV.lig_0>
-110.958

>  <SCORE.INTRA.VDW>
0.546343

>  <SCORE.INTRA.VDW.0>
-2.34644

>  <SCORE.INTRA.norm>
0.012848

>  <SCORE.RESTR>
0

>  <SCORE.RESTR.CAVITY>
0

>  <SCORE.RESTR.norm>
0

>  <SCORE.SYSTEM>
0

>  <SCORE.SYSTEM.CONST>
0

>  <SCORE.SYSTEM.DIHEDRAL>
0

>  <SCORE.SYSTEM.SOLV>
0

>  <SCORE.SYSTEM.norm>
0

>  <SCORE.heavy>
42

>  <SCORE.norm>
-0.773047

>  <RMSD>
2.210

$$$$
ligand
 OpenBabel11021811513D
libRbt.so/2013.1/901 2013/11/27
 42 48  0  0  0  0  0  0  0  0999 V2000
    8.9691  -34.9501  -16.1977 P   0  0  2  0  0  0  0  0  0  0  0  0
    5.2258  -34.0245  -12.9350 P   0  0  1  0  0  0  0  0  0  0  0  0
   10.2396  -35.5865  -15.6843 O   0  5  0  0  0  0  0  0  0  0  0  0
    4.7920  -33.2084  -14.1293 O   0  5  0  0  0  0  0  0  0  0  0  0
    8.9515  -34.2954  -17.5583 O   0  0  0  0  0  0  0  0  0  0  0  0
    4.2601  -34.2744  -11.8017 O   0  0  0  0  0  0  0  0  0  0  0  0
    9.4182  -33.1353  -14.3370 C   0  0  0  0  0  0  0  0  0  0  0  0
    4.9005  -36.3173  -14.1961 C   0  0  0  0  0  0  0  0  0  0  0  0
    8.4726  -33.8702  -15.1122 O   0  0  0  0  0  0  0  0  0  0  0  0
    5.7613  -35.4476  -13.4645 O   0  0  0  0  0  0  0  0  0  0  0  0
    8.8117  -32.8014  -12.9794 C   0  0  1  0  0  0  0  0  0  0  0  0
    5.6015  -36.7781  -15.4678 C   0  0  1  0  0  0  0  0  0  0  0  0
    9.4813  -31.6694  -12.4176 O   0  0  0  0  0  0  0  0  0  0  0  0
    4.6293  -37.1759  -16.4375 O   0  0  0  0  0  0  0  0  0  0  0  0
    7.3377  -32.4549  -13.1049 C   0  0  1  0  0  0  0  0  0  0  0  0
    6.4333  -35.6600  -16.0756 C   0  0  1  0  0  0  0  0  0  0  0  0
    6.5562  -33.3536  -12.3236 O   0  0  0  0  0  0  0  0  0  0  0  0
    7.7996  -36.0552  -16.1546 O   0  0  0  0  0  0  0  0  0  0  0  0
    7.1830  -31.0397  -12.5796 C   0  0  0  0  0  0  0  0  0  0  0  0
    5.8800  -35.4207  -17.4671 C   0  0  0  0  0  0  0  0  0  0  0  0
    8.5758  -30.5926  -12.1609 C   0  0  2  0  0  0  0  0  0  0  0  0
    4.7354  -36.4091  -17.6395 C   0  0  2  0  0  0  0  0  0  0  0  0
    8.7792  -28.3673  -16.9133 N   0  0  0  0  0  0  0  0  0  0  0  0
    8.3030  -29.5686  -16.5373 C   0  0  0  0  0  0  0  0  0  0  0  0
    8.3162  -30.0139  -15.2674 N   0  0  0  0  0  0  0  0  0  0  0  0
    8.8246  -29.2526  -14.2690 C   0  0  0  0  0  0  0  0  0  0  0  0
    9.3647  -27.9247  -14.6002 C   0  0  0  0  0  0  0  0  0  0  0  0
    9.3155  -27.5051  -16.0209 C   0  0  0  0  0  0  0  0  0  0  0  0
    9.7909  -26.2980  -16.4116 N   0  0  0  0  0  0  0  0  0  0  0  0
    9.7989  -27.3877  -13.4445 N   0  0  0  0  0  0  0  0  0  0  0  0
    9.5588  -28.2909  -12.4598 C   0  0  0  0  0  0  0  0  0  0  0  0
    8.9778  -29.4025  -12.9510 N   0  0  0  0  0  0  0  0  0  0  0  0
    0.2888  -36.1374  -20.4192 N   0  0  0  0  0  0  0  0  0  0  0  0
    1.2986  -37.0251  -20.4823 C   0  0  0  0  0  0  0  0  0  0  0  0
    2.3907  -36.9718  -19.6987 N   0  0  0  0  0  0  0  0  0  0  0  0
    2.5356  -35.9905  -18.7756 C   0  0  0  0  0  0  0  0  0  0  0  0
    1.4731  -34.9815  -18.6457 C   0  0  0  0  0  0  0  0  0  0  0  0
    0.3016  -35.1085  -19.5446 C   0  0  0  0  0  0  0  0  0  0  0  0
   -0.7220  -34.2213  -19.4901 N   0  0  0  0  0  0  0  0  0  0  0  0
    1.8623  -34.1375  -17.6716 N   0  0  0  0  0  0  0  0  0  0  0  0
    3.0678  -34.5679  -17.2182 C   0  0  0  0  0  0  0  0  0  0  0  0
    3.4689  -35.6714  -17.8757 N   0  0  0  0  0  0  0  0  0  0  0  0
  1  3  1  1  0  0  0
  1  5  2  0  0  0  0
  1  9  1  0  0  0  0
  1 18  1  0  0  0  0
  2  4  1  6  0  0  0
  2  6  2  0  0  0  0
  2 10  1  0  0  0  0
  2 17  1  0  0  0  0
  7  9  1  0  0  0  0
  8 10  1  0  0  0  0
 11  7  1  6  0  0  0
 11 13  1  0  0  0  0
 11 15  1  0  0  0  0
 12  8  1  1  0  0  0
 12 14  1  0  0  0  0
 12 16  1  0  0  0  0
 13 21  1  0  0  0  0
 14 22  1  0  0  0  0
 15 17  1  1  0  0  0
 15 19  1  0  0  0  0
 16 18  1  6  0  0  0
 16 20  1  0  0  0  0
 19 21  1  0  0  0  0
 20 22  1  0  0  0  0
 21 32  1  6  0  0  0
 22 42  1  1  0  0  0
 23 24  2  0  0  0  0
 23 28  1  0  0  0  0
 24 25  1  0  0  0  0
 25 26  2  0  0  0  0
 26 27  1  0  0  0  0
 26 32  1  0  0  0  0
 27 28  2  0  0  0  0
 27 30  1  0  0  0  0
 28 29  1  0  0  0  0
 30 31  2  0  0  0  0
 31 32  1  0  0  0  0
 33 34  2  0  0  0  0
 33 38  1  0  0  0  0
 34 35  1  0  0  0  0
 35 36  2  0  0  0  0
 36 37  1  0  0  0  0
 36 42  1  0  0  0  0
 37 38  2  0  0  0  0
 37 40  1  0  0  0  0
 38 39  1  0  0  0  0
 40 41  2  0  0  0  0
 41 42  1  0  0  0  0
M  CHG  2   3  -1   4  -1
M  END
>  <CHROM.1>
73.52097289,-104.36611247,6.31116655,-33.31816886,-15.56146740,-0.42633944
0.75289239,2.76360404

>  <Name>
ligand

>  <RI>
0

>  <Rbt.Current_Directory>
/home/itssahil/PROJECTS/Mol_Feturizer/New_Systems/rnas/4QLN

>  <Rbt.Executable>
rbdock ($Id: //depot/dev/client3/rdock/2013.1/src/exe/rbdock.cxx#4 $)

>  <Rbt.Library>
libRbt.so (2013.1, Build901 2013/11/27)

>  <Rbt.Parameter_File>
/export/apps/rDock/src/rDock_2013.1_src/data/scripts/dock_solv.prm

>  <Rbt.Receptor>
prm/pocket_docking_5.prm

>  <SCORE>
-32.4077

>  <SCORE.INTER>
-32.9797

>  <SCORE.INTER.CONST>
1

>  <SCORE.INTER.POLAR>
0

>  <SCORE.INTER.ROT>
2

>  <SCORE.INTER.SOLV>
30.6053

>  <SCORE.INTER.VDW>
-37.1216

>  <SCORE.INTER.norm>
-0.785231

>  <SCORE.INTRA>
0.571998

>  <SCORE.INTRA.DIHEDRAL>
-0.000229628

>  <SCORE.INTRA.DIHEDRAL.0>
2.39985

>  <SCORE.INTRA.POLAR>
0

>  <SCORE.INTRA.POLAR.0>
0

>  <SCORE.INTRA.REPUL>
0

>  <SCORE.INTRA.REPUL.0>
0

>  <SCORE.INTRA.SOLV>
-0.0143515

>  <SCORE.INTRA.SOLV.lig_0>
-110.958

>  <SCORE.INTRA.VDW>
0.579288

>  <SCORE.INTRA.VDW.0>
-2.34644

>  <SCORE.INTRA.norm>
0.013619

>  <SCORE.RESTR>
0

>  <SCORE.RESTR.CAVITY>
0

>  <SCORE.RESTR.norm>
0

>  <SCORE.SYSTEM>
0

>  <SCORE.SYSTEM.CONST>
0

>  <SCORE.SYSTEM.DIHEDRAL>
0

>  <SCORE.SYSTEM.SOLV>
0

>  <SCORE.SYSTEM.norm>
0

>  <SCORE.heavy>
42

>  <SCORE.norm>
-0.771612

>  <RMSD>
2.212

$$$$
ligand
 OpenBabel11021811513D
libRbt.so/2013.1/901 2013/11/27
 42 48  0  0  0  0  0  0  0  0999 V2000
    8.9677  -34.9250  -16.1907 P   0  0  2  0  0  0  0  0  0  0  0  0
    5.2369  -34.0067  -12.9116 P   0  0  1  0  0  0  0  0  0  0  0  0
   10.2394  -35.5644  -15.6839 O   0  5  0  0  0  0  0  0  0  0  0  0
    4.7997  -33.1862  -14.1016 O   0  5  0  0  0  0  0  0  0  0  0  0
    8.9459  -34.2657  -17.5489 O   0  0  0  0  0  0  0  0  0  0  0  0
    4.2749  -34.2596  -11.7758 O   0  0  0  0  0  0  0  0  0  0  0  0
    9.4252  -33.1170  -14.3255 C   0  0  0  0  0  0  0  0  0  0  0  0
    4.9048  -36.2950  -14.1793 C   0  0  0  0  0  0  0  0  0  0  0  0
    8.4761  -33.8483  -15.0997 O   0  0  0  0  0  0  0  0  0  0  0  0
    5.7691  -35.4286  -13.4478 O   0  0  0  0  0  0  0  0  0  0  0  0
    8.8238  -32.7870  -12.9646 C   0  0  1  0  0  0  0  0  0  0  0  0
    5.6009  -36.7521  -15.4550 C   0  0  1  0  0  0  0  0  0  0  0  0
    9.4966  -31.6576  -12.4013 O   0  0  0  0  0  0  0  0  0  0  0  0
    4.6248  -37.1456  -16.4227 O   0  0  0  0  0  0  0  0  0  0  0  0
    7.3498  -32.4386  -13.0836 C   0  0  1  0  0  0  0  0  0  0  0  0
    6.4317  -35.6327  -16.0620 C   0  0  1  0  0  0  0  0  0  0  0  0
    6.5701  -33.3392  -12.3026 O   0  0  0  0  0  0  0  0  0  0  0  0
    7.7973  -36.0291  -16.1471 O   0  0  0  0  0  0  0  0  0  0  0  0
    7.1984  -31.0251  -12.5530 C   0  0  0  0  0  0  0  0  0  0  0  0
    5.8737  -35.3882  -17.4507 C   0  0  0  0  0  0  0  0  0  0  0  0
    8.5931  -30.5808  -12.1378 C   0  0  2  0  0  0  0  0  0  0  0  0
    4.7275  -36.3749  -17.6224 C   0  0  2  0  0  0  0  0  0  0  0  0
    8.7745  -28.3363  -16.8820 N   0  0  0  0  0  0  0  0  0  0  0  0
    8.2974  -29.5380  -16.5083 C   0  0  0  0  0  0  0  0  0  0  0  0
    8.3169  -29.9886  -15.2403 N   0  0  0  0  0  0  0  0  0  0  0  0
    8.8330  -29.2327  -14.2417 C   0  0  0  0  0  0  0  0  0  0  0  0
    9.3745  -27.9047  -14.5705 C   0  0  0  0  0  0  0  0  0  0  0  0
    9.3181  -27.4791  -15.9892 C   0  0  0  0  0  0  0  0  0  0  0  0
    9.7943  -26.2716  -16.3776 N   0  0  0  0  0  0  0  0  0  0  0  0
    9.8168  -27.3737  -13.4152 N   0  0  0  0  0  0  0  0  0  0  0  0
    9.5801  -28.2804  -12.4328 C   0  0  0  0  0  0  0  0  0  0  0  0
    8.9935  -29.3884  -12.9253 N   0  0  0  0  0  0  0  0  0  0  0  0
    0.2840  -36.0735  -20.4039 N   0  0  0  0  0  0  0  0  0  0  0  0
    1.2942  -36.9599  -20.4760 C   0  0  0  0  0  0  0  0  0  0  0  0
    2.3854  -36.9150  -19.6906 N   0  0  0  0  0  0  0  0  0  0  0  0
    2.5288  -35.9444  -18.7562 C   0  0  0  0  0  0  0  0  0  0  0  0
    1.4656  -34.9373  -18.6160 C   0  0  0  0  0  0  0  0  0  0  0  0
    0.2953  -35.0546  -19.5176 C   0  0  0  0  0  0  0  0  0  0  0  0
   -0.7289  -34.1685  -19.4542 N   0  0  0  0  0  0  0  0  0  0  0  0
    1.8533  -34.1044  -17.6318 N   0  0  0  0  0  0  0  0  0  0  0  0
    3.0585  -34.5394  -17.1820 C   0  0  0  0  0  0  0  0  0  0  0  0
    3.4609  -35.6351  -17.8517 N   0  0  0  0  0  0  0  0  0  0  0  0
  1  3  1  1  0  0  0
  1  5  2  0  0  0  0
  1  9  1  0  0  0  0
  1 18  1  0  0  0  0
  2  4  1  6  0  0  0
  2  6  2  0  0  0  0
  2 10  1  0  0  0  0
  2 17  1  0  0  0  0
  7  9  1  0  0  0  0
  8 10  1  0  0  0  0
 11  7  1  6  0  0  0
 11 13  1  0  0  0  0
 11 15  1  0  0  0  0
 12  8  1  1  0  0  0
 12 14  1  0  0  0  0
 12 16  1  0  0  0  0
 13 21  1  0  0  0  0
 14 22  1  0  0  0  0
 15 17  1  1  0  0  0
 15 19  1  0  0  0  0
 16 18  1  6  0  0  0
 16 20  1  0  0  0  0
 19 21  1  0  0  0  0
 20 22  1  0  0  0  0
 21 32  1  6  0  0  0
 22 42  1  1  0  0  0
 23 24  2  0  0  0  0
 23 28  1  0  0  0  0
 24 25  1  0  0  0  0
 25 26  2  0  0  0  0
 26 27  1  0  0  0  0
 26 32  1  0  0  0  0
 27 28  2  0  0  0  0
 27 30  1  0  0  0  0
 28 29  1  0  0  0  0
 30 31  2  0  0  0  0
 31 32  1  0  0  0  0
 33 34  2  0  0  0  0
 33 38  1  0  0  0  0
 34 35  1  0  0  0  0
 35 36  2  0  0  0  0
 36 37  1  0  0  0  0
 36 42  1  0  0  0  0
 37 38  2  0  0  0  0
 37 40  1  0  0  0  0
 38 39  1  0  0  0  0
 40 41  2  0  0  0  0
 41 42  1  0  0  0  0
M  CHG  2   3  -1   4  -1
M  END
>  <CHROM.1>
73.68306634,-104.90690303,6.31411350,-33.29100287,-15.54092525,-0.42530397
0.75060314,2.76618471

>  <Name>
ligand

>  <RI>
0

>  <Rbt.Current_Directory>
/home/itssahil/PROJECTS/Mol_Feturizer/New_Systems/rnas/4QLN

>  <Rbt.Executable>
rbdock ($Id: //depot/dev/client3/rdock/2013.1/src/exe/rbdock.cxx#4 $)

>  <Rbt.Library>
libRbt.so (2013.1, Build901 2013/11/27)

>  <Rbt.Parameter_File>
/export/apps/rDock/src/rDock_2013.1_src/data/scripts/dock_solv.prm

>  <Rbt.Receptor>
prm/pocket_docking_4.prm

>  <SCORE>
-32.501

>  <SCORE.INTER>
-33.0676

>  <SCORE.INTER.CONST>
1

>  <SCORE.INTER.POLAR>
0

>  <SCORE.INTER.ROT>
2

>  <SCORE.INTER.SOLV>
30.721

>  <SCORE.INTER.VDW>
-37.2187

>  <SCORE.INTER.norm>
-0.787323

>  <SCORE.INTRA>
0.566566

>  <SCORE.INTRA.DIHEDRAL>
-0.000213161

>  <SCORE.INTRA.DIHEDRAL.0>
2.39985

>  <SCORE.INTRA.POLAR>
0

>  <SCORE.INTRA.POLAR.0>
0

>  <SCORE.INTRA.REPUL>
0

>  <SCORE.INTRA.REPUL.0>
0

>  <SCORE.INTRA.SOLV>
-0.0140016

>  <SCORE.INTRA.SOLV.lig_0>
-110.958

>  <SCORE.INTRA.VDW>
0.573673

>  <SCORE.INTRA.VDW.0>
-2.34644

>  <SCORE.INTRA.norm>
0.0134897

>  <SCORE.RESTR>
0

>  <SCORE.RESTR.CAVITY>
0

>  <SCORE.RESTR.norm>
0

>  <SCORE.SYSTEM>
0

>  <SCORE.SYSTEM.CONST>
0

>  <SCORE.SYSTEM.DIHEDRAL>
0

>  <SCORE.SYSTEM.SOLV>
0

>  <SCORE.SYSTEM.norm>
0

>  <SCORE.heavy>
42

>  <SCORE.norm>
-0.773833

>  <RMSD>
2.214

$$$$
ligand
 OpenBabel11021811513D
libRbt.so/2013.1/901 2013/11/27
 42 48  0  0  0  0  0  0  0  0999 V2000
    8.9613  -34.9200  -16.1899 P   0  0  2  0  0  0  0  0  0  0  0  0
    5.2253  -33.9939  -12.9189 P   0  0  1  0  0  0  0  0  0  0  0  0
   10.2311  -35.5608  -15.6801 O   0  5  0  0  0  0  0  0  0  0  0  0
    4.7917  -33.1737  -14.1103 O   0  5  0  0  0  0  0  0  0  0  0  0
    8.9431  -34.2617  -17.5487 O   0  0  0  0  0  0  0  0  0  0  0  0
    4.2608  -34.2446  -11.7848 O   0  0  0  0  0  0  0  0  0  0  0  0
    9.4177  -33.1113  -14.3251 C   0  0  0  0  0  0  0  0  0  0  0  0
    4.8926  -36.2827  -14.1855 C   0  0  0  0  0  0  0  0  0  0  0  0
    8.4691  -33.8418  -15.1007 O   0  0  0  0  0  0  0  0  0  0  0  0
    5.7566  -35.4170  -13.4529 O   0  0  0  0  0  0  0  0  0  0  0  0
    8.8141  -32.7794  -12.9657 C   0  0  1  0  0  0  0  0  0  0  0  0
    5.5905  -36.7418  -15.4595 C   0  0  1  0  0  0  0  0  0  0  0  0
    9.4874  -31.6505  -12.4019 O   0  0  0  0  0  0  0  0  0  0  0  0
    4.6158  -37.1347  -16.4287 O   0  0  0  0  0  0  0  0  0  0  0  0
    7.3408  -32.4290  -13.0879 C   0  0  1  0  0  0  0  0  0  0  0  0
    6.4241  -35.6241  -16.0657 C   0  0  1  0  0  0  0  0  0  0  0  0
    6.5583  -33.3279  -12.3078 O   0  0  0  0  0  0  0  0  0  0  0  0
    7.7892  -36.0224  -16.1478 O   0  0  0  0  0  0  0  0  0  0  0  0
    7.1904  -31.0149  -12.5587 C   0  0  0  0  0  0  0  0  0  0  0  0
    5.8691  -35.3798  -17.4557 C   0  0  0  0  0  0  0  0  0  0  0  0
    8.5848  -30.5722  -12.1411 C   0  0  2  0  0  0  0  0  0  0  0  0
    4.7219  -36.3650  -17.6289 C   0  0  2  0  0  0  0  0  0  0  0  0
    8.7891  -28.3363  -16.8884 N   0  0  0  0  0  0  0  0  0  0  0  0
    8.3110  -29.5376  -16.5149 C   0  0  0  0  0  0  0  0  0  0  0  0
    8.3242  -29.9858  -15.2460 N   0  0  0  0  0  0  0  0  0  0  0  0
    8.8347  -29.2278  -14.2462 C   0  0  0  0  0  0  0  0  0  0  0  0
    9.3770  -27.9001  -14.5746 C   0  0  0  0  0  0  0  0  0  0  0  0
    9.3276  -27.4771  -15.9943 C   0  0  0  0  0  0  0  0  0  0  0  0
    9.8049  -26.2700  -16.3825 N   0  0  0  0  0  0  0  0  0  0  0  0
    9.8129  -27.3666  -13.4180 N   0  0  0  0  0  0  0  0  0  0  0  0
    9.5718  -28.2717  -12.4352 C   0  0  0  0  0  0  0  0  0  0  0  0
    8.9885  -29.3810  -12.9286 N   0  0  0  0  0  0  0  0  0  0  0  0
    0.2737  -36.0728  -20.4038 N   0  0  0  0  0  0  0  0  0  0  0  0
    1.2814  -36.9624  -20.4713 C   0  0  0  0  0  0  0  0  0  0  0  0
    2.3743  -36.9145  -19.6884 N   0  0  0  0  0  0  0  0  0  0  0  0
    2.5221  -35.9372  -18.7616 C   0  0  0  0  0  0  0  0  0  0  0  0
    1.4619  -34.9264  -18.6269 C   0  0  0  0  0  0  0  0  0  0  0  0
    0.2894  -35.0473  -19.5252 C   0  0  0  0  0  0  0  0  0  0  0  0
   -0.7323  -34.1581  -19.4665 N   0  0  0  0  0  0  0  0  0  0  0  0
    1.8537  -34.0870  -17.6497 N   0  0  0  0  0  0  0  0  0  0  0  0
    3.0586  -34.5219  -17.1990 C   0  0  0  0  0  0  0  0  0  0  0  0
    3.4568  -35.6236  -17.8612 N   0  0  0  0  0  0  0  0  0  0  0  0
  1  3  1  1  0  0  0
  1  5  2  0  0  0  0
  1  9  1  0  0  0  0
  1 18  1  0  0  0  0
  2  4  1  6  0  0  0
  2  6  2  0  0  0  0
  2 10  1  0  0  0  0
  2 17  1  0  0  0  0
  7  9  1  0  0  0  0
  8 10  1  0  0  0  0
 11  7  1  6  0  0  0
 11 13  1  0  0  0  0
 11 15  1  0  0  0  0
 12  8  1  1  0  0  0
 12 14  1  0  0  0  0
 12 16  1  0  0  0  0
 13 21  1  0  0  0  0
 14 22  1  0  0  0  0
 15 17  1  1  0  0  0
 15 19  1  0  0  0  0
 16 18  1  6  0  0  0
 16 20  1  0  0  0  0
 19 21  1  0  0  0  0
 20 22  1  0  0  0  0
 21 32  1  6  0  0  0
 22 42  1  1  0  0  0
 23 24  2  0  0  0  0
 23 28  1  0  0  0  0
 24 25  1  0  0  0  0
 25 26  2  0  0  0  0
 26 27  1  0  0  0  0
 26 32  1  0  0  0  0
 27 28  2  0  0  0  0
 27 30  1  0  0  0  0
 28 29  1  0  0  0  0
 30 31  2  0  0  0  0
 31 32  1  0  0  0  0
 33 34  2  0  0  0  0
 33 38  1  0  0  0  0
 34 35  1  0  0  0  0
 35 36  2  0  0  0  0
 36 37  1  0  0  0  0
 36 42  1  0  0  0  0
 37 38  2  0  0  0  0
 37 40  1  0  0  0  0
 38 39  1  0  0  0  0
 40 41  2  0  0  0  0
 41 42  1  0  0  0  0
M  CHG  2   3  -1   4  -1
M  END
>  <CHROM.1>
73.45658883,-104.45309848,6.30874243,-33.28326478,-15.54547229,-0.42329105
0.75090644,2.76377296

>  <Name>
ligand

>  <RI>
0

>  <Rbt.Current_Directory>
/home/itssahil/PROJECTS/Mol_Feturizer/New_Systems/rnas/4QLN

>  <Rbt.Executable>
rbdock ($Id: //depot/dev/client3/rdock/2013.1/src/exe/rbdock.cxx#4 $)

>  <Rbt.Library>
libRbt.so (2013.1, Build901 2013/11/27)

>  <Rbt.Parameter_File>
/export/apps/rDock/src/rDock_2013.1_src/data/scripts/dock_solv.prm

>  <Rbt.Receptor>
prm/pocket_docking_4.prm

>  <SCORE>
-32.4998

>  <SCORE.INTER>
-33.0677

>  <SCORE.INTER.CONST>
1

>  <SCORE.INTER.POLAR>
0

>  <SCORE.INTER.ROT>
2

>  <SCORE.INTER.SOLV>
30.7857

>  <SCORE.INTER.VDW>
-37.2404

>  <SCORE.INTER.norm>
-0.787326

>  <SCORE.INTRA>
0.567907

>  <SCORE.INTRA.DIHEDRAL>
-0.000227951

>  <SCORE.INTRA.DIHEDRAL.0>
2.39985

>  <SCORE.INTRA.POLAR>
0

>  <SCORE.INTRA.POLAR.0>
0

>  <SCORE.INTRA.REPUL>
0

>  <SCORE.INTRA.REPUL.0>
0

>  <SCORE.INTRA.SOLV>
-0.0142233

>  <SCORE.INTRA.SOLV.lig_0>
-110.958

>  <SCORE.INTRA.VDW>
0.575133

>  <SCORE.INTRA.VDW.0>
-2.34644

>  <SCORE.INTRA.norm>
0.0135216

>  <SCORE.RESTR>
0

>  <SCORE.RESTR.CAVITY>
0

>  <SCORE.RESTR.norm>
0

>  <SCORE.SYSTEM>
0

>  <SCORE.SYSTEM.CONST>
0

>  <SCORE.SYSTEM.DIHEDRAL>
0

>  <SCORE.SYSTEM.SOLV>
0

>  <SCORE.SYSTEM.norm>
0

>  <SCORE.heavy>
42

>  <SCORE.norm>
-0.773805

>  <RMSD>
2.215

$$$$
ligand
 OpenBabel11021811513D
libRbt.so/2013.1/901 2013/11/27
 42 48  0  0  0  0  0  0  0  0999 V2000
    8.9660  -34.9209  -16.1925 P   0  0  2  0  0  0  0  0  0  0  0  0
    5.2347  -34.0072  -12.9128 P   0  0  1  0  0  0  0  0  0  0  0  0
   10.2384  -35.5593  -15.6861 O   0  5  0  0  0  0  0  0  0  0  0  0
    4.7967  -33.1866  -14.1024 O   0  5  0  0  0  0  0  0  0  0  0  0
    8.9435  -34.2611  -17.5506 O   0  0  0  0  0  0  0  0  0  0  0  0
    4.2731  -34.2613  -11.7769 O   0  0  0  0  0  0  0  0  0  0  0  0
    9.4221  -33.1131  -14.3268 C   0  0  0  0  0  0  0  0  0  0  0  0
    4.9047  -36.2953  -14.1811 C   0  0  0  0  0  0  0  0  0  0  0  0
    8.4736  -33.8450  -15.1012 O   0  0  0  0  0  0  0  0  0  0  0  0
    5.7682  -35.4284  -13.4495 O   0  0  0  0  0  0  0  0  0  0  0  0
    8.8205  -32.7841  -12.9657 C   0  0  1  0  0  0  0  0  0  0  0  0
    5.6010  -36.7514  -15.4571 C   0  0  1  0  0  0  0  0  0  0  0  0
    9.4923  -31.6543  -12.4021 O   0  0  0  0  0  0  0  0  0  0  0  0
    4.6252  -37.1455  -16.4248 O   0  0  0  0  0  0  0  0  0  0  0  0
    7.3461  -32.4371  -13.0845 C   0  0  1  0  0  0  0  0  0  0  0  0
    6.4307  -35.6311  -16.0638 C   0  0  1  0  0  0  0  0  0  0  0  0
    6.5674  -33.3386  -12.3037 O   0  0  0  0  0  0  0  0  0  0  0  0
    7.7966  -36.0261  -16.1492 O   0  0  0  0  0  0  0  0  0  0  0  0
    7.1935  -31.0239  -12.5534 C   0  0  0  0  0  0  0  0  0  0  0  0
    5.8723  -35.3866  -17.4524 C   0  0  0  0  0  0  0  0  0  0  0  0
    8.5878  -30.5784  -12.1382 C   0  0  2  0  0  0  0  0  0  0  0  0
    4.7270  -36.3743  -17.6243 C   0  0  2  0  0  0  0  0  0  0  0  0
    8.7805  -28.3384  -16.8840 N   0  0  0  0  0  0  0  0  0  0  0  0
    8.3064  -29.5414  -16.5109 C   0  0  0  0  0  0  0  0  0  0  0  0
    8.3223  -29.9906  -15.2424 N   0  0  0  0  0  0  0  0  0  0  0  0
    8.8314  -29.2317  -14.2425 C   0  0  0  0  0  0  0  0  0  0  0  0
    9.3693  -27.9021  -14.5705 C   0  0  0  0  0  0  0  0  0  0  0  0
    9.3172  -27.4782  -15.9899 C   0  0  0  0  0  0  0  0  0  0  0  0
    9.7905  -26.2693  -16.3777 N   0  0  0  0  0  0  0  0  0  0  0  0
    9.8048  -27.3681  -13.4140 N   0  0  0  0  0  0  0  0  0  0  0  0
    9.5675  -28.2746  -12.4316 C   0  0  0  0  0  0  0  0  0  0  0  0
    8.9871  -29.3854  -12.9253 N   0  0  0  0  0  0  0  0  0  0  0  0
    0.2826  -36.0765  -20.4047 N   0  0  0  0  0  0  0  0  0  0  0  0
    1.2936  -36.9620  -20.4772 C   0  0  0  0  0  0  0  0  0  0  0  0
    2.3850  -36.9163  -19.6921 N   0  0  0  0  0  0  0  0  0  0  0  0
    2.5277  -35.9456  -18.7575 C   0  0  0  0  0  0  0  0  0  0  0  0
    1.4637  -34.9395  -18.6170 C   0  0  0  0  0  0  0  0  0  0  0  0
    0.2932  -35.0578  -19.5183 C   0  0  0  0  0  0  0  0  0  0  0  0
   -0.7317  -34.1726  -19.4545 N   0  0  0  0  0  0  0  0  0  0  0  0
    1.8509  -34.1063  -17.6327 N   0  0  0  0  0  0  0  0  0  0  0  0
    3.0565  -34.5403  -17.1832 C   0  0  0  0  0  0  0  0  0  0  0  0
    3.4597  -35.6356  -17.8532 N   0  0  0  0  0  0  0  0  0  0  0  0
  1  3  1  1  0  0  0
  1  5  2  0  0  0  0
  1  9  1  0  0  0  0
  1 18  1  0  0  0  0
  2  4  1  6  0  0  0
  2  6  2  0  0  0  0
  2 10  1  0  0  0  0
  2 17  1  0  0  0  0
  7  9  1  0  0  0  0
  8 10  1  0  0  0  0
 11  7  1  6  0  0  0
 11 13  1  0  0  0  0
 11 15  1  0  0  0  0
 12  8  1  1  0  0  0
 12 14  1  0  0  0  0
 12 16  1  0  0  0  0
 13 21  1  0  0  0  0
 14 22  1  0  0  0  0
 15 17  1  1  0  0  0
 15 19  1  0  0  0  0
 16 18  1  6  0  0  0
 16 20  1  0  0  0  0
 19 21  1  0  0  0  0
 20 22  1  0  0  0  0
 21 32  1  6  0  0  0
 22 42  1  1  0  0  0
 23 24  2  0  0  0  0
 23 28  1  0  0  0  0
 24 25  1  0  0  0  0
 25 26  2  0  0  0  0
 26 27  1  0  0  0  0
 26 32  1  0  0  0  0
 27 28  2  0  0  0  0
 27 30  1  0  0  0  0
 28 29  1  0  0  0  0
 30 31  2  0  0  0  0
 31 32  1  0  0  0  0
 33 34  2  0  0  0  0
 33 38  1  0  0  0  0
 34 35  1  0  0  0  0
 35 36  2  0  0  0  0
 36 37  1  0  0  0  0
 36 42  1  0  0  0  0
 37 38  2  0  0  0  0
 37 40  1  0  0  0  0
 38 39  1  0  0  0  0
 40 41  2  0  0  0  0
 41 42  1  0  0  0  0
M  CHG  2   3  -1   4  -1
M  END
>  <CHROM.1>
73.38007067,-104.89287783,6.31212561,-33.29014726,-15.54209663,-0.42488297
0.75125298,2.76503520

>  <Name>
ligand

>  <RI>
0

>  <Rbt.Current_Directory>
/home/itssahil/PROJECTS/Mol_Feturizer/New_Systems/rnas/4QLN

>  <Rbt.Executable>
rbdock ($Id: //depot/dev/client3/rdock/2013.1/src/exe/rbdock.cxx#4 $)

>  <Rbt.Library>
libRbt.so (2013.1, Build901 2013/11/27)

>  <Rbt.Parameter_File>
/export/apps/rDock/src/rDock_2013.1_src/data/scripts/dock_solv.prm

>  <Rbt.Receptor>
prm/pocket_docking_6.prm

>  <SCORE>
-32.4951

>  <SCORE.INTER>
-33.0512

>  <SCORE.INTER.CONST>
1

>  <SCORE.INTER.POLAR>
0

>  <SCORE.INTER.ROT>
2

>  <SCORE.INTER.SOLV>
30.7167

>  <SCORE.INTER.VDW>
-37.2064

>  <SCORE.INTER.norm>
-0.786932

>  <SCORE.INTRA>
0.556104

>  <SCORE.INTRA.DIHEDRAL>
-0.000216702

>  <SCORE.INTRA.DIHEDRAL.0>
2.39985

>  <SCORE.INTRA.POLAR>
0

>  <SCORE.INTRA.POLAR.0>
0

>  <SCORE.INTRA.REPUL>
0

>  <SCORE.INTRA.REPUL.0>
0

>  <SCORE.INTRA.SOLV>
-0.0137802

>  <SCORE.INTRA.SOLV.lig_0>
-110.958

>  <SCORE.INTRA.VDW>
0.563102

>  <SCORE.INTRA.VDW.0>
-2.34644

>  <SCORE.INTRA.norm>
0.0132406

>  <SCORE.RESTR>
0

>  <SCORE.RESTR.CAVITY>
0

>  <SCORE.RESTR.norm>
0

>  <SCORE.SYSTEM>
0

>  <SCORE.SYSTEM.CONST>
0

>  <SCORE.SYSTEM.DIHEDRAL>
0

>  <SCORE.SYSTEM.SOLV>
0

>  <SCORE.SYSTEM.norm>
0

>  <SCORE.heavy>
42

>  <SCORE.norm>
-0.773692

>  <RMSD>
2.215

$$$$
ligand
 OpenBabel11021811513D
libRbt.so/2013.1/901 2013/11/27
 42 48  0  0  0  0  0  0  0  0999 V2000
    8.9569  -34.9205  -16.1903 P   0  0  2  0  0  0  0  0  0  0  0  0
    5.2136  -33.9811  -12.9314 P   0  0  1  0  0  0  0  0  0  0  0  0
   10.2236  -35.5636  -15.6759 O   0  5  0  0  0  0  0  0  0  0  0  0
    4.7854  -33.1615  -14.1252 O   0  5  0  0  0  0  0  0  0  0  0  0
    8.9442  -34.2640  -17.5500 O   0  0  0  0  0  0  0  0  0  0  0  0
    4.2452  -34.2279  -11.7997 O   0  0  0  0  0  0  0  0  0  0  0  0
    9.4122  -33.1103  -14.3266 C   0  0  0  0  0  0  0  0  0  0  0  0
    4.8791  -36.2708  -14.1958 C   0  0  0  0  0  0  0  0  0  0  0  0
    8.4641  -33.8397  -15.1040 O   0  0  0  0  0  0  0  0  0  0  0  0
    5.7431  -35.4062  -13.4620 O   0  0  0  0  0  0  0  0  0  0  0  0
    8.8054  -32.7752  -12.9694 C   0  0  1  0  0  0  0  0  0  0  0  0
    5.5796  -36.7333  -15.4672 C   0  0  1  0  0  0  0  0  0  0  0  0
    9.4797  -31.6471  -12.4052 O   0  0  0  0  0  0  0  0  0  0  0  0
    4.6068  -37.1252  -16.4388 O   0  0  0  0  0  0  0  0  0  0  0  0
    7.3332  -32.4214  -13.0964 C   0  0  1  0  0  0  0  0  0  0  0  0
    6.4176  -35.6184  -16.0725 C   0  0  1  0  0  0  0  0  0  0  0  0
    6.5464  -33.3174  -12.3173 O   0  0  0  0  0  0  0  0  0  0  0  0
    7.7821  -36.0201  -16.1501 O   0  0  0  0  0  0  0  0  0  0  0  0
    7.1847  -31.0062  -12.5695 C   0  0  0  0  0  0  0  0  0  0  0  0
    5.8673  -35.3747  -17.4644 C   0  0  0  0  0  0  0  0  0  0  0  0
    8.5789  -30.5664  -12.1484 C   0  0  2  0  0  0  0  0  0  0  0  0
    4.7182  -36.3574  -17.6396 C   0  0  2  0  0  0  0  0  0  0  0  0
    8.7980  -28.3354  -16.8974 N   0  0  0  0  0  0  0  0  0  0  0  0
    8.3153  -29.5347  -16.5236 C   0  0  0  0  0  0  0  0  0  0  0  0
    8.3251  -29.9819  -15.2543 N   0  0  0  0  0  0  0  0  0  0  0  0
    8.8365  -29.2246  -14.2543 C   0  0  0  0  0  0  0  0  0  0  0  0
    9.3836  -27.8990  -14.5831 C   0  0  0  0  0  0  0  0  0  0  0  0
    9.3378  -27.4771  -16.0033 C   0  0  0  0  0  0  0  0  0  0  0  0
    9.8197  -26.2719  -16.3918 N   0  0  0  0  0  0  0  0  0  0  0  0
    9.8195  -27.3659  -13.4263 N   0  0  0  0  0  0  0  0  0  0  0  0
    9.5739  -28.2693  -12.4431 C   0  0  0  0  0  0  0  0  0  0  0  0
    8.9878  -29.3772  -12.9364 N   0  0  0  0  0  0  0  0  0  0  0  0
    0.2578  -36.0842  -20.3968 N   0  0  0  0  0  0  0  0  0  0  0  0
    1.2608  -36.9796  -20.4560 C   0  0  0  0  0  0  0  0  0  0  0  0
    2.3578  -36.9256  -19.6793 N   0  0  0  0  0  0  0  0  0  0  0  0
    2.5149  -35.9355  -18.7677 C   0  0  0  0  0  0  0  0  0  0  0  0
    1.4602  -34.9176  -18.6427 C   0  0  0  0  0  0  0  0  0  0  0  0
    0.2828  -35.0460  -19.5334 C   0  0  0  0  0  0  0  0  0  0  0  0
   -0.7343  -34.1510  -19.4828 N   0  0  0  0  0  0  0  0  0  0  0  0
    1.8610  -34.0660  -17.6799 N   0  0  0  0  0  0  0  0  0  0  0  0
    3.0660  -34.5000  -17.2287 C   0  0  0  0  0  0  0  0  0  0  0  0
    3.4556  -35.6133  -17.8766 N   0  0  0  0  0  0  0  0  0  0  0  0
  1  3  1  1  0  0  0
  1  5  2  0  0  0  0
  1  9  1  0  0  0  0
  1 18  1  0  0  0  0
  2  4  1  6  0  0  0
  2  6  2  0  0  0  0
  2 10  1  0  0  0  0
  2 17  1  0  0  0  0
  7  9  1  0  0  0  0
  8 10  1  0  0  0  0
 11  7  1  6  0  0  0
 11 13  1  0  0  0  0
 11 15  1  0  0  0  0
 12  8  1  1  0  0  0
 12 14  1  0  0  0  0
 12 16  1  0  0  0  0
 13 21  1  0  0  0  0
 14 22  1  0  0  0  0
 15 17  1  1  0  0  0
 15 19  1  0  0  0  0
 16 18  1  6  0  0  0
 16 20  1  0  0  0  0
 19 21  1  0  0  0  0
 20 22  1  0  0  0  0
 21 32  1  6  0  0  0
 22 42  1  1  0  0  0
 23 24  2  0  0  0  0
 23 28  1  0  0  0  0
 24 25  1  0  0  0  0
 25 26  2  0  0  0  0
 26 27  1  0  0  0  0
 26 32  1  0  0  0  0
 27 28  2  0  0  0  0
 27 30  1  0  0  0  0
 28 29  1  0  0  0  0
 30 31  2  0  0  0  0
 31 32  1  0  0  0  0
 33 34  2  0  0  0  0
 33 38  1  0  0  0  0
 34 35  1  0  0  0  0
 35 36  2  0  0  0  0
 36 37  1  0  0  0  0
 36 42  1  0  0  0  0
 37 38  2  0  0  0  0
 37 40  1  0  0  0  0
 38 39  1  0  0  0  0
 40 41  2  0  0  0  0
 41 42  1  0  0  0  0
M  CHG  2   3  -1   4  -1
M  END
>  <CHROM.1>
73.55242341,-103.55562464,6.30424935,-33.27855847,-15.55315830,-0.42345439
0.74989762,2.76417793

>  <Name>
ligand

>  <RI>
0

>  <Rbt.Current_Directory>
/home/itssahil/PROJECTS/Mol_Feturizer/New_Systems/rnas/4QLN

>  <Rbt.Executable>
rbdock ($Id: //depot/dev/client3/rdock/2013.1/src/exe/rbdock.cxx#4 $)

>  <Rbt.Library>
libRbt.so (2013.1, Build901 2013/11/27)

>  <Rbt.Parameter_File>
/export/apps/rDock/src/rDock_2013.1_src/data/scripts/dock_solv.prm

>  <Rbt.Receptor>
prm/pocket_docking_6.prm

>  <SCORE>
-32.4394

>  <SCORE.INTER>
-33.0295

>  <SCORE.INTER.CONST>
1

>  <SCORE.INTER.POLAR>
0

>  <SCORE.INTER.ROT>
2

>  <SCORE.INTER.SOLV>
30.8546

>  <SCORE.INTER.VDW>
-37.2379

>  <SCORE.INTER.norm>
-0.786417

>  <SCORE.INTRA>
0.590143

>  <SCORE.INTRA.DIHEDRAL>
-0.000250634

>  <SCORE.INTRA.DIHEDRAL.0>
2.39985

>  <SCORE.INTRA.POLAR>
0

>  <SCORE.INTRA.POLAR.0>
0

>  <SCORE.INTRA.REPUL>
0

>  <SCORE.INTRA.REPUL.0>
0

>  <SCORE.INTRA.SOLV>
-0.0151498

>  <SCORE.INTRA.SOLV.lig_0>
-110.958

>  <SCORE.INTRA.VDW>
0.597844

>  <SCORE.INTRA.VDW.0>
-2.34644

>  <SCORE.INTRA.norm>
0.014051

>  <SCORE.RESTR>
0

>  <SCORE.RESTR.CAVITY>
0

>  <SCORE.RESTR.norm>
0

>  <SCORE.SYSTEM>
0

>  <SCORE.SYSTEM.CONST>
0

>  <SCORE.SYSTEM.DIHEDRAL>
0

>  <SCORE.SYSTEM.SOLV>
0

>  <SCORE.SYSTEM.norm>
0

>  <SCORE.heavy>
42

>  <SCORE.norm>
-0.772366

>  <RMSD>
2.215

$$$$
ligand
 OpenBabel11021811513D
libRbt.so/2013.1/901 2013/11/27
 42 48  0  0  0  0  0  0  0  0999 V2000
    8.9657  -34.9194  -16.1889 P   0  0  2  0  0  0  0  0  0  0  0  0
    5.2287  -33.9957  -12.9186 P   0  0  1  0  0  0  0  0  0  0  0  0
   10.2357  -35.5599  -15.6790 O   0  5  0  0  0  0  0  0  0  0  0  0
    4.7950  -33.1754  -14.1099 O   0  5  0  0  0  0  0  0  0  0  0  0
    8.9476  -34.2608  -17.5476 O   0  0  0  0  0  0  0  0  0  0  0  0
    4.2639  -34.2471  -11.7847 O   0  0  0  0  0  0  0  0  0  0  0  0
    9.4210  -33.1110  -14.3236 C   0  0  0  0  0  0  0  0  0  0  0  0
    4.8971  -36.2843  -14.1858 C   0  0  0  0  0  0  0  0  0  0  0  0
    8.4729  -33.8417  -15.0996 O   0  0  0  0  0  0  0  0  0  0  0  0
    5.7606  -35.4184  -13.4529 O   0  0  0  0  0  0  0  0  0  0  0  0
    8.8169  -32.7797  -12.9642 C   0  0  1  0  0  0  0  0  0  0  0  0
    5.5955  -36.7428  -15.4598 C   0  0  1  0  0  0  0  0  0  0  0  0
    9.4896  -31.6507  -12.4000 O   0  0  0  0  0  0  0  0  0  0  0  0
    4.6212  -37.1358  -16.4294 O   0  0  0  0  0  0  0  0  0  0  0  0
    7.3435  -32.4299  -13.0867 C   0  0  1  0  0  0  0  0  0  0  0  0
    6.4288  -35.6246  -16.0655 C   0  0  1  0  0  0  0  0  0  0  0  0
    6.5612  -33.3293  -12.3070 O   0  0  0  0  0  0  0  0  0  0  0  0
    7.7941  -36.0223  -16.1474 O   0  0  0  0  0  0  0  0  0  0  0  0
    7.1924  -31.0159  -12.5572 C   0  0  0  0  0  0  0  0  0  0  0  0
    5.8741  -35.3802  -17.4556 C   0  0  0  0  0  0  0  0  0  0  0  0
    8.5866  -30.5729  -12.1391 C   0  0  2  0  0  0  0  0  0  0  0  0
    4.7273  -36.3658  -17.6293 C   0  0  2  0  0  0  0  0  0  0  0  0
    8.8253  -28.3509  -16.8913 N   0  0  0  0  0  0  0  0  0  0  0  0
    8.3520  -29.5544  -16.5190 C   0  0  0  0  0  0  0  0  0  0  0  0
    8.3549  -29.9985  -15.2486 N   0  0  0  0  0  0  0  0  0  0  0  0
    8.8491  -29.2334  -14.2459 C   0  0  0  0  0  0  0  0  0  0  0  0
    9.3852  -27.9029  -14.5729 C   0  0  0  0  0  0  0  0  0  0  0  0
    9.3479  -27.4848  -15.9945 C   0  0  0  0  0  0  0  0  0  0  0  0
    9.8206  -26.2755  -16.3816 N   0  0  0  0  0  0  0  0  0  0  0  0
    9.8048  -27.3625  -13.4135 N   0  0  0  0  0  0  0  0  0  0  0  0
    9.5598  -28.2661  -12.4303 C   0  0  0  0  0  0  0  0  0  0  0  0
    8.9900  -29.3813  -12.9262 N   0  0  0  0  0  0  0  0  0  0  0  0
    0.2796  -36.0746  -20.4053 N   0  0  0  0  0  0  0  0  0  0  0  0
    1.2877  -36.9637  -20.4727 C   0  0  0  0  0  0  0  0  0  0  0  0
    2.3804  -36.9156  -19.6895 N   0  0  0  0  0  0  0  0  0  0  0  0
    2.5276  -35.9385  -18.7624 C   0  0  0  0  0  0  0  0  0  0  0  0
    1.4669  -34.9282  -18.6277 C   0  0  0  0  0  0  0  0  0  0  0  0
    0.2947  -35.0494  -19.5264 C   0  0  0  0  0  0  0  0  0  0  0  0
   -0.7273  -34.1605  -19.4676 N   0  0  0  0  0  0  0  0  0  0  0  0
    1.8582  -34.0890  -17.6502 N   0  0  0  0  0  0  0  0  0  0  0  0
    3.0631  -34.5234  -17.1993 C   0  0  0  0  0  0  0  0  0  0  0  0
    3.4619  -35.6248  -17.8617 N   0  0  0  0  0  0  0  0  0  0  0  0
  1  3  1  1  0  0  0
  1  5  2  0  0  0  0
  1  9  1  0  0  0  0
  1 18  1  0  0  0  0
  2  4  1  6  0  0  0
  2  6  2  0  0  0  0
  2 10  1  0  0  0  0
  2 17  1  0  0  0  0
  7  9  1  0  0  0  0
  8 10  1  0  0  0  0
 11  7  1  6  0  0  0
 11 13  1  0  0  0  0
 11 15  1  0  0  0  0
 12  8  1  1  0  0  0
 12 14  1  0  0  0  0
 12 16  1  0  0  0  0
 13 21  1  0  0  0  0
 14 22  1  0  0  0  0
 15 17  1  1  0  0  0
 15 19  1  0  0  0  0
 16 18  1  6  0  0  0
 16 20  1  0  0  0  0
 19 21  1  0  0  0  0
 20 22  1  0  0  0  0
 21 32  1  6  0  0  0
 22 42  1  1  0  0  0
 23 24  2  0  0  0  0
 23 28  1  0  0  0  0
 24 25  1  0  0  0  0
 25 26  2  0  0  0  0
 26 27  1  0  0  0  0
 26 32  1  0  0  0  0
 27 28  2  0  0  0  0
 27 30  1  0  0  0  0
 28 29  1  0  0  0  0
 30 31  2  0  0  0  0
 31 32  1  0  0  0  0
 33 34  2  0  0  0  0
 33 38  1  0  0  0  0
 34 35  1  0  0  0  0
 35 36  2  0  0  0  0
 36 37  1  0  0  0  0
 36 42  1  0  0  0  0
 37 38  2  0  0  0  0
 37 40  1  0  0  0  0
 38 39  1  0  0  0  0
 40 41  2  0  0  0  0
 41 42  1  0  0  0  0
M  CHG  2   3  -1   4  -1
M  END
>  <CHROM.1>
72.71073847,-104.45466490,6.31519555,-33.28518340,-15.54518235,-0.41943535
0.75234639,2.75841771

>  <Name>
ligand

>  <RI>
0

>  <Rbt.Current_Directory>
/home/itssahil/PROJECTS/Mol_Feturizer/New_Systems/rnas/4QLN

>  <Rbt.Executable>
rbdock ($Id: //depot/dev/client3/rdock/2013.1/src/exe/rbdock.cxx#4 $)

>  <Rbt.Library>
libRbt.so (2013.1, Build901 2013/11/27)

>  <Rbt.Parameter_File>
/export/apps/rDock/src/rDock_2013.1_src/data/scripts/dock_solv.prm

>  <Rbt.Receptor>
prm/pocket_docking_3.prm

>  <SCORE>
-32.5085

>  <SCORE.INTER>
-33.0505

>  <SCORE.INTER.CONST>
1

>  <SCORE.INTER.POLAR>
0

>  <SCORE.INTER.ROT>
2

>  <SCORE.INTER.SOLV>
30.8176

>  <SCORE.INTER.VDW>
-37.2396

>  <SCORE.INTER.norm>
-0.786917

>  <SCORE.INTRA>
0.542

>  <SCORE.INTRA.DIHEDRAL>
-0.000235821

>  <SCORE.INTRA.DIHEDRAL.0>
2.39985

>  <SCORE.INTRA.POLAR>
0

>  <SCORE.INTRA.POLAR.0>
0

>  <SCORE.INTRA.REPUL>
0

>  <SCORE.INTRA.REPUL.0>
0

>  <SCORE.INTRA.SOLV>
-0.0136456

>  <SCORE.INTRA.SOLV.lig_0>
-110.958

>  <SCORE.INTRA.VDW>
0.548941

>  <SCORE.INTRA.VDW.0>
-2.34644

>  <SCORE.INTRA.norm>
0.0129048

>  <SCORE.RESTR>
0

>  <SCORE.RESTR.CAVITY>
0

>  <SCORE.RESTR.norm>
0

>  <SCORE.SYSTEM>
0

>  <SCORE.SYSTEM.CONST>
0

>  <SCORE.SYSTEM.DIHEDRAL>
0

>  <SCORE.SYSTEM.SOLV>
0

>  <SCORE.SYSTEM.norm>
0

>  <SCORE.heavy>
42

>  <SCORE.norm>
-0.774012

>  <RMSD>
2.216

$$$$
ligand
 OpenBabel11021811513D
libRbt.so/2013.1/901 2013/11/27
 42 48  0  0  0  0  0  0  0  0999 V2000
    8.9667  -34.9144  -16.1961 P   0  0  2  0  0  0  0  0  0  0  0  0
    5.2246  -33.9913  -12.9313 P   0  0  1  0  0  0  0  0  0  0  0  0
   10.2351  -35.5565  -15.6846 O   0  5  0  0  0  0  0  0  0  0  0  0
    4.7937  -33.1692  -14.1224 O   0  5  0  0  0  0  0  0  0  0  0  0
    8.9515  -34.2542  -17.5540 O   0  0  0  0  0  0  0  0  0  0  0  0
    4.2576  -34.2432  -11.7994 O   0  0  0  0  0  0  0  0  0  0  0  0
    9.4201  -33.1085  -14.3279 C   0  0  0  0  0  0  0  0  0  0  0  0
    4.8933  -36.2782  -14.2017 C   0  0  0  0  0  0  0  0  0  0  0  0
    8.4728  -33.8376  -15.1064 O   0  0  0  0  0  0  0  0  0  0  0  0
    5.7563  -35.4139  -13.4663 O   0  0  0  0  0  0  0  0  0  0  0  0
    8.8139  -32.7783  -12.9692 C   0  0  1  0  0  0  0  0  0  0  0  0
    5.5936  -36.7358  -15.4750 C   0  0  1  0  0  0  0  0  0  0  0  0
    9.4866  -31.6505  -12.4025 O   0  0  0  0  0  0  0  0  0  0  0  0
    4.6207  -37.1269  -16.4468 O   0  0  0  0  0  0  0  0  0  0  0  0
    7.3410  -32.4271  -13.0939 C   0  0  1  0  0  0  0  0  0  0  0  0
    6.4289  -35.6176  -16.0779 C   0  0  1  0  0  0  0  0  0  0  0  0
    6.5566  -33.3267  -12.3165 O   0  0  0  0  0  0  0  0  0  0  0  0
    7.7940  -36.0164  -16.1579 O   0  0  0  0  0  0  0  0  0  0  0  0
    7.1902  -31.0136  -12.5629 C   0  0  0  0  0  0  0  0  0  0  0  0
    5.8768  -35.3711  -17.4687 C   0  0  0  0  0  0  0  0  0  0  0  0
    8.5840  -30.5722  -12.1419 C   0  0  2  0  0  0  0  0  0  0  0  0
    4.7295  -36.3555  -17.6456 C   0  0  2  0  0  0  0  0  0  0  0  0
    8.8226  -28.3403  -16.8895 N   0  0  0  0  0  0  0  0  0  0  0  0
    8.3462  -29.5433  -16.5192 C   0  0  0  0  0  0  0  0  0  0  0  0
    8.3497  -29.9902  -15.2498 N   0  0  0  0  0  0  0  0  0  0  0  0
    8.8475  -29.2289  -14.2461 C   0  0  0  0  0  0  0  0  0  0  0  0
    9.3870  -27.8991  -14.5709 C   0  0  0  0  0  0  0  0  0  0  0  0
    9.3490  -27.4778  -15.9914 C   0  0  0  0  0  0  0  0  0  0  0  0
    9.8246  -26.2691  -16.3765 N   0  0  0  0  0  0  0  0  0  0  0  0
    9.8099  -27.3626  -13.4109 N   0  0  0  0  0  0  0  0  0  0  0  0
    9.5636  -28.2677  -12.4294 C   0  0  0  0  0  0  0  0  0  0  0  0
    8.9898  -29.3800  -12.9270 N   0  0  0  0  0  0  0  0  0  0  0  0
    0.2806  -36.0654  -20.4196 N   0  0  0  0  0  0  0  0  0  0  0  0
    1.2872  -36.9564  -20.4850 C   0  0  0  0  0  0  0  0  0  0  0  0
    2.3805  -36.9077  -19.7027 N   0  0  0  0  0  0  0  0  0  0  0  0
    2.5298  -35.9281  -18.7786 C   0  0  0  0  0  0  0  0  0  0  0  0
    1.4708  -34.9157  -18.6462 C   0  0  0  0  0  0  0  0  0  0  0  0
    0.2979  -35.0376  -19.5437 C   0  0  0  0  0  0  0  0  0  0  0  0
   -0.7227  -34.1470  -19.4870 N   0  0  0  0  0  0  0  0  0  0  0  0
    1.8641  -34.0742  -17.6714 N   0  0  0  0  0  0  0  0  0  0  0  0
    3.0686  -34.5093  -17.2200 C   0  0  0  0  0  0  0  0  0  0  0  0
    3.4652  -35.6133  -17.8794 N   0  0  0  0  0  0  0  0  0  0  0  0
  1  3  1  1  0  0  0
  1  5  2  0  0  0  0
  1  9  1  0  0  0  0
  1 18  1  0  0  0  0
  2  4  1  6  0  0  0
  2  6  2  0  0  0  0
  2 10  1  0  0  0  0
  2 17  1  0  0  0  0
  7  9  1  0  0  0  0
  8 10  1  0  0  0  0
 11  7  1  6  0  0  0
 11 13  1  0  0  0  0
 11 15  1  0  0  0  0
 12  8  1  1  0  0  0
 12 14  1  0  0  0  0
 12 16  1  0  0  0  0
 13 21  1  0  0  0  0
 14 22  1  0  0  0  0
 15 17  1  1  0  0  0
 15 19  1  0  0  0  0
 16 18  1  6  0  0  0
 16 20  1  0  0  0  0
 19 21  1  0  0  0  0
 20 22  1  0  0  0  0
 21 32  1  6  0  0  0
 22 42  1  1  0  0  0
 23 24  2  0  0  0  0
 23 28  1  0  0  0  0
 24 25  1  0  0  0  0
 25 26  2  0  0  0  0
 26 27  1  0  0  0  0
 26 32  1  0  0  0  0
 27 28  2  0  0  0  0
 27 30  1  0  0  0  0
 28 29  1  0  0  0  0
 30 31  2  0  0  0  0
 31 32  1  0  0  0  0
 33 34  2  0  0  0  0
 33 38  1  0  0  0  0
 34 35  1  0  0  0  0
 35 36  2  0  0  0  0
 36 37  1  0  0  0  0
 36 42  1  0  0  0  0
 37 38  2  0  0  0  0
 37 40  1  0  0  0  0
 38 39  1  0  0  0  0
 40 41  2  0  0  0  0
 41 42  1  0  0  0  0
M  CHG  2   3  -1   4  -1
M  END
>  <CHROM.1>
72.93737595,-104.17863766,6.31496571,-33.27896609,-15.55422304,-0.42002048
0.75253208,2.76126347

>  <Name>
ligand

>  <RI>
0

>  <Rbt.Current_Directory>
/home/itssahil/PROJECTS/Mol_Feturizer/New_Systems/rnas/4QLN

>  <Rbt.Executable>
rbdock ($Id: //depot/dev/client3/rdock/2013.1/src/exe/rbdock.cxx#4 $)

>  <Rbt.Library>
libRbt.so (2013.1, Build901 2013/11/27)

>  <Rbt.Parameter_File>
/export/apps/rDock/src/rDock_2013.1_src/data/scripts/dock_solv.prm

>  <Rbt.Receptor>
prm/pocket_docking_3.prm

>  <SCORE>
-32.4886

>  <SCORE.INTER>
-33.0441

>  <SCORE.INTER.CONST>
1

>  <SCORE.INTER.POLAR>
0

>  <SCORE.INTER.ROT>
2

>  <SCORE.INTER.SOLV>
30.872

>  <SCORE.INTER.VDW>
-37.2534

>  <SCORE.INTER.norm>
-0.786764

>  <SCORE.INTRA>
0.555515

>  <SCORE.INTRA.DIHEDRAL>
-0.000240805

>  <SCORE.INTRA.DIHEDRAL.0>
2.39985

>  <SCORE.INTRA.POLAR>
0

>  <SCORE.INTRA.POLAR.0>
0

>  <SCORE.INTRA.REPUL>
0

>  <SCORE.INTRA.REPUL.0>
0

>  <SCORE.INTRA.SOLV>
-0.0140734

>  <SCORE.INTRA.SOLV.lig_0>
-110.958

>  <SCORE.INTRA.VDW>
0.562672

>  <SCORE.INTRA.VDW.0>
-2.34644

>  <SCORE.INTRA.norm>
0.0132266

>  <SCORE.RESTR>
0

>  <SCORE.RESTR.CAVITY>
0

>  <SCORE.RESTR.norm>
0

>  <SCORE.SYSTEM>
0

>  <SCORE.SYSTEM.CONST>
0

>  <SCORE.SYSTEM.DIHEDRAL>
0

>  <SCORE.SYSTEM.SOLV>
0

>  <SCORE.SYSTEM.norm>
0

>  <SCORE.heavy>
42

>  <SCORE.norm>
-0.773537

>  <RMSD>
2.216

$$$$
ligand
 OpenBabel11021811513D
libRbt.so/2013.1/901 2013/11/27
 42 48  0  0  0  0  0  0  0  0999 V2000
    8.9656  -34.9191  -16.1880 P   0  0  2  0  0  0  0  0  0  0  0  0
    5.2290  -33.9932  -12.9177 P   0  0  1  0  0  0  0  0  0  0  0  0
   10.2353  -35.5598  -15.6779 O   0  5  0  0  0  0  0  0  0  0  0  0
    4.7955  -33.1730  -14.1093 O   0  5  0  0  0  0  0  0  0  0  0  0
    8.9477  -34.2608  -17.5468 O   0  0  0  0  0  0  0  0  0  0  0  0
    4.2642  -34.2438  -11.7838 O   0  0  0  0  0  0  0  0  0  0  0  0
    9.4216  -33.1103  -14.3232 C   0  0  0  0  0  0  0  0  0  0  0  0
    4.8966  -36.2820  -14.1843 C   0  0  0  0  0  0  0  0  0  0  0  0
    8.4732  -33.8409  -15.0989 O   0  0  0  0  0  0  0  0  0  0  0  0
    5.7604  -35.4162  -13.4516 O   0  0  0  0  0  0  0  0  0  0  0  0
    8.8177  -32.7784  -12.9639 C   0  0  1  0  0  0  0  0  0  0  0  0
    5.5948  -36.7411  -15.4582 C   0  0  1  0  0  0  0  0  0  0  0  0
    9.4907  -31.6494  -12.4000 O   0  0  0  0  0  0  0  0  0  0  0  0
    4.6203  -37.1341  -16.4276 O   0  0  0  0  0  0  0  0  0  0  0  0
    7.3443  -32.4281  -13.0864 C   0  0  1  0  0  0  0  0  0  0  0  0
    6.4284  -35.6233  -16.0642 C   0  0  1  0  0  0  0  0  0  0  0  0
    6.5618  -33.3270  -12.3064 O   0  0  0  0  0  0  0  0  0  0  0  0
    7.7936  -36.0216  -16.1461 O   0  0  0  0  0  0  0  0  0  0  0  0
    7.1937  -31.0139  -12.5572 C   0  0  0  0  0  0  0  0  0  0  0  0
    5.8737  -35.3791  -17.4543 C   0  0  0  0  0  0  0  0  0  0  0  0
    8.5881  -30.5712  -12.1393 C   0  0  2  0  0  0  0  0  0  0  0  0
    4.7266  -36.3644  -17.6278 C   0  0  2  0  0  0  0  0  0  0  0  0
    8.8225  -28.3485  -16.8915 N   0  0  0  0  0  0  0  0  0  0  0  0
    8.3481  -29.5515  -16.5186 C   0  0  0  0  0  0  0  0  0  0  0  0
    8.3524  -29.9958  -15.2483 N   0  0  0  0  0  0  0  0  0  0  0  0
    8.8491  -29.2317  -14.2462 C   0  0  0  0  0  0  0  0  0  0  0  0
    9.3865  -27.9017  -14.5738 C   0  0  0  0  0  0  0  0  0  0  0  0
    9.3476  -27.4833  -15.9952 C   0  0  0  0  0  0  0  0  0  0  0  0
    9.8212  -26.2746  -16.3828 N   0  0  0  0  0  0  0  0  0  0  0  0
    9.8086  -27.3621  -13.4149 N   0  0  0  0  0  0  0  0  0  0  0  0
    9.5640  -28.2657  -12.4316 C   0  0  0  0  0  0  0  0  0  0  0  0
    8.9918  -29.3800  -12.9268 N   0  0  0  0  0  0  0  0  0  0  0  0
    0.2774  -36.0744  -20.4013 N   0  0  0  0  0  0  0  0  0  0  0  0
    1.2850  -36.9642  -20.4682 C   0  0  0  0  0  0  0  0  0  0  0  0
    2.3782  -36.9156  -19.6858 N   0  0  0  0  0  0  0  0  0  0  0  0
    2.5264  -35.9375  -18.7600 C   0  0  0  0  0  0  0  0  0  0  0  0
    1.4663  -34.9264  -18.6259 C   0  0  0  0  0  0  0  0  0  0  0  0
    0.2936  -35.0481  -19.5238 C   0  0  0  0  0  0  0  0  0  0  0  0
   -0.7280  -34.1586  -19.4655 N   0  0  0  0  0  0  0  0  0  0  0  0
    1.8587  -34.0861  -17.6497 N   0  0  0  0  0  0  0  0  0  0  0  0
    3.0636  -34.5206  -17.1990 C   0  0  0  0  0  0  0  0  0  0  0  0
    3.4615  -35.6231  -17.8603 N   0  0  0  0  0  0  0  0  0  0  0  0
  1  3  1  1  0  0  0
  1  5  2  0  0  0  0
  1  9  1  0  0  0  0
  1 18  1  0  0  0  0
  2  4  1  6  0  0  0
  2  6  2  0  0  0  0
  2 10  1  0  0  0  0
  2 17  1  0  0  0  0
  7  9  1  0  0  0  0
  8 10  1  0  0  0  0
 11  7  1  6  0  0  0
 11 13  1  0  0  0  0
 11 15  1  0  0  0  0
 12  8  1  1  0  0  0
 12 14  1  0  0  0  0
 12 16  1  0  0  0  0
 13 21  1  0  0  0  0
 14 22  1  0  0  0  0
 15 17  1  1  0  0  0
 15 19  1  0  0  0  0
 16 18  1  6  0  0  0
 16 20  1  0  0  0  0
 19 21  1  0  0  0  0
 20 22  1  0  0  0  0
 21 32  1  6  0  0  0
 22 42  1  1  0  0  0
 23 24  2  0  0  0  0
 23 28  1  0  0  0  0
 24 25  1  0  0  0  0
 25 26  2  0  0  0  0
 26 27  1  0  0  0  0
 26 32  1  0  0  0  0
 27 28  2  0  0  0  0
 27 30  1  0  0  0  0
 28 29  1  0  0  0  0
 30 31  2  0  0  0  0
 31 32  1  0  0  0  0
 33 34  2  0  0  0  0
 33 38  1  0  0  0  0
 34 35  1  0  0  0  0
 35 36  2  0  0  0  0
 36 37  1  0  0  0  0
 36 42  1  0  0  0  0
 37 38  2  0  0  0  0
 37 40  1  0  0  0  0
 38 39  1  0  0  0  0
 40 41  2  0  0  0  0
 41 42  1  0  0  0  0
M  CHG  2   3  -1   4  -1
M  END
>  <CHROM.1>
72.81849180,-104.38838772,6.31510591,-33.28371330,-15.54432146,-0.41993867
0.75183401,2.75899698

>  <Name>
ligand

>  <RI>
0

>  <Rbt.Current_Directory>
/home/itssahil/PROJECTS/Mol_Feturizer/New_Systems/rnas/4QLN

>  <Rbt.Executable>
rbdock ($Id: //depot/dev/client3/rdock/2013.1/src/exe/rbdock.cxx#4 $)

>  <Rbt.Library>
libRbt.so (2013.1, Build901 2013/11/27)

>  <Rbt.Parameter_File>
/export/apps/rDock/src/rDock_2013.1_src/data/scripts/dock_solv.prm

>  <Rbt.Receptor>
prm/pocket_docking_4.prm

>  <SCORE>
-32.4936

>  <SCORE.INTER>
-33.0407

>  <SCORE.INTER.CONST>
1

>  <SCORE.INTER.POLAR>
0

>  <SCORE.INTER.ROT>
2

>  <SCORE.INTER.SOLV>
30.8257

>  <SCORE.INTER.VDW>
-37.2357

>  <SCORE.INTER.norm>
-0.786683

>  <SCORE.INTRA>
0.547056

>  <SCORE.INTRA.DIHEDRAL>
-0.000236453

>  <SCORE.INTRA.DIHEDRAL.0>
2.39985

>  <SCORE.INTRA.POLAR>
0

>  <SCORE.INTRA.POLAR.0>
0

>  <SCORE.INTRA.REPUL>
0

>  <SCORE.INTRA.REPUL.0>
0

>  <SCORE.INTRA.SOLV>
-0.0137888

>  <SCORE.INTRA.SOLV.lig_0>
-110.958

>  <SCORE.INTRA.VDW>
0.554069

>  <SCORE.INTRA.VDW.0>
-2.34644

>  <SCORE.INTRA.norm>
0.0130252

>  <SCORE.RESTR>
0

>  <SCORE.RESTR.CAVITY>
0

>  <SCORE.RESTR.norm>
0

>  <SCORE.SYSTEM>
0

>  <SCORE.SYSTEM.CONST>
0

>  <SCORE.SYSTEM.DIHEDRAL>
0

>  <SCORE.SYSTEM.SOLV>
0

>  <SCORE.SYSTEM.norm>
0

>  <SCORE.heavy>
42

>  <SCORE.norm>
-0.773657

>  <RMSD>
2.216

$$$$
ligand
 OpenBabel11021811513D
libRbt.so/2013.1/901 2013/11/27
 42 48  0  0  0  0  0  0  0  0999 V2000
    8.9691  -34.9107  -16.1873 P   0  0  2  0  0  0  0  0  0  0  0  0
    5.2241  -33.9681  -12.9315 P   0  0  1  0  0  0  0  0  0  0  0  0
   10.2367  -35.5508  -15.6711 O   0  5  0  0  0  0  0  0  0  0  0  0
    4.7949  -33.1520  -14.1274 O   0  5  0  0  0  0  0  0  0  0  0  0
    8.9558  -34.2576  -17.5487 O   0  0  0  0  0  0  0  0  0  0  0  0
    4.2557  -34.2133  -11.7994 O   0  0  0  0  0  0  0  0  0  0  0  0
    9.4217  -33.0952  -14.3282 C   0  0  0  0  0  0  0  0  0  0  0  0
    4.8928  -36.2614  -14.1902 C   0  0  0  0  0  0  0  0  0  0  0  0
    8.4747  -33.8278  -15.1039 O   0  0  0  0  0  0  0  0  0  0  0  0
    5.7555  -35.3938  -13.4584 O   0  0  0  0  0  0  0  0  0  0  0  0
    8.8142  -32.7574  -12.9719 C   0  0  1  0  0  0  0  0  0  0  0  0
    5.5942  -36.7262  -15.4603 C   0  0  1  0  0  0  0  0  0  0  0  0
    9.4869  -31.6270  -12.4104 O   0  0  0  0  0  0  0  0  0  0  0  0
    4.6220  -37.1218  -16.4310 O   0  0  0  0  0  0  0  0  0  0  0  0
    7.3416  -32.4060  -13.1000 C   0  0  1  0  0  0  0  0  0  0  0  0
    6.4308  -35.6117  -16.0682 C   0  0  1  0  0  0  0  0  0  0  0  0
    6.5558  -33.3010  -12.3188 O   0  0  0  0  0  0  0  0  0  0  0  0
    7.7958  -36.0117  -16.1446 O   0  0  0  0  0  0  0  0  0  0  0  0
    7.1911  -30.9897  -12.5768 C   0  0  0  0  0  0  0  0  0  0  0  0
    5.8804  -35.3722  -17.4608 C   0  0  0  0  0  0  0  0  0  0  0  0
    8.5847  -30.5468  -12.1565 C   0  0  2  0  0  0  0  0  0  0  0  0
    4.7327  -36.3569  -17.6338 C   0  0  2  0  0  0  0  0  0  0  0  0
    8.7933  -28.3238  -16.9097 N   0  0  0  0  0  0  0  0  0  0  0  0
    8.3111  -29.5224  -16.5328 C   0  0  0  0  0  0  0  0  0  0  0  0
    8.3237  -29.9674  -15.2628 N   0  0  0  0  0  0  0  0  0  0  0  0
    8.8377  -29.2087  -14.2653 C   0  0  0  0  0  0  0  0  0  0  0  0
    9.3845  -27.8838  -14.5975 C   0  0  0  0  0  0  0  0  0  0  0  0
    9.3355  -27.4642  -16.0183 C   0  0  0  0  0  0  0  0  0  0  0  0
    9.8169  -26.2598  -16.4100 N   0  0  0  0  0  0  0  0  0  0  0  0
    9.8233  -27.3489  -13.4426 N   0  0  0  0  0  0  0  0  0  0  0  0
    9.5797  -28.2506  -12.4574 C   0  0  0  0  0  0  0  0  0  0  0  0
    8.9920  -29.3591  -12.9475 N   0  0  0  0  0  0  0  0  0  0  0  0
    0.2897  -36.0753  -20.4182 N   0  0  0  0  0  0  0  0  0  0  0  0
    1.2963  -36.9667  -20.4784 C   0  0  0  0  0  0  0  0  0  0  0  0
    2.3879  -36.9156  -19.6940 N   0  0  0  0  0  0  0  0  0  0  0  0
    2.5355  -35.9329  -18.7729 C   0  0  0  0  0  0  0  0  0  0  0  0
    1.4765  -34.9197  -18.6463 C   0  0  0  0  0  0  0  0  0  0  0  0
    0.3054  -35.0445  -19.5460 C   0  0  0  0  0  0  0  0  0  0  0  0
   -0.7150  -34.1534  -19.4945 N   0  0  0  0  0  0  0  0  0  0  0  0
    1.8679  -34.0749  -17.6736 N   0  0  0  0  0  0  0  0  0  0  0  0
    3.0713  -34.5087  -17.2182 C   0  0  0  0  0  0  0  0  0  0  0  0
    3.4691  -35.6151  -17.8729 N   0  0  0  0  0  0  0  0  0  0  0  0
  1  3  1  1  0  0  0
  1  5  2  0  0  0  0
  1  9  1  0  0  0  0
  1 18  1  0  0  0  0
  2  4  1  6  0  0  0
  2  6  2  0  0  0  0
  2 10  1  0  0  0  0
  2 17  1  0  0  0  0
  7  9  1  0  0  0  0
  8 10  1  0  0  0  0
 11  7  1  6  0  0  0
 11 13  1  0  0  0  0
 11 15  1  0  0  0  0
 12  8  1  1  0  0  0
 12 14  1  0  0  0  0
 12 16  1  0  0  0  0
 13 21  1  0  0  0  0
 14 22  1  0  0  0  0
 15 17  1  1  0  0  0
 15 19  1  0  0  0  0
 16 18  1  6  0  0  0
 16 20  1  0  0  0  0
 19 21  1  0  0  0  0
 20 22  1  0  0  0  0
 21 32  1  6  0  0  0
 22 42  1  1  0  0  0
 23 24  2  0  0  0  0
 23 28  1  0  0  0  0
 24 25  1  0  0  0  0
 25 26  2  0  0  0  0
 26 27  1  0  0  0  0
 26 32  1  0  0  0  0
 27 28  2  0  0  0  0
 27 30  1  0  0  0  0
 28 29  1  0  0  0  0
 30 31  2  0  0  0  0
 31 32  1  0  0  0  0
 33 34  2  0  0  0  0
 33 38  1  0  0  0  0
 34 35  1  0  0  0  0
 35 36  2  0  0  0  0
 36 37  1  0  0  0  0
 36 42  1  0  0  0  0
 37 38  2  0  0  0  0
 37 40  1  0  0  0  0
 38 39  1  0  0  0  0
 40 41  2  0  0  0  0
 41 42  1  0  0  0  0
M  CHG  2   3  -1   4  -1
M  END
>  <CHROM.1>
73.73451757,-104.29881821,6.31495067,-33.26860980,-15.55682568,-0.42269851
0.75252373,2.76081876

>  <Name>
ligand

>  <RI>
0

>  <Rbt.Current_Directory>
/home/itssahil/PROJECTS/Mol_Feturizer/New_Systems/rnas/4QLN

>  <Rbt.Executable>
rbdock ($Id: //depot/dev/client3/rdock/2013.1/src/exe/rbdock.cxx#4 $)

>  <Rbt.Library>
libRbt.so (2013.1, Build901 2013/11/27)

>  <Rbt.Parameter_File>
/export/apps/rDock/src/rDock_2013.1_src/data/scripts/dock_solv.prm

>  <Rbt.Receptor>
prm/pocket_docking_3.prm

>  <SCORE>
-32.4821

>  <SCORE.INTER>
-33.0631

>  <SCORE.INTER.CONST>
1

>  <SCORE.INTER.POLAR>
0

>  <SCORE.INTER.ROT>
2

>  <SCORE.INTER.SOLV>
30.8644

>  <SCORE.INTER.VDW>
-37.2635

>  <SCORE.INTER.norm>
-0.787217

>  <SCORE.INTRA>
0.581013

>  <SCORE.INTRA.DIHEDRAL>
-0.000229226

>  <SCORE.INTRA.DIHEDRAL.0>
2.39985

>  <SCORE.INTRA.POLAR>
0

>  <SCORE.INTRA.POLAR.0>
0

>  <SCORE.INTRA.REPUL>
0

>  <SCORE.INTRA.REPUL.0>
0

>  <SCORE.INTRA.SOLV>
-0.0145772

>  <SCORE.INTRA.SOLV.lig_0>
-110.958

>  <SCORE.INTRA.VDW>
0.588417

>  <SCORE.INTRA.VDW.0>
-2.34644

>  <SCORE.INTRA.norm>
0.0138337

>  <SCORE.RESTR>
0

>  <SCORE.RESTR.CAVITY>
0

>  <SCORE.RESTR.norm>
0

>  <SCORE.SYSTEM>
0

>  <SCORE.SYSTEM.CONST>
0

>  <SCORE.SYSTEM.DIHEDRAL>
0

>  <SCORE.SYSTEM.SOLV>
0

>  <SCORE.SYSTEM.norm>
0

>  <SCORE.heavy>
42

>  <SCORE.norm>
-0.773384

>  <RMSD>
2.220

$$$$
ligand
 OpenBabel11021811513D
libRbt.so/2013.1/901 2013/11/27
 42 48  0  0  0  0  0  0  0  0999 V2000
    8.9735  -34.8966  -16.2042 P   0  0  2  0  0  0  0  0  0  0  0  0
    5.2406  -34.0035  -12.9206 P   0  0  1  0  0  0  0  0  0  0  0  0
   10.2481  -35.5323  -15.6999 O   0  5  0  0  0  0  0  0  0  0  0  0
    4.7995  -33.1812  -14.1079 O   0  5  0  0  0  0  0  0  0  0  0  0
    8.9484  -34.2333  -17.5604 O   0  0  0  0  0  0  0  0  0  0  0  0
    4.2802  -34.2637  -11.7850 O   0  0  0  0  0  0  0  0  0  0  0  0
    9.4245  -33.0924  -14.3337 C   0  0  0  0  0  0  0  0  0  0  0  0
    4.9173  -36.2893  -14.1950 C   0  0  0  0  0  0  0  0  0  0  0  0
    8.4781  -33.8253  -15.1097 O   0  0  0  0  0  0  0  0  0  0  0  0
    5.7784  -35.4216  -13.4613 O   0  0  0  0  0  0  0  0  0  0  0  0
    8.8225  -32.7690  -12.9715 C   0  0  1  0  0  0  0  0  0  0  0  0
    5.6146  -36.7397  -15.4724 C   0  0  1  0  0  0  0  0  0  0  0  0
    9.4909  -31.6385  -12.4052 O   0  0  0  0  0  0  0  0  0  0  0  0
    4.6397  -37.1343  -16.4408 O   0  0  0  0  0  0  0  0  0  0  0  0
    7.3469  -32.4263  -13.0889 C   0  0  1  0  0  0  0  0  0  0  0  0
    6.4405  -35.6151  -16.0764 C   0  0  1  0  0  0  0  0  0  0  0  0
    6.5713  -33.3324  -12.3102 O   0  0  0  0  0  0  0  0  0  0  0  0
    7.8076  -36.0056  -16.1634 O   0  0  0  0  0  0  0  0  0  0  0  0
    7.1900  -31.0150  -12.5539 C   0  0  0  0  0  0  0  0  0  0  0  0
    5.8808  -35.3687  -17.4641 C   0  0  0  0  0  0  0  0  0  0  0  0
    8.5831  -30.5663  -12.1380 C   0  0  2  0  0  0  0  0  0  0  0  0
    4.7386  -36.3595  -17.6383 C   0  0  2  0  0  0  0  0  0  0  0  0
    8.8020  -28.3283  -16.8837 N   0  0  0  0  0  0  0  0  0  0  0  0
    8.3363  -29.5358  -16.5144 C   0  0  0  0  0  0  0  0  0  0  0  0
    8.3437  -29.9837  -15.2454 N   0  0  0  0  0  0  0  0  0  0  0  0
    8.8347  -29.2188  -14.2410 C   0  0  0  0  0  0  0  0  0  0  0  0
    9.3624  -27.8841  -14.5647 C   0  0  0  0  0  0  0  0  0  0  0  0
    9.3206  -27.4619  -15.9849 C   0  0  0  0  0  0  0  0  0  0  0  0
    9.7855  -26.2486  -16.3689 N   0  0  0  0  0  0  0  0  0  0  0  0
    9.7804  -27.3447  -13.4042 N   0  0  0  0  0  0  0  0  0  0  0  0
    9.5421  -28.2528  -12.4235 C   0  0  0  0  0  0  0  0  0  0  0  0
    8.9782  -29.3699  -12.9220 N   0  0  0  0  0  0  0  0  0  0  0  0
    0.2778  -36.0867  -20.3950 N   0  0  0  0  0  0  0  0  0  0  0  0
    1.2897  -36.9711  -20.4674 C   0  0  0  0  0  0  0  0  0  0  0  0
    2.3855  -36.9186  -19.6889 N   0  0  0  0  0  0  0  0  0  0  0  0
    2.5321  -35.9416  -18.7616 C   0  0  0  0  0  0  0  0  0  0  0  0
    1.4674  -34.9362  -18.6216 C   0  0  0  0  0  0  0  0  0  0  0  0
    0.2920  -35.0621  -19.5153 C   0  0  0  0  0  0  0  0  0  0  0  0
   -0.7339  -34.1781  -19.4515 N   0  0  0  0  0  0  0  0  0  0  0  0
    1.8590  -34.0960  -17.6451 N   0  0  0  0  0  0  0  0  0  0  0  0
    3.0678  -34.5252  -17.1997 C   0  0  0  0  0  0  0  0  0  0  0  0
    3.4689  -35.6243  -17.8647 N   0  0  0  0  0  0  0  0  0  0  0  0
  1  3  1  1  0  0  0
  1  5  2  0  0  0  0
  1  9  1  0  0  0  0
  1 18  1  0  0  0  0
  2  4  1  6  0  0  0
  2  6  2  0  0  0  0
  2 10  1  0  0  0  0
  2 17  1  0  0  0  0
  7  9  1  0  0  0  0
  8 10  1  0  0  0  0
 11  7  1  6  0  0  0
 11 13  1  0  0  0  0
 11 15  1  0  0  0  0
 12  8  1  1  0  0  0
 12 14  1  0  0  0  0
 12 16  1  0  0  0  0
 13 21  1  0  0  0  0
 14 22  1  0  0  0  0
 15 17  1  1  0  0  0
 15 19  1  0  0  0  0
 16 18  1  6  0  0  0
 16 20  1  0  0  0  0
 19 21  1  0  0  0  0
 20 22  1  0  0  0  0
 21 32  1  6  0  0  0
 22 42  1  1  0  0  0
 23 24  2  0  0  0  0
 23 28  1  0  0  0  0
 24 25  1  0  0  0  0
 25 26  2  0  0  0  0
 26 27  1  0  0  0  0
 26 32  1  0  0  0  0
 27 28  2  0  0  0  0
 27 30  1  0  0  0  0
 28 29  1  0  0  0  0
 30 31  2  0  0  0  0
 31 32  1  0  0  0  0
 33 34  2  0  0  0  0
 33 38  1  0  0  0  0
 34 35  1  0  0  0  0
 35 36  2  0  0  0  0
 36 37  1  0  0  0  0
 36 42  1  0  0  0  0
 37 38  2  0  0  0  0
 37 40  1  0  0  0  0
 38 39  1  0  0  0  0
 40 41  2  0  0  0  0
 41 42  1  0  0  0  0
M  CHG  2   3  -1   4  -1
M  END
>  <CHROM.1>
72.61762454,-104.27184358,6.31639661,-33.27878284,-15.54710155,-0.42760422
0.75132905,2.76739872

>  <Name>
ligand

>  <RI>
0

>  <Rbt.Current_Directory>
/home/itssahil/PROJECTS/Mol_Feturizer/New_Systems/rnas/4QLN

>  <Rbt.Executable>
rbdock ($Id: //depot/dev/client3/rdock/2013.1/src/exe/rbdock.cxx#4 $)

>  <Rbt.Library>
libRbt.so (2013.1, Build901 2013/11/27)

>  <Rbt.Parameter_File>
/export/apps/rDock/src/rDock_2013.1_src/data/scripts/dock_solv.prm

>  <Rbt.Receptor>
prm/pocket_docking_4.prm

>  <SCORE>
-32.4528

>  <SCORE.INTER>
-32.9954

>  <SCORE.INTER.CONST>
1

>  <SCORE.INTER.POLAR>
0

>  <SCORE.INTER.ROT>
2

>  <SCORE.INTER.SOLV>
30.7745

>  <SCORE.INTER.VDW>
-37.1884

>  <SCORE.INTER.norm>
-0.785605

>  <SCORE.INTRA>
0.542649

>  <SCORE.INTRA.DIHEDRAL>
-0.00024175

>  <SCORE.INTRA.DIHEDRAL.0>
2.39985

>  <SCORE.INTRA.POLAR>
0

>  <SCORE.INTRA.POLAR.0>
0

>  <SCORE.INTRA.REPUL>
0

>  <SCORE.INTRA.REPUL.0>
0

>  <SCORE.INTRA.SOLV>
-0.0137396

>  <SCORE.INTRA.SOLV.lig_0>
-110.958

>  <SCORE.INTRA.VDW>
0.54964

>  <SCORE.INTRA.VDW.0>
-2.34644

>  <SCORE.INTRA.norm>
0.0129202

>  <SCORE.RESTR>
0

>  <SCORE.RESTR.CAVITY>
0

>  <SCORE.RESTR.norm>
0

>  <SCORE.SYSTEM>
0

>  <SCORE.SYSTEM.CONST>
0

>  <SCORE.SYSTEM.DIHEDRAL>
0

>  <SCORE.SYSTEM.SOLV>
0

>  <SCORE.SYSTEM.norm>
0

>  <SCORE.heavy>
42

>  <SCORE.norm>
-0.772685

>  <RMSD>
2.220

$$$$
ligand
 OpenBabel11021811513D
libRbt.so/2013.1/901 2013/11/27
 42 48  0  0  0  0  0  0  0  0999 V2000
    8.9842  -34.9292  -16.1745 P   0  0  2  0  0  0  0  0  0  0  0  0
    5.2378  -34.0091  -12.9139 P   0  0  1  0  0  0  0  0  0  0  0  0
   10.2559  -35.5625  -15.6601 O   0  5  0  0  0  0  0  0  0  0  0  0
    4.8027  -33.1949  -14.1090 O   0  5  0  0  0  0  0  0  0  0  0  0
    8.9657  -34.2756  -17.5356 O   0  0  0  0  0  0  0  0  0  0  0  0
    4.2721  -34.2603  -11.7808 O   0  0  0  0  0  0  0  0  0  0  0  0
    9.4288  -33.1121  -14.3151 C   0  0  0  0  0  0  0  0  0  0  0  0
    4.9179  -36.3036  -14.1733 C   0  0  0  0  0  0  0  0  0  0  0  0
    8.4850  -33.8496  -15.0900 O   0  0  0  0  0  0  0  0  0  0  0  0
    5.7765  -35.4315  -13.4421 O   0  0  0  0  0  0  0  0  0  0  0  0
    8.8210  -32.7783  -12.9579 C   0  0  1  0  0  0  0  0  0  0  0  0
    5.6203  -36.7639  -15.4444 C   0  0  1  0  0  0  0  0  0  0  0  0
    9.4881  -31.6445  -12.3967 O   0  0  0  0  0  0  0  0  0  0  0  0
    4.6493  -37.1645  -16.4142 O   0  0  0  0  0  0  0  0  0  0  0  0
    7.3464  -32.4351  -13.0842 C   0  0  1  0  0  0  0  0  0  0  0  0
    6.4500  -35.6444  -16.0528 C   0  0  1  0  0  0  0  0  0  0  0  0
    6.5665  -33.3349  -12.3025 O   0  0  0  0  0  0  0  0  0  0  0  0
    7.8171  -36.0368  -16.1309 O   0  0  0  0  0  0  0  0  0  0  0  0
    7.1885  -31.0199  -12.5601 C   0  0  0  0  0  0  0  0  0  0  0  0
    5.8967  -35.4075  -17.4447 C   0  0  0  0  0  0  0  0  0  0  0  0
    8.5801  -30.5695  -12.1413 C   0  0  2  0  0  0  0  0  0  0  0  0
    4.7543  -36.3984  -17.6168 C   0  0  2  0  0  0  0  0  0  0  0  0
    8.8658  -28.3846  -16.9082 N   0  0  0  0  0  0  0  0  0  0  0  0
    8.4030  -29.5914  -16.5331 C   0  0  0  0  0  0  0  0  0  0  0  0
    8.3913  -30.0246  -15.2590 N   0  0  0  0  0  0  0  0  0  0  0  0
    8.8586  -29.2444  -14.2551 C   0  0  0  0  0  0  0  0  0  0  0  0
    9.3816  -27.9093  -14.5849 C   0  0  0  0  0  0  0  0  0  0  0  0
    9.3618  -27.5039  -16.0105 C   0  0  0  0  0  0  0  0  0  0  0  0
    9.8240  -26.2915  -16.4004 N   0  0  0  0  0  0  0  0  0  0  0  0
    9.7748  -27.3534  -13.4236 N   0  0  0  0  0  0  0  0  0  0  0  0
    9.5263  -28.2520  -12.4367 C   0  0  0  0  0  0  0  0  0  0  0  0
    8.9799  -29.3791  -12.9321 N   0  0  0  0  0  0  0  0  0  0  0  0
    0.3341  -36.1059  -20.4361 N   0  0  0  0  0  0  0  0  0  0  0  0
    1.3491  -36.9872  -20.5031 C   0  0  0  0  0  0  0  0  0  0  0  0
    2.4331  -36.9406  -19.7079 N   0  0  0  0  0  0  0  0  0  0  0  0
    2.5637  -35.9733  -18.7681 C   0  0  0  0  0  0  0  0  0  0  0  0
    1.4945  -34.9719  -18.6330 C   0  0  0  0  0  0  0  0  0  0  0  0
    0.3328  -35.0908  -19.5454 C   0  0  0  0  0  0  0  0  0  0  0  0
   -0.6961  -34.2098  -19.4873 N   0  0  0  0  0  0  0  0  0  0  0  0
    1.8696  -34.1414  -17.6418 N   0  0  0  0  0  0  0  0  0  0  0  0
    3.0728  -34.5727  -17.1832 C   0  0  0  0  0  0  0  0  0  0  0  0
    3.4863  -35.6636  -17.8540 N   0  0  0  0  0  0  0  0  0  0  0  0
  1  3  1  1  0  0  0
  1  5  2  0  0  0  0
  1  9  1  0  0  0  0
  1 18  1  0  0  0  0
  2  4  1  6  0  0  0
  2  6  2  0  0  0  0
  2 10  1  0  0  0  0
  2 17  1  0  0  0  0
  7  9  1  0  0  0  0
  8 10  1  0  0  0  0
 11  7  1  6  0  0  0
 11 13  1  0  0  0  0
 11 15  1  0  0  0  0
 12  8  1  1  0  0  0
 12 14  1  0  0  0  0
 12 16  1  0  0  0  0
 13 21  1  0  0  0  0
 14 22  1  0  0  0  0
 15 17  1  1  0  0  0
 15 19  1  0  0  0  0
 16 18  1  6  0  0  0
 16 20  1  0  0  0  0
 19 21  1  0  0  0  0
 20 22  1  0  0  0  0
 21 32  1  6  0  0  0
 22 42  1  1  0  0  0
 23 24  2  0  0  0  0
 23 28  1  0  0  0  0
 24 25  1  0  0  0  0
 25 26  2  0  0  0  0
 26 27  1  0  0  0  0
 26 32  1  0  0  0  0
 27 28  2  0  0  0  0
 27 30  1  0  0  0  0
 28 29  1  0  0  0  0
 30 31  2  0  0  0  0
 31 32  1  0  0  0  0
 33 34  2  0  0  0  0
 33 38  1  0  0  0  0
 34 35  1  0  0  0  0
 35 36  2  0  0  0  0
 36 37  1  0  0  0  0
 36 42  1  0  0  0  0
 37 38  2  0  0  0  0
 37 40  1  0  0  0  0
 38 39  1  0  0  0  0
 40 41  2  0  0  0  0
 41 42  1  0  0  0  0
M  CHG  2   3  -1   4  -1
M  END
>  <CHROM.1>
71.67295977,-105.47447381,6.33174216,-33.30289884,-15.54468187,-0.41315877
0.75994988,2.74487819

>  <Name>
ligand

>  <RI>
0

>  <Rbt.Current_Directory>
/home/itssahil/PROJECTS/Mol_Feturizer/New_Systems/rnas/4QLN

>  <Rbt.Executable>
rbdock ($Id: //depot/dev/client3/rdock/2013.1/src/exe/rbdock.cxx#4 $)

>  <Rbt.Library>
libRbt.so (2013.1, Build901 2013/11/27)

>  <Rbt.Parameter_File>
/export/apps/rDock/src/rDock_2013.1_src/data/scripts/dock_solv.prm

>  <Rbt.Receptor>
prm/pocket_docking_5.prm

>  <SCORE>
-32.3354

>  <SCORE.INTER>
-32.7742

>  <SCORE.INTER.CONST>
1

>  <SCORE.INTER.POLAR>
0

>  <SCORE.INTER.ROT>
2

>  <SCORE.INTER.SOLV>
30.7056

>  <SCORE.INTER.VDW>
-37.018

>  <SCORE.INTER.norm>
-0.780339

>  <SCORE.INTRA>
0.438864

>  <SCORE.INTRA.DIHEDRAL>
-0.000218864

>  <SCORE.INTRA.DIHEDRAL.0>
2.39985

>  <SCORE.INTRA.POLAR>
0

>  <SCORE.INTRA.POLAR.0>
0

>  <SCORE.INTRA.REPUL>
0

>  <SCORE.INTRA.REPUL.0>
0

>  <SCORE.INTRA.SOLV>
-0.0119072

>  <SCORE.INTRA.SOLV.lig_0>
-110.958

>  <SCORE.INTRA.VDW>
0.444927

>  <SCORE.INTRA.VDW.0>
-2.34644

>  <SCORE.INTRA.norm>
0.0104491

>  <SCORE.RESTR>
0

>  <SCORE.RESTR.CAVITY>
0

>  <SCORE.RESTR.norm>
0

>  <SCORE.SYSTEM>
0

>  <SCORE.SYSTEM.CONST>
0

>  <SCORE.SYSTEM.DIHEDRAL>
0

>  <SCORE.SYSTEM.SOLV>
0

>  <SCORE.SYSTEM.norm>
0

>  <SCORE.heavy>
42

>  <SCORE.norm>
-0.769889

>  <RMSD>
2.220

$$$$
ligand
 OpenBabel11021811513D
libRbt.so/2013.1/901 2013/11/27
 42 48  0  0  0  0  0  0  0  0999 V2000
    9.1317  -35.1902  -15.9780 P   0  0  2  0  0  0  0  0  0  0  0  0
    5.1639  -34.1744  -13.0218 P   0  0  1  0  0  0  0  0  0  0  0  0
   10.3622  -35.8079  -15.3556 O   0  5  0  0  0  0  0  0  0  0  0  0
    4.8170  -33.3959  -14.2683 O   0  5  0  0  0  0  0  0  0  0  0  0
    9.2117  -34.5771  -17.3556 O   0  0  0  0  0  0  0  0  0  0  0  0
    4.1194  -34.3921  -11.9536 O   0  0  0  0  0  0  0  0  0  0  0  0
    9.4461  -33.3189  -14.1459 C   0  0  0  0  0  0  0  0  0  0  0  0
    4.9301  -36.5052  -14.2326 C   0  0  0  0  0  0  0  0  0  0  0  0
    8.5586  -34.0790  -14.9642 O   0  0  0  0  0  0  0  0  0  0  0  0
    5.7362  -35.6118  -13.4680 O   0  0  0  0  0  0  0  0  0  0  0  0
    8.7437  -32.9453  -12.8460 C   0  0  1  0  0  0  0  0  0  0  0  0
    5.7205  -37.0028  -15.4362 C   0  0  1  0  0  0  0  0  0  0  0  0
    9.3713  -31.7953  -12.2723 O   0  0  0  0  0  0  0  0  0  0  0  0
    4.8204  -37.4319  -16.4606 O   0  0  0  0  0  0  0  0  0  0  0  0
    7.2825  -32.6060  -13.0873 C   0  0  1  0  0  0  0  0  0  0  0  0
    6.5938  -35.9017  -16.0165 C   0  0  1  0  0  0  0  0  0  0  0  0
    6.4470  -33.4824  -12.3372 O   0  0  0  0  0  0  0  0  0  0  0  0
    7.9622  -36.2961  -15.9852 O   0  0  0  0  0  0  0  0  0  0  0  0
    7.0905  -31.1759  -12.6178 C   0  0  0  0  0  0  0  0  0  0  0  0
    6.1417  -35.7060  -17.4507 C   0  0  0  0  0  0  0  0  0  0  0  0
    8.4496  -30.7132  -12.1141 C   0  0  2  0  0  0  0  0  0  0  0  0
    5.0125  -36.7017  -17.6747 C   0  0  2  0  0  0  0  0  0  0  0  0
    8.6193  -28.4473  -16.8486 N   0  0  0  0  0  0  0  0  0  0  0  0
    8.0692  -29.6139  -16.4641 C   0  0  0  0  0  0  0  0  0  0  0  0
    8.1026  -30.0756  -15.2005 N   0  0  0  0  0  0  0  0  0  0  0  0
    8.7098  -29.3683  -14.2177 C   0  0  0  0  0  0  0  0  0  0  0  0
    9.3351  -28.0809  -14.5589 C   0  0  0  0  0  0  0  0  0  0  0  0
    9.2574  -27.6400  -15.9719 C   0  0  0  0  0  0  0  0  0  0  0  0
    9.8065  -26.4675  -16.3709 N   0  0  0  0  0  0  0  0  0  0  0  0
    9.8579  -27.5937  -13.4180 N   0  0  0  0  0  0  0  0  0  0  0  0
    9.5918  -28.4890  -12.4327 C   0  0  0  0  0  0  0  0  0  0  0  0
    8.9073  -29.5467  -12.9091 N   0  0  0  0  0  0  0  0  0  0  0  0
    0.5214  -36.7802  -20.3943 N   0  0  0  0  0  0  0  0  0  0  0  0
    1.5001  -37.7001  -20.3089 C   0  0  0  0  0  0  0  0  0  0  0  0
    2.6092  -37.5446  -19.5637 N   0  0  0  0  0  0  0  0  0  0  0  0
    2.8048  -36.4179  -18.8369 C   0  0  0  0  0  0  0  0  0  0  0  0
    1.7786  -35.3647  -18.8780 C   0  0  0  0  0  0  0  0  0  0  0  0
    0.5856  -35.6108  -19.7220 C   0  0  0  0  0  0  0  0  0  0  0  0
   -0.4073  -34.6923  -19.8156 N   0  0  0  0  0  0  0  0  0  0  0  0
    2.2149  -34.3723  -18.0794 N   0  0  0  0  0  0  0  0  0  0  0  0
    3.4147  -34.7561  -17.5723 C   0  0  0  0  0  0  0  0  0  0  0  0
    3.7662  -35.9743  -18.0234 N   0  0  0  0  0  0  0  0  0  0  0  0
  1  3  1  1  0  0  0
  1  5  2  0  0  0  0
  1  9  1  0  0  0  0
  1 18  1  0  0  0  0
  2  4  1  6  0  0  0
  2  6  2  0  0  0  0
  2 10  1  0  0  0  0
  2 17  1  0  0  0  0
  7  9  1  0  0  0  0
  8 10  1  0  0  0  0
 11  7  1  6  0  0  0
 11 13  1  0  0  0  0
 11 15  1  0  0  0  0
 12  8  1  1  0  0  0
 12 14  1  0  0  0  0
 12 16  1  0  0  0  0
 13 21  1  0  0  0  0
 14 22  1  0  0  0  0
 15 17  1  1  0  0  0
 15 19  1  0  0  0  0
 16 18  1  6  0  0  0
 16 20  1  0  0  0  0
 19 21  1  0  0  0  0
 20 22  1  0  0  0  0
 21 32  1  6  0  0  0
 22 42  1  1  0  0  0
 23 24  2  0  0  0  0
 23 28  1  0  0  0  0
 24 25  1  0  0  0  0
 25 26  2  0  0  0  0
 26 27  1  0  0  0  0
 26 32  1  0  0  0  0
 27 28  2  0  0  0  0
 27 30  1  0  0  0  0
 28 29  1  0  0  0  0
 30 31  2  0  0  0  0
 31 32  1  0  0  0  0
 33 34  2  0  0  0  0
 33 38  1  0  0  0  0
 34 35  1  0  0  0  0
 35 36  2  0  0  0  0
 36 37  1  0  0  0  0
 36 42  1  0  0  0  0
 37 38  2  0  0  0  0
 37 40  1  0  0  0  0
 38 39  1  0  0  0  0
 40 41  2  0  0  0  0
 41 42  1  0  0  0  0
M  CHG  2   3  -1   4  -1
M  END
>  <CHROM.1>
81.81552920,-94.04386496,6.38322474,-33.55146178,-15.54810111,-0.48840209
0.77338526,2.82094687

>  <Name>
ligand

>  <RI>
0

>  <Rbt.Current_Directory>
/home/itssahil/PROJECTS/Mol_Feturizer/New_Systems/rnas/4QLN

>  <Rbt.Executable>
rbdock ($Id: //depot/dev/client3/rdock/2013.1/src/exe/rbdock.cxx#4 $)

>  <Rbt.Library>
libRbt.so (2013.1, Build901 2013/11/27)

>  <Rbt.Parameter_File>
/export/apps/rDock/src/rDock_2013.1_src/data/scripts/dock_solv.prm

>  <Rbt.Receptor>
prm/pocket_docking_5.prm

>  <SCORE>
-30.7368

>  <SCORE.INTER>
-31.9082

>  <SCORE.INTER.CONST>
1

>  <SCORE.INTER.POLAR>
0

>  <SCORE.INTER.ROT>
2

>  <SCORE.INTER.SOLV>
30.4664

>  <SCORE.INTER.VDW>
-36.3609

>  <SCORE.INTER.norm>
-0.759718

>  <SCORE.INTRA>
1.17136

>  <SCORE.INTRA.DIHEDRAL>
-0.000348228

>  <SCORE.INTRA.DIHEDRAL.0>
2.39985

>  <SCORE.INTRA.POLAR>
0

>  <SCORE.INTRA.POLAR.0>
0

>  <SCORE.INTRA.REPUL>
0

>  <SCORE.INTRA.REPUL.0>
0

>  <SCORE.INTRA.SOLV>
-0.0334706

>  <SCORE.INTRA.SOLV.lig_0>
-110.958

>  <SCORE.INTRA.VDW>
1.18827

>  <SCORE.INTRA.VDW.0>
-2.34644

>  <SCORE.INTRA.norm>
0.0278896

>  <SCORE.RESTR>
0

>  <SCORE.RESTR.CAVITY>
0

>  <SCORE.RESTR.norm>
0

>  <SCORE.SYSTEM>
0

>  <SCORE.SYSTEM.CONST>
0

>  <SCORE.SYSTEM.DIHEDRAL>
0

>  <SCORE.SYSTEM.SOLV>
0

>  <SCORE.SYSTEM.norm>
0

>  <SCORE.heavy>
42

>  <SCORE.norm>
-0.731829

>  <RMSD>
2.221

$$$$
ligand
 OpenBabel11021811513D
libRbt.so/2013.1/901 2013/11/27
 42 48  0  0  0  0  0  0  0  0999 V2000
    2.9964  -36.1152  -13.1197 P   0  0  2  0  0  0  0  0  0  0  0  0
    6.9428  -36.2594  -16.2693 P   0  0  1  0  0  0  0  0  0  0  0  0
    2.4385  -37.4173  -12.5940 O   0  5  0  0  0  0  0  0  0  0  0  0
    6.4733  -34.8344  -16.4409 O   0  5  0  0  0  0  0  0  0  0  0  0
    2.1913  -34.8444  -12.9907 O   0  0  0  0  0  0  0  0  0  0  0  0
    8.2848  -36.6822  -16.8168 O   0  0  0  0  0  0  0  0  0  0  0  0
    2.5988  -37.1892  -15.4957 C   0  0  0  0  0  0  0  0  0  0  0  0
    7.6815  -35.8720  -13.7678 C   0  0  0  0  0  0  0  0  0  0  0  0
    3.3721  -36.3186  -14.6716 O   0  0  0  0  0  0  0  0  0  0  0  0
    6.9025  -36.6180  -14.7001 O   0  0  0  0  0  0  0  0  0  0  0  0
    3.4895  -37.7880  -16.5777 C   0  0  1  0  0  0  0  0  0  0  0  0
    6.8021  -35.4329  -12.6038 C   0  0  1  0  0  0  0  0  0  0  0  0
    2.6868  -38.2120  -17.6829 O   0  0  0  0  0  0  0  0  0  0  0  0
    7.3762  -34.2867  -11.9710 O   0  0  0  0  0  0  0  0  0  0  0  0
    4.4905  -36.7682  -17.0940 C   0  0  1  0  0  0  0  0  0  0  0  0
    5.4085  -35.0526  -13.0778 C   0  0  1  0  0  0  0  0  0  0  0  0
    5.8189  -37.2367  -16.8822 O   0  0  0  0  0  0  0  0  0  0  0  0
    4.4346  -35.8725  -12.4387 O   0  0  0  0  0  0  0  0  0  0  0  0
    4.2228  -36.6180  -18.5800 C   0  0  0  0  0  0  0  0  0  0  0  0
    5.2033  -33.6016  -12.6877 C   0  0  0  0  0  0  0  0  0  0  0  0
    3.0668  -37.5556  -18.8954 C   0  0  2  0  0  0  0  0  0  0  0  0
    6.4858  -33.1684  -11.9919 C   0  0  2  0  0  0  0  0  0  0  0  0
    0.2541  -33.1355  -18.5353 N   0  0  0  0  0  0  0  0  0  0  0  0
    1.3262  -33.5416  -17.8304 C   0  0  0  0  0  0  0  0  0  0  0  0
    1.9536  -34.7148  -18.0333 N   0  0  0  0  0  0  0  0  0  0  0  0
    1.5265  -35.5756  -18.9880 C   0  0  0  0  0  0  0  0  0  0  0  0
    0.3590  -35.2028  -19.8021 C   0  0  0  0  0  0  0  0  0  0  0  0
   -0.2785  -33.8950  -19.5186 C   0  0  0  0  0  0  0  0  0  0  0  0
   -1.3576  -33.4748  -20.2219 N   0  0  0  0  0  0  0  0  0  0  0  0
    0.1498  -36.2181  -20.6609 N   0  0  0  0  0  0  0  0  0  0  0  0
    1.0986  -37.1586  -20.4191 C   0  0  0  0  0  0  0  0  0  0  0  0
    1.9195  -36.7757  -19.4222 N   0  0  0  0  0  0  0  0  0  0  0  0
   10.9589  -30.8666  -13.4970 N   0  0  0  0  0  0  0  0  0  0  0  0
   10.7587  -31.9710  -12.7542 C   0  0  0  0  0  0  0  0  0  0  0  0
    9.5415  -32.4518  -12.4428 N   0  0  0  0  0  0  0  0  0  0  0  0
    8.4180  -31.8296  -12.8746 C   0  0  0  0  0  0  0  0  0  0  0  0
    8.5543  -30.6148  -13.6930 C   0  0  0  0  0  0  0  0  0  0  0  0
    9.9286  -30.1484  -13.9933 C   0  0  0  0  0  0  0  0  0  0  0  0
   10.1433  -29.0380  -14.7410 N   0  0  0  0  0  0  0  0  0  0  0  0
    7.3049  -30.2055  -13.9834 N   0  0  0  0  0  0  0  0  0  0  0  0
    6.4447  -31.0807  -13.4020 C   0  0  0  0  0  0  0  0  0  0  0  0
    7.1075  -32.0478  -12.7415 N   0  0  0  0  0  0  0  0  0  0  0  0
  1  3  1  1  0  0  0
  1  5  2  0  0  0  0
  1  9  1  0  0  0  0
  1 18  1  0  0  0  0
  2  4  1  6  0  0  0
  2  6  2  0  0  0  0
  2 10  1  0  0  0  0
  2 17  1  0  0  0  0
  7  9  1  0  0  0  0
  8 10  1  0  0  0  0
 11  7  1  1  0  0  0
 11 13  1  0  0  0  0
 11 15  1  0  0  0  0
 12  8  1  6  0  0  0
 12 14  1  0  0  0  0
 12 16  1  0  0  0  0
 13 21  1  0  0  0  0
 14 22  1  0  0  0  0
 15 17  1  6  0  0  0
 15 19  1  0  0  0  0
 16 18  1  1  0  0  0
 16 20  1  0  0  0  0
 19 21  1  0  0  0  0
 20 22  1  0  0  0  0
 21 32  1  1  0  0  0
 22 42  1  6  0  0  0
 23 24  2  0  0  0  0
 23 28  1  0  0  0  0
 24 25  1  0  0  0  0
 25 26  2  0  0  0  0
 26 27  1  0  0  0  0
 26 32  1  0  0  0  0
 27 28  2  0  0  0  0
 27 30  1  0  0  0  0
 28 29  1  0  0  0  0
 30 31  2  0  0  0  0
 31 32  1  0  0  0  0
 33 34  2  0  0  0  0
 33 38  1  0  0  0  0
 34 35  1  0  0  0  0
 35 36  2  0  0  0  0
 36 37  1  0  0  0  0
 36 42  1  0  0  0  0
 37 38  2  0  0  0  0
 37 40  1  0  0  0  0
 38 39  1  0  0  0  0
 40 41  2  0  0  0  0
 41 42  1  0  0  0  0
M  CHG  2   3  -1   4  -1
M  END
>  <CHROM.1>
79.58496889,-27.24812953,4.90196859,-34.78690195,-15.49669605,3.14092654
-0.73875778,-0.60824000

>  <Name>
ligand

>  <RI>
0

>  <Rbt.Current_Directory>
/home/itssahil/PROJECTS/Mol_Feturizer/New_Systems/rnas/4QLN

>  <Rbt.Executable>
rbdock ($Id: //depot/dev/client3/rdock/2013.1/src/exe/rbdock.cxx#4 $)

>  <Rbt.Library>
libRbt.so (2013.1, Build901 2013/11/27)

>  <Rbt.Parameter_File>
/export/apps/rDock/src/rDock_2013.1_src/data/scripts/dock_solv.prm

>  <Rbt.Receptor>
prm/pocket_docking_6.prm

>  <SCORE>
-22.7227

>  <SCORE.INTER>
-23.8214

>  <SCORE.INTER.CONST>
1

>  <SCORE.INTER.POLAR>
0

>  <SCORE.INTER.ROT>
2

>  <SCORE.INTER.SOLV>
27.5214

>  <SCORE.INTER.VDW>
-29.9881

>  <SCORE.INTER.norm>
-0.567176

>  <SCORE.INTRA>
1.0987

>  <SCORE.INTRA.DIHEDRAL>
0.00111783

>  <SCORE.INTRA.DIHEDRAL.0>
2.39985

>  <SCORE.INTRA.POLAR>
0

>  <SCORE.INTRA.POLAR.0>
0

>  <SCORE.INTRA.REPUL>
0

>  <SCORE.INTRA.REPUL.0>
0

>  <SCORE.INTRA.SOLV>
-0.052918

>  <SCORE.INTRA.SOLV.lig_0>
-110.958

>  <SCORE.INTRA.VDW>
1.1246

>  <SCORE.INTRA.VDW.0>
-2.34644

>  <SCORE.INTRA.norm>
0.0261596

>  <SCORE.RESTR>
0

>  <SCORE.RESTR.CAVITY>
0

>  <SCORE.RESTR.norm>
0

>  <SCORE.SYSTEM>
0

>  <SCORE.SYSTEM.CONST>
0

>  <SCORE.SYSTEM.DIHEDRAL>
0

>  <SCORE.SYSTEM.SOLV>
0

>  <SCORE.SYSTEM.norm>
0

>  <SCORE.heavy>
42

>  <SCORE.norm>
-0.541016

>  <RMSD>
2.221

$$$$
ligand
 OpenBabel11021811513D
libRbt.so/2013.1/901 2013/11/27
 42 48  0  0  0  0  0  0  0  0999 V2000
    3.0010  -36.0737  -13.0918 P   0  0  2  0  0  0  0  0  0  0  0  0
    7.0134  -36.2429  -16.1555 P   0  0  1  0  0  0  0  0  0  0  0  0
    2.4286  -37.3717  -12.5720 O   0  5  0  0  0  0  0  0  0  0  0  0
    6.5515  -34.8176  -16.3439 O   0  5  0  0  0  0  0  0  0  0  0  0
    2.1966  -34.8002  -12.9861 O   0  0  0  0  0  0  0  0  0  0  0  0
    8.3657  -36.6717  -16.6721 O   0  0  0  0  0  0  0  0  0  0  0  0
    2.6515  -37.1581  -15.4707 C   0  0  0  0  0  0  0  0  0  0  0  0
    7.6995  -35.8453  -13.6407 C   0  0  0  0  0  0  0  0  0  0  0  0
    3.4093  -36.2855  -14.6344 O   0  0  0  0  0  0  0  0  0  0  0  0
    6.9387  -36.5938  -14.5859 O   0  0  0  0  0  0  0  0  0  0  0  0
    3.5636  -37.7643  -16.5305 C   0  0  1  0  0  0  0  0  0  0  0  0
    6.7966  -35.3984  -12.4978 C   0  0  1  0  0  0  0  0  0  0  0  0
    2.7836  -38.1916  -17.6505 O   0  0  0  0  0  0  0  0  0  0  0  0
    7.3600  -34.2506  -11.8584 O   0  0  0  0  0  0  0  0  0  0  0  0
    4.5780  -36.7495  -17.0300 C   0  0  1  0  0  0  0  0  0  0  0  0
    5.4144  -35.0169  -13.0033 C   0  0  1  0  0  0  0  0  0  0  0  0
    5.9003  -37.2203  -16.7877 O   0  0  0  0  0  0  0  0  0  0  0  0
    4.4249  -35.8313  -12.3814 O   0  0  0  0  0  0  0  0  0  0  0  0
    4.3426  -36.6059  -18.5222 C   0  0  0  0  0  0  0  0  0  0  0  0
    5.2046  -33.5635  -12.6247 C   0  0  0  0  0  0  0  0  0  0  0  0
    3.1912  -37.5421  -18.8577 C   0  0  2  0  0  0  0  0  0  0  0  0
    6.4731  -33.1301  -11.9037 C   0  0  2  0  0  0  0  0  0  0  0  0
    0.3012  -33.1723  -18.4951 N   0  0  0  0  0  0  0  0  0  0  0  0
    1.3465  -33.5853  -17.7547 C   0  0  0  0  0  0  0  0  0  0  0  0
    1.9993  -34.7434  -17.9635 N   0  0  0  0  0  0  0  0  0  0  0  0
    1.6280  -35.5806  -18.9616 C   0  0  0  0  0  0  0  0  0  0  0  0
    0.4928  -35.1989  -19.8162 C   0  0  0  0  0  0  0  0  0  0  0  0
   -0.1756  -33.9088  -19.5235 C   0  0  0  0  0  0  0  0  0  0  0  0
   -1.2281  -33.4818  -20.2622 N   0  0  0  0  0  0  0  0  0  0  0  0
    0.3371  -36.1906  -20.7132 N   0  0  0  0  0  0  0  0  0  0  0  0
    1.2877  -37.1254  -20.4565 C   0  0  0  0  0  0  0  0  0  0  0  0
    2.0574  -36.7618  -19.4127 N   0  0  0  0  0  0  0  0  0  0  0  0
   10.9796  -30.9872  -13.5380 N   0  0  0  0  0  0  0  0  0  0  0  0
   10.7602  -32.1056  -12.8221 C   0  0  0  0  0  0  0  0  0  0  0  0
    9.5366  -32.5401  -12.4707 N   0  0  0  0  0  0  0  0  0  0  0  0
    8.4259  -31.8527  -12.8309 C   0  0  0  0  0  0  0  0  0  0  0  0
    8.5835  -30.6186  -13.6159 C   0  0  0  0  0  0  0  0  0  0  0  0
    9.9637  -30.2060  -13.9639 C   0  0  0  0  0  0  0  0  0  0  0  0
   10.1977  -29.0821  -14.6851 N   0  0  0  0  0  0  0  0  0  0  0  0
    7.3433  -30.1427  -13.8360 N   0  0  0  0  0  0  0  0  0  0  0  0
    6.4690  -30.9965  -13.2439 C   0  0  0  0  0  0  0  0  0  0  0  0
    7.1137  -32.0148  -12.6451 N   0  0  0  0  0  0  0  0  0  0  0  0
  1  3  1  1  0  0  0
  1  5  2  0  0  0  0
  1  9  1  0  0  0  0
  1 18  1  0  0  0  0
  2  4  1  6  0  0  0
  2  6  2  0  0  0  0
  2 10  1  0  0  0  0
  2 17  1  0  0  0  0
  7  9  1  0  0  0  0
  8 10  1  0  0  0  0
 11  7  1  1  0  0  0
 11 13  1  0  0  0  0
 11 15  1  0  0  0  0
 12  8  1  6  0  0  0
 12 14  1  0  0  0  0
 12 16  1  0  0  0  0
 13 21  1  0  0  0  0
 14 22  1  0  0  0  0
 15 17  1  6  0  0  0
 15 19  1  0  0  0  0
 16 18  1  1  0  0  0
 16 20  1  0  0  0  0
 19 21  1  0  0  0  0
 20 22  1  0  0  0  0
 21 32  1  1  0  0  0
 22 42  1  6  0  0  0
 23 24  2  0  0  0  0
 23 28  1  0  0  0  0
 24 25  1  0  0  0  0
 25 26  2  0  0  0  0
 26 27  1  0  0  0  0
 26 32  1  0  0  0  0
 27 28  2  0  0  0  0
 27 30  1  0  0  0  0
 28 29  1  0  0  0  0
 30 31  2  0  0  0  0
 31 32  1  0  0  0  0
 33 34  2  0  0  0  0
 33 38  1  0  0  0  0
 34 35  1  0  0  0  0
 35 36  2  0  0  0  0
 36 37  1  0  0  0  0
 36 42  1  0  0  0  0
 37 38  2  0  0  0  0
 37 40  1  0  0  0  0
 38 39  1  0  0  0  0
 40 41  2  0  0  0  0
 41 42  1  0  0  0  0
M  CHG  2   3  -1   4  -1
M  END
>  <CHROM.1>
77.00539710,-22.20264826,4.95339387,-34.77797504,-15.44451398,3.10326695
-0.74491378,-0.65391191

>  <Name>
ligand

>  <RI>
0

>  <Rbt.Current_Directory>
/home/itssahil/PROJECTS/Mol_Feturizer/New_Systems/rnas/4QLN

>  <Rbt.Executable>
rbdock ($Id: //depot/dev/client3/rdock/2013.1/src/exe/rbdock.cxx#4 $)

>  <Rbt.Library>
libRbt.so (2013.1, Build901 2013/11/27)

>  <Rbt.Parameter_File>
/export/apps/rDock/src/rDock_2013.1_src/data/scripts/dock_solv.prm

>  <Rbt.Receptor>
prm/pocket_docking_6.prm

>  <SCORE>
-22.3912

>  <SCORE.INTER>
-23.2588

>  <SCORE.INTER.CONST>
1

>  <SCORE.INTER.POLAR>
0

>  <SCORE.INTER.ROT>
2

>  <SCORE.INTER.SOLV>
27.3742

>  <SCORE.INTER.VDW>
-29.5639

>  <SCORE.INTER.norm>
-0.553781

>  <SCORE.INTRA>
0.867601

>  <SCORE.INTRA.DIHEDRAL>
0.00104358

>  <SCORE.INTRA.DIHEDRAL.0>
2.39985

>  <SCORE.INTRA.POLAR>
0

>  <SCORE.INTRA.POLAR.0>
0

>  <SCORE.INTRA.REPUL>
0

>  <SCORE.INTRA.REPUL.0>
0

>  <SCORE.INTRA.SOLV>
-0.0442684

>  <SCORE.INTRA.SOLV.lig_0>
-110.958

>  <SCORE.INTRA.VDW>
0.889213

>  <SCORE.INTRA.VDW.0>
-2.34644

>  <SCORE.INTRA.norm>
0.0206572

>  <SCORE.RESTR>
0

>  <SCORE.RESTR.CAVITY>
0

>  <SCORE.RESTR.norm>
0

>  <SCORE.SYSTEM>
0

>  <SCORE.SYSTEM.CONST>
0

>  <SCORE.SYSTEM.DIHEDRAL>
0

>  <SCORE.SYSTEM.SOLV>
0

>  <SCORE.SYSTEM.norm>
0

>  <SCORE.heavy>
42

>  <SCORE.norm>
-0.533124

>  <RMSD>
2.221

$$$$
ligand
 OpenBabel11021811513D
libRbt.so/2013.1/901 2013/11/27
 42 48  0  0  0  0  0  0  0  0999 V2000
    8.9899  -34.9065  -16.1837 P   0  0  2  0  0  0  0  0  0  0  0  0
    5.2349  -33.9692  -12.9378 P   0  0  1  0  0  0  0  0  0  0  0  0
   10.2572  -35.5443  -15.6640 O   0  5  0  0  0  0  0  0  0  0  0  0
    4.8075  -33.1543  -14.1351 O   0  5  0  0  0  0  0  0  0  0  0  0
    8.9790  -34.2539  -17.5453 O   0  0  0  0  0  0  0  0  0  0  0  0
    4.2642  -34.2157  -11.8080 O   0  0  0  0  0  0  0  0  0  0  0  0
    9.4346  -33.0896  -14.3241 C   0  0  0  0  0  0  0  0  0  0  0  0
    4.9109  -36.2636  -14.1965 C   0  0  0  0  0  0  0  0  0  0  0  0
    8.4909  -33.8241  -15.1019 O   0  0  0  0  0  0  0  0  0  0  0  0
    5.7702  -35.3941  -13.4628 O   0  0  0  0  0  0  0  0  0  0  0  0
    8.8231  -32.7524  -12.9695 C   0  0  1  0  0  0  0  0  0  0  0  0
    5.6162  -36.7276  -15.4646 C   0  0  1  0  0  0  0  0  0  0  0  0
    9.4924  -31.6206  -12.4067 O   0  0  0  0  0  0  0  0  0  0  0  0
    4.6473  -37.1252  -16.4376 O   0  0  0  0  0  0  0  0  0  0  0  0
    7.3502  -32.4035  -13.1015 C   0  0  1  0  0  0  0  0  0  0  0  0
    6.4525  -35.6118  -16.0708 C   0  0  1  0  0  0  0  0  0  0  0  0
    6.5640  -33.2996  -12.3219 O   0  0  0  0  0  0  0  0  0  0  0  0
    7.8184  -36.0096  -16.1435 O   0  0  0  0  0  0  0  0  0  0  0  0
    7.1959  -30.9873  -12.5791 C   0  0  0  0  0  0  0  0  0  0  0  0
    5.9052  -35.3738  -17.4649 C   0  0  0  0  0  0  0  0  0  0  0  0
    8.5877  -30.5419  -12.1555 C   0  0  2  0  0  0  0  0  0  0  0  0
    4.7597  -36.3605  -17.6404 C   0  0  2  0  0  0  0  0  0  0  0  0
    8.8014  -28.3188  -16.9084 N   0  0  0  0  0  0  0  0  0  0  0  0
    8.3199  -29.5179  -16.5322 C   0  0  0  0  0  0  0  0  0  0  0  0
    8.3310  -29.9629  -15.2622 N   0  0  0  0  0  0  0  0  0  0  0  0
    8.8426  -29.2035  -14.2639 C   0  0  0  0  0  0  0  0  0  0  0  0
    9.3885  -27.8780  -14.5953 C   0  0  0  0  0  0  0  0  0  0  0  0
    9.3413  -27.4586  -16.0161 C   0  0  0  0  0  0  0  0  0  0  0  0
    9.8220  -26.2537  -16.4071 N   0  0  0  0  0  0  0  0  0  0  0  0
    9.8248  -27.3427  -13.4397 N   0  0  0  0  0  0  0  0  0  0  0  0
    9.5807  -28.2446  -12.4548 C   0  0  0  0  0  0  0  0  0  0  0  0
    8.9950  -29.3537  -12.9458 N   0  0  0  0  0  0  0  0  0  0  0  0
    0.3279  -36.0819  -20.4430 N   0  0  0  0  0  0  0  0  0  0  0  0
    1.3367  -36.9710  -20.5012 C   0  0  0  0  0  0  0  0  0  0  0  0
    2.4249  -36.9194  -19.7119 N   0  0  0  0  0  0  0  0  0  0  0  0
    2.5663  -35.9386  -18.7878 C   0  0  0  0  0  0  0  0  0  0  0  0
    1.5045  -34.9281  -18.6631 C   0  0  0  0  0  0  0  0  0  0  0  0
    0.3376  -35.0533  -19.5680 C   0  0  0  0  0  0  0  0  0  0  0  0
   -0.6851  -34.1647  -19.5186 N   0  0  0  0  0  0  0  0  0  0  0  0
    1.8899  -34.0850  -17.6867 N   0  0  0  0  0  0  0  0  0  0  0  0
    3.0924  -34.5172  -17.2272 C   0  0  0  0  0  0  0  0  0  0  0  0
    3.4954  -35.6210  -17.8830 N   0  0  0  0  0  0  0  0  0  0  0  0
  1  3  1  1  0  0  0
  1  5  2  0  0  0  0
  1  9  1  0  0  0  0
  1 18  1  0  0  0  0
  2  4  1  6  0  0  0
  2  6  2  0  0  0  0
  2 10  1  0  0  0  0
  2 17  1  0  0  0  0
  7  9  1  0  0  0  0
  8 10  1  0  0  0  0
 11  7  1  6  0  0  0
 11 13  1  0  0  0  0
 11 15  1  0  0  0  0
 12  8  1  1  0  0  0
 12 14  1  0  0  0  0
 12 16  1  0  0  0  0
 13 21  1  0  0  0  0
 14 22  1  0  0  0  0
 15 17  1  1  0  0  0
 15 19  1  0  0  0  0
 16 18  1  6  0  0  0
 16 20  1  0  0  0  0
 19 21  1  0  0  0  0
 20 22  1  0  0  0  0
 21 32  1  6  0  0  0
 22 42  1  1  0  0  0
 23 24  2  0  0  0  0
 23 28  1  0  0  0  0
 24 25  1  0  0  0  0
 25 26  2  0  0  0  0
 26 27  1  0  0  0  0
 26 32  1  0  0  0  0
 27 28  2  0  0  0  0
 27 30  1  0  0  0  0
 28 29  1  0  0  0  0
 30 31  2  0  0  0  0
 31 32  1  0  0  0  0
 33 34  2  0  0  0  0
 33 38  1  0  0  0  0
 34 35  1  0  0  0  0
 35 36  2  0  0  0  0
 36 37  1  0  0  0  0
 36 42  1  0  0  0  0
 37 38  2  0  0  0  0
 37 40  1  0  0  0  0
 38 39  1  0  0  0  0
 40 41  2  0  0  0  0
 41 42  1  0  0  0  0
M  CHG  2   3  -1   4  -1
M  END
>  <CHROM.1>
73.80213985,-104.49380904,6.33143340,-33.26821110,-15.56107114,-0.42309529
0.75601146,2.76073151

>  <Name>
ligand

>  <RI>
0

>  <Rbt.Current_Directory>
/home/itssahil/PROJECTS/Mol_Feturizer/New_Systems/rnas/4QLN

>  <Rbt.Executable>
rbdock ($Id: //depot/dev/client3/rdock/2013.1/src/exe/rbdock.cxx#4 $)

>  <Rbt.Library>
libRbt.so (2013.1, Build901 2013/11/27)

>  <Rbt.Parameter_File>
/export/apps/rDock/src/rDock_2013.1_src/data/scripts/dock_solv.prm

>  <Rbt.Receptor>
prm/pocket_docking_3.prm

>  <SCORE>
-32.4639

>  <SCORE.INTER>
-33.0432

>  <SCORE.INTER.CONST>
1

>  <SCORE.INTER.POLAR>
0

>  <SCORE.INTER.ROT>
2

>  <SCORE.INTER.SOLV>
30.8767

>  <SCORE.INTER.VDW>
-37.2544

>  <SCORE.INTER.norm>
-0.786744

>  <SCORE.INTRA>
0.57938

>  <SCORE.INTRA.DIHEDRAL>
-0.000223268

>  <SCORE.INTRA.DIHEDRAL.0>
2.39985

>  <SCORE.INTRA.POLAR>
0

>  <SCORE.INTRA.POLAR.0>
0

>  <SCORE.INTRA.REPUL>
0

>  <SCORE.INTRA.REPUL.0>
0

>  <SCORE.INTRA.SOLV>
-0.0144527

>  <SCORE.INTRA.SOLV.lig_0>
-110.958

>  <SCORE.INTRA.VDW>
0.586718

>  <SCORE.INTRA.VDW.0>
-2.34644

>  <SCORE.INTRA.norm>
0.0137948

>  <SCORE.RESTR>
0

>  <SCORE.RESTR.CAVITY>
0

>  <SCORE.RESTR.norm>
0

>  <SCORE.SYSTEM>
0

>  <SCORE.SYSTEM.CONST>
0

>  <SCORE.SYSTEM.DIHEDRAL>
0

>  <SCORE.SYSTEM.SOLV>
0

>  <SCORE.SYSTEM.norm>
0

>  <SCORE.heavy>
42

>  <SCORE.norm>
-0.772949

>  <RMSD>
2.225

$$$$
ligand
 OpenBabel11021811513D
libRbt.so/2013.1/901 2013/11/27
 42 48  0  0  0  0  0  0  0  0999 V2000
    5.5504  -33.9824  -12.1779 P   0  0  2  0  0  0  0  0  0  0  0  0
    8.6762  -33.9923  -16.1458 P   0  0  1  0  0  0  0  0  0  0  0  0
    5.2958  -35.2819  -11.4504 O   0  5  0  0  0  0  0  0  0  0  0  0
    8.0018  -32.6497  -16.2978 O   0  5  0  0  0  0  0  0  0  0  0  0
    4.6388  -32.8005  -11.9496 O   0  0  0  0  0  0  0  0  0  0  0  0
    9.9043  -34.3160  -16.9622 O   0  0  0  0  0  0  0  0  0  0  0  0
    4.7715  -35.3132  -14.3178 C   0  0  0  0  0  0  0  0  0  0  0  0
    9.9007  -33.2917  -13.9179 C   0  0  0  0  0  0  0  0  0  0  0  0
    5.5918  -34.2894  -13.7574 O   0  0  0  0  0  0  0  0  0  0  0  0
    9.0346  -34.2031  -14.5902 O   0  0  0  0  0  0  0  0  0  0  0  0
    5.4664  -35.9109  -15.5354 C   0  0  1  0  0  0  0  0  0  0  0  0
    9.2556  -32.8431  -12.6127 C   0  0  1  0  0  0  0  0  0  0  0  0
    4.4975  -36.5225  -16.3914 O   0  0  0  0  0  0  0  0  0  0  0  0
    9.8053  -31.5864  -12.2098 O   0  0  0  0  0  0  0  0  0  0  0  0
    6.1873  -34.8413  -16.3384 C   0  0  1  0  0  0  0  0  0  0  0  0
    7.7542  -32.6637  -12.7721 C   0  0  1  0  0  0  0  0  0  0  0  0
    7.5781  -35.1399  -16.4121 O   0  0  0  0  0  0  0  0  0  0  0  0
    7.0614  -33.5209  -11.8697 O   0  0  0  0  0  0  0  0  0  0  0  0
    5.5766  -34.8625  -17.7274 C   0  0  0  0  0  0  0  0  0  0  0  0
    7.4577  -31.2134  -12.4430 C   0  0  0  0  0  0  0  0  0  0  0  0
    4.5091  -35.9463  -17.7003 C   0  0  2  0  0  0  0  0  0  0  0  0
    8.7972  -30.5790  -12.0968 C   0  0  2  0  0  0  0  0  0  0  0  0
    0.1446  -36.2175  -20.6081 N   0  0  0  0  0  0  0  0  0  0  0  0
    1.2408  -36.9982  -20.6137 C   0  0  0  0  0  0  0  0  0  0  0  0
    2.2978  -36.8084  -19.8026 N   0  0  0  0  0  0  0  0  0  0  0  0
    2.3146  -35.7903  -18.9091 C   0  0  0  0  0  0  0  0  0  0  0  0
    1.1513  -34.8920  -18.8421 C   0  0  0  0  0  0  0  0  0  0  0  0
    0.0264  -35.1651  -19.7679 C   0  0  0  0  0  0  0  0  0  0  0  0
   -1.0827  -34.3870  -19.7712 N   0  0  0  0  0  0  0  0  0  0  0  0
    1.4229  -33.9828  -17.8871 N   0  0  0  0  0  0  0  0  0  0  0  0
    2.6512  -34.2721  -17.3864 C   0  0  0  0  0  0  0  0  0  0  0  0
    3.1828  -35.3496  -17.9953 N   0  0  0  0  0  0  0  0  0  0  0  0
    8.4176  -28.8461  -17.0390 N   0  0  0  0  0  0  0  0  0  0  0  0
    8.0064  -30.0050  -16.4920 C   0  0  0  0  0  0  0  0  0  0  0  0
    8.1719  -30.3195  -15.1946 N   0  0  0  0  0  0  0  0  0  0  0  0
    8.7805  -29.4582  -14.3437 C   0  0  0  0  0  0  0  0  0  0  0  0
    9.2582  -28.1690  -14.8668 C   0  0  0  0  0  0  0  0  0  0  0  0
    9.0385  -27.8963  -16.3068 C   0  0  0  0  0  0  0  0  0  0  0  0
    9.4474  -26.7325  -16.8693 N   0  0  0  0  0  0  0  0  0  0  0  0
    9.8136  -27.5157  -13.8287 N   0  0  0  0  0  0  0  0  0  0  0  0
    9.7017  -28.3162  -12.7375 C   0  0  0  0  0  0  0  0  0  0  0  0
    9.0866  -29.4732  -13.0442 N   0  0  0  0  0  0  0  0  0  0  0  0
  1  3  1  1  0  0  0
  1  5  2  0  0  0  0
  1  9  1  0  0  0  0
  1 18  1  0  0  0  0
  2  4  1  6  0  0  0
  2  6  2  0  0  0  0
  2 10  1  0  0  0  0
  2 17  1  0  0  0  0
  7  9  1  0  0  0  0
  8 10  1  0  0  0  0
 11  7  1  1  0  0  0
 11 13  1  0  0  0  0
 11 15  1  0  0  0  0
 12  8  1  6  0  0  0
 12 14  1  0  0  0  0
 12 16  1  0  0  0  0
 13 21  1  0  0  0  0
 14 22  1  0  0  0  0
 15 17  1  6  0  0  0
 15 19  1  0  0  0  0
 16 18  1  1  0  0  0
 16 20  1  0  0  0  0
 19 21  1  0  0  0  0
 20 22  1  0  0  0  0
 21 32  1  1  0  0  0
 22 42  1  6  0  0  0
 23 24  2  0  0  0  0
 23 28  1  0  0  0  0
 24 25  1  0  0  0  0
 25 26  2  0  0  0  0
 26 27  1  0  0  0  0
 26 32  1  0  0  0  0
 27 28  2  0  0  0  0
 27 30  1  0  0  0  0
 28 29  1  0  0  0  0
 30 31  2  0  0  0  0
 31 32  1  0  0  0  0
 33 34  2  0  0  0  0
 33 38  1  0  0  0  0
 34 35  1  0  0  0  0
 35 36  2  0  0  0  0
 36 37  1  0  0  0  0
 36 42  1  0  0  0  0
 37 38  2  0  0  0  0
 37 40  1  0  0  0  0
 38 39  1  0  0  0  0
 40 41  2  0  0  0  0
 41 42  1  0  0  0  0
M  CHG  2   3  -1   4  -1
M  END
>  <CHROM.1>
-112.40872342,82.14443908,6.25918411,-33.11721830,-15.50258623,0.03283132
0.79461937,2.25873473

>  <Name>
ligand

>  <RI>
0

>  <Rbt.Current_Directory>
/home/itssahil/PROJECTS/Mol_Feturizer/New_Systems/rnas/4QLN

>  <Rbt.Executable>
rbdock ($Id: //depot/dev/client3/rdock/2013.1/src/exe/rbdock.cxx#4 $)

>  <Rbt.Library>
libRbt.so (2013.1, Build901 2013/11/27)

>  <Rbt.Parameter_File>
/export/apps/rDock/src/rDock_2013.1_src/data/scripts/dock_solv.prm

>  <Rbt.Receptor>
prm/pocket_docking_3.prm

>  <SCORE>
-27.6071

>  <SCORE.INTER>
-29.228

>  <SCORE.INTER.CONST>
1

>  <SCORE.INTER.POLAR>
0

>  <SCORE.INTER.ROT>
2

>  <SCORE.INTER.SOLV>
34.2536

>  <SCORE.INTER.VDW>
-35.8365

>  <SCORE.INTER.norm>
-0.695904

>  <SCORE.INTRA>
1.62086

>  <SCORE.INTRA.DIHEDRAL>
0.000737745

>  <SCORE.INTRA.DIHEDRAL.0>
2.39985

>  <SCORE.INTRA.POLAR>
0

>  <SCORE.INTRA.POLAR.0>
0

>  <SCORE.INTRA.REPUL>
0

>  <SCORE.INTRA.REPUL.0>
0

>  <SCORE.INTRA.SOLV>
0.927264

>  <SCORE.INTRA.SOLV.lig_0>
-110.958

>  <SCORE.INTRA.VDW>
1.15686

>  <SCORE.INTRA.VDW.0>
-2.34644

>  <SCORE.INTRA.norm>
0.0385919

>  <SCORE.RESTR>
0

>  <SCORE.RESTR.CAVITY>
0

>  <SCORE.RESTR.norm>
0

>  <SCORE.SYSTEM>
0

>  <SCORE.SYSTEM.CONST>
0

>  <SCORE.SYSTEM.DIHEDRAL>
0

>  <SCORE.SYSTEM.SOLV>
0

>  <SCORE.SYSTEM.norm>
0

>  <SCORE.heavy>
42

>  <SCORE.norm>
-0.657312

>  <RMSD>
2.228

$$$$
ligand
 OpenBabel11021811513D
libRbt.so/2013.1/901 2013/11/27
 42 48  0  0  0  0  0  0  0  0999 V2000
    5.5477  -33.9828  -12.1771 P   0  0  2  0  0  0  0  0  0  0  0  0
    8.6772  -33.9901  -16.1419 P   0  0  1  0  0  0  0  0  0  0  0  0
    5.2927  -35.2827  -11.4504 O   0  5  0  0  0  0  0  0  0  0  0  0
    8.0026  -32.6476  -16.2941 O   0  5  0  0  0  0  0  0  0  0  0  0
    4.6355  -32.8013  -11.9491 O   0  0  0  0  0  0  0  0  0  0  0  0
    9.9061  -34.3131  -16.9573 O   0  0  0  0  0  0  0  0  0  0  0  0
    4.7712  -35.3129  -14.3183 C   0  0  0  0  0  0  0  0  0  0  0  0
    9.8993  -33.2901  -13.9127 C   0  0  0  0  0  0  0  0  0  0  0  0
    5.5906  -34.2891  -13.7567 O   0  0  0  0  0  0  0  0  0  0  0  0
    9.0342  -34.2015  -14.5862 O   0  0  0  0  0  0  0  0  0  0  0  0
    5.4673  -35.9099  -15.5355 C   0  0  1  0  0  0  0  0  0  0  0  0
    9.2529  -32.8423  -12.6078 C   0  0  1  0  0  0  0  0  0  0  0  0
    4.4995  -36.5215  -16.3927 O   0  0  0  0  0  0  0  0  0  0  0  0
    9.8019  -31.5856  -12.2039 O   0  0  0  0  0  0  0  0  0  0  0  0
    6.1887  -34.8398  -16.3373 C   0  0  1  0  0  0  0  0  0  0  0  0
    7.7516  -32.6632  -12.7686 C   0  0  1  0  0  0  0  0  0  0  0  0
    7.5797  -35.1380  -16.4099 O   0  0  0  0  0  0  0  0  0  0  0  0
    7.0582  -33.5210  -11.8673 O   0  0  0  0  0  0  0  0  0  0  0  0
    5.5794  -34.8606  -17.7269 C   0  0  0  0  0  0  0  0  0  0  0  0
    7.4543  -31.2131  -12.4392 C   0  0  0  0  0  0  0  0  0  0  0  0
    4.5121  -35.9446  -17.7012 C   0  0  2  0  0  0  0  0  0  0  0  0
    8.7934  -30.5785  -12.0914 C   0  0  2  0  0  0  0  0  0  0  0  0
    0.1480  -36.2194  -20.6093 N   0  0  0  0  0  0  0  0  0  0  0  0
    1.2441  -37.0002  -20.6136 C   0  0  0  0  0  0  0  0  0  0  0  0
    2.3010  -36.8094  -19.8026 N   0  0  0  0  0  0  0  0  0  0  0  0
    2.3178  -35.7901  -18.9106 C   0  0  0  0  0  0  0  0  0  0  0  0
    1.1546  -34.8916  -18.8450 C   0  0  0  0  0  0  0  0  0  0  0  0
    0.0298  -35.1658  -19.7706 C   0  0  0  0  0  0  0  0  0  0  0  0
   -1.0792  -34.3876  -19.7752 N   0  0  0  0  0  0  0  0  0  0  0  0
    1.4262  -33.9810  -17.8913 N   0  0  0  0  0  0  0  0  0  0  0  0
    2.6544  -34.2698  -17.3900 C   0  0  0  0  0  0  0  0  0  0  0  0
    3.1859  -35.3482  -17.9973 N   0  0  0  0  0  0  0  0  0  0  0  0
    8.4291  -28.8488  -17.0359 N   0  0  0  0  0  0  0  0  0  0  0  0
    8.0191  -30.0088  -16.4901 C   0  0  0  0  0  0  0  0  0  0  0  0
    8.1802  -30.3222  -15.1919 N   0  0  0  0  0  0  0  0  0  0  0  0
    8.7826  -29.4587  -14.3389 C   0  0  0  0  0  0  0  0  0  0  0  0
    9.2586  -28.1682  -14.8605 C   0  0  0  0  0  0  0  0  0  0  0  0
    9.0440  -27.8968  -16.3015 C   0  0  0  0  0  0  0  0  0  0  0  0
    9.4518  -26.7320  -16.8629 N   0  0  0  0  0  0  0  0  0  0  0  0
    9.8077  -27.5129  -13.8204 N   0  0  0  0  0  0  0  0  0  0  0  0
    9.6937  -28.3133  -12.7294 C   0  0  0  0  0  0  0  0  0  0  0  0
    9.0834  -29.4722  -13.0381 N   0  0  0  0  0  0  0  0  0  0  0  0
  1  3  1  1  0  0  0
  1  5  2  0  0  0  0
  1  9  1  0  0  0  0
  1 18  1  0  0  0  0
  2  4  1  6  0  0  0
  2  6  2  0  0  0  0
  2 10  1  0  0  0  0
  2 17  1  0  0  0  0
  7  9  1  0  0  0  0
  8 10  1  0  0  0  0
 11  7  1  1  0  0  0
 11 13  1  0  0  0  0
 11 15  1  0  0  0  0
 12  8  1  6  0  0  0
 12 14  1  0  0  0  0
 12 16  1  0  0  0  0
 13 21  1  0  0  0  0
 14 22  1  0  0  0  0
 15 17  1  6  0  0  0
 15 19  1  0  0  0  0
 16 18  1  1  0  0  0
 16 20  1  0  0  0  0
 19 21  1  0  0  0  0
 20 22  1  0  0  0  0
 21 32  1  1  0  0  0
 22 42  1  6  0  0  0
 23 24  2  0  0  0  0
 23 28  1  0  0  0  0
 24 25  1  0  0  0  0
 25 26  2  0  0  0  0
 26 27  1  0  0  0  0
 26 32  1  0  0  0  0
 27 28  2  0  0  0  0
 27 30  1  0  0  0  0
 28 29  1  0  0  0  0
 30 31  2  0  0  0  0
 31 32  1  0  0  0  0
 33 34  2  0  0  0  0
 33 38  1  0  0  0  0
 34 35  1  0  0  0  0
 35 36  2  0  0  0  0
 36 37  1  0  0  0  0
 36 42  1  0  0  0  0
 37 38  2  0  0  0  0
 37 40  1  0  0  0  0
 38 39  1  0  0  0  0
 40 41  2  0  0  0  0
 41 42  1  0  0  0  0
M  CHG  2   3  -1   4  -1
M  END
>  <CHROM.1>
-112.29208316,81.89772366,6.26003213,-33.11672415,-15.50059679,0.03477814
0.79512320,2.25650776

>  <Name>
ligand

>  <RI>
0

>  <Rbt.Current_Directory>
/home/itssahil/PROJECTS/Mol_Feturizer/New_Systems/rnas/4QLN

>  <Rbt.Executable>
rbdock ($Id: //depot/dev/client3/rdock/2013.1/src/exe/rbdock.cxx#4 $)

>  <Rbt.Library>
libRbt.so (2013.1, Build901 2013/11/27)

>  <Rbt.Parameter_File>
/export/apps/rDock/src/rDock_2013.1_src/data/scripts/dock_solv.prm

>  <Rbt.Receptor>
prm/pocket_docking_3.prm

>  <SCORE>
-27.5929

>  <SCORE.INTER>
-29.2359

>  <SCORE.INTER.CONST>
1

>  <SCORE.INTER.POLAR>
0

>  <SCORE.INTER.ROT>
2

>  <SCORE.INTER.SOLV>
34.2518

>  <SCORE.INTER.VDW>
-35.8412

>  <SCORE.INTER.norm>
-0.696092

>  <SCORE.INTRA>
1.64299

>  <SCORE.INTRA.DIHEDRAL>
0.000732324

>  <SCORE.INTRA.DIHEDRAL.0>
2.39985

>  <SCORE.INTRA.POLAR>
0

>  <SCORE.INTRA.POLAR.0>
0

>  <SCORE.INTRA.REPUL>
0

>  <SCORE.INTRA.REPUL.0>
0

>  <SCORE.INTRA.SOLV>
0.93487

>  <SCORE.INTRA.SOLV.lig_0>
-110.958

>  <SCORE.INTRA.VDW>
1.17519

>  <SCORE.INTRA.VDW.0>
-2.34644

>  <SCORE.INTRA.norm>
0.0391188

>  <SCORE.RESTR>
0

>  <SCORE.RESTR.CAVITY>
0

>  <SCORE.RESTR.norm>
0

>  <SCORE.SYSTEM>
0

>  <SCORE.SYSTEM.CONST>
0

>  <SCORE.SYSTEM.DIHEDRAL>
0

>  <SCORE.SYSTEM.SOLV>
0

>  <SCORE.SYSTEM.norm>
0

>  <SCORE.heavy>
42

>  <SCORE.norm>
-0.656974

>  <RMSD>
2.228

$$$$
ligand
 OpenBabel11021811513D
libRbt.so/2013.1/901 2013/11/27
 42 48  0  0  0  0  0  0  0  0999 V2000
    5.5602  -33.9923  -12.1722 P   0  0  2  0  0  0  0  0  0  0  0  0
    8.7018  -34.0073  -16.1275 P   0  0  1  0  0  0  0  0  0  0  0  0
    5.3064  -35.2900  -11.4411 O   0  5  0  0  0  0  0  0  0  0  0  0
    8.0242  -32.6672  -16.2870 O   0  5  0  0  0  0  0  0  0  0  0  0
    4.6443  -32.8123  -11.9517 O   0  0  0  0  0  0  0  0  0  0  0  0
    9.9341  -34.3303  -16.9378 O   0  0  0  0  0  0  0  0  0  0  0  0
    4.7937  -35.3330  -14.3104 C   0  0  0  0  0  0  0  0  0  0  0  0
    9.9154  -33.2953  -13.8973 C   0  0  0  0  0  0  0  0  0  0  0  0
    5.6088  -34.3049  -13.7504 O   0  0  0  0  0  0  0  0  0  0  0  0
    9.0547  -34.2115  -14.5698 O   0  0  0  0  0  0  0  0  0  0  0  0
    5.4951  -35.9330  -15.5231 C   0  0  1  0  0  0  0  0  0  0  0  0
    9.2638  -32.8439  -12.5962 C   0  0  1  0  0  0  0  0  0  0  0  0
    4.5315  -36.5505  -16.3808 O   0  0  0  0  0  0  0  0  0  0  0  0
    9.8083  -31.5842  -12.1956 O   0  0  0  0  0  0  0  0  0  0  0  0
    6.2162  -34.8642  -16.3270 C   0  0  1  0  0  0  0  0  0  0  0  0
    7.7626  -32.6694  -12.7623 C   0  0  1  0  0  0  0  0  0  0  0  0
    7.6081  -35.1590  -16.3941 O   0  0  0  0  0  0  0  0  0  0  0  0
    7.0686  -33.5254  -11.8596 O   0  0  0  0  0  0  0  0  0  0  0  0
    5.6111  -34.8921  -17.7183 C   0  0  0  0  0  0  0  0  0  0  0  0
    7.4605  -31.2188  -12.4395 C   0  0  0  0  0  0  0  0  0  0  0  0
    4.5466  -35.9788  -17.6916 C   0  0  2  0  0  0  0  0  0  0  0  0
    8.7968  -30.5793  -12.0902 C   0  0  2  0  0  0  0  0  0  0  0  0
    0.2043  -36.2592  -20.6317 N   0  0  0  0  0  0  0  0  0  0  0  0
    1.3041  -37.0349  -20.6321 C   0  0  0  0  0  0  0  0  0  0  0  0
    2.3544  -36.8433  -19.8128 N   0  0  0  0  0  0  0  0  0  0  0  0
    2.3602  -35.8284  -18.9157 C   0  0  0  0  0  0  0  0  0  0  0  0
    1.1923  -34.9356  -18.8537 C   0  0  0  0  0  0  0  0  0  0  0  0
    0.0754  -35.2104  -19.7886 C   0  0  0  0  0  0  0  0  0  0  0  0
   -1.0372  -34.4373  -19.7972 N   0  0  0  0  0  0  0  0  0  0  0  0
    1.4530  -34.0286  -17.8937 N   0  0  0  0  0  0  0  0  0  0  0  0
    2.6790  -34.3141  -17.3852 C   0  0  0  0  0  0  0  0  0  0  0  0
    3.2197  -35.3870  -17.9940 N   0  0  0  0  0  0  0  0  0  0  0  0
    8.4175  -28.8583  -17.0366 N   0  0  0  0  0  0  0  0  0  0  0  0
    8.0056  -30.0156  -16.4867 C   0  0  0  0  0  0  0  0  0  0  0  0
    8.1712  -30.3270  -15.1885 N   0  0  0  0  0  0  0  0  0  0  0  0
    8.7805  -29.4641  -14.3399 C   0  0  0  0  0  0  0  0  0  0  0  0
    9.2590  -28.1764  -14.8662 C   0  0  0  0  0  0  0  0  0  0  0  0
    9.0392  -27.9071  -16.3069 C   0  0  0  0  0  0  0  0  0  0  0  0
    9.4488  -26.7450  -16.8723 N   0  0  0  0  0  0  0  0  0  0  0  0
    9.8150  -27.5210  -13.8298 N   0  0  0  0  0  0  0  0  0  0  0  0
    9.7028  -28.3188  -12.7367 C   0  0  0  0  0  0  0  0  0  0  0  0
    9.0868  -29.4761  -13.0405 N   0  0  0  0  0  0  0  0  0  0  0  0
  1  3  1  1  0  0  0
  1  5  2  0  0  0  0
  1  9  1  0  0  0  0
  1 18  1  0  0  0  0
  2  4  1  6  0  0  0
  2  6  2  0  0  0  0
  2 10  1  0  0  0  0
  2 17  1  0  0  0  0
  7  9  1  0  0  0  0
  8 10  1  0  0  0  0
 11  7  1  1  0  0  0
 11 13  1  0  0  0  0
 11 15  1  0  0  0  0
 12  8  1  6  0  0  0
 12 14  1  0  0  0  0
 12 16  1  0  0  0  0
 13 21  1  0  0  0  0
 14 22  1  0  0  0  0
 15 17  1  6  0  0  0
 15 19  1  0  0  0  0
 16 18  1  1  0  0  0
 16 20  1  0  0  0  0
 19 21  1  0  0  0  0
 20 22  1  0  0  0  0
 21 32  1  1  0  0  0
 22 42  1  6  0  0  0
 23 24  2  0  0  0  0
 23 28  1  0  0  0  0
 24 25  1  0  0  0  0
 25 26  2  0  0  0  0
 26 27  1  0  0  0  0
 26 32  1  0  0  0  0
 27 28  2  0  0  0  0
 27 30  1  0  0  0  0
 28 29  1  0  0  0  0
 30 31  2  0  0  0  0
 31 32  1  0  0  0  0
 33 34  2  0  0  0  0
 33 38  1  0  0  0  0
 34 35  1  0  0  0  0
 35 36  2  0  0  0  0
 36 37  1  0  0  0  0
 36 42  1  0  0  0  0
 37 38  2  0  0  0  0
 37 40  1  0  0  0  0
 38 39  1  0  0  0  0
 40 41  2  0  0  0  0
 41 42  1  0  0  0  0
M  CHG  2   3  -1   4  -1
M  END
>  <CHROM.1>
-112.86601122,82.46653583,6.27937165,-33.13525951,-15.49808133,0.03409837
0.79997972,2.25621991

>  <Name>
ligand

>  <RI>
0

>  <Rbt.Current_Directory>
/home/itssahil/PROJECTS/Mol_Feturizer/New_Systems/rnas/4QLN

>  <Rbt.Executable>
rbdock ($Id: //depot/dev/client3/rdock/2013.1/src/exe/rbdock.cxx#4 $)

>  <Rbt.Library>
libRbt.so (2013.1, Build901 2013/11/27)

>  <Rbt.Parameter_File>
/export/apps/rDock/src/rDock_2013.1_src/data/scripts/dock_solv.prm

>  <Rbt.Receptor>
prm/pocket_docking_5.prm

>  <SCORE>
-27.5218

>  <SCORE.INTER>
-29.1096

>  <SCORE.INTER.CONST>
1

>  <SCORE.INTER.POLAR>
0

>  <SCORE.INTER.ROT>
2

>  <SCORE.INTER.SOLV>
34.2397

>  <SCORE.INTER.VDW>
-35.753

>  <SCORE.INTER.norm>
-0.693086

>  <SCORE.INTRA>
1.58778

>  <SCORE.INTRA.DIHEDRAL>
0.000748532

>  <SCORE.INTRA.DIHEDRAL.0>
2.39985

>  <SCORE.INTRA.POLAR>
0

>  <SCORE.INTRA.POLAR.0>
0

>  <SCORE.INTRA.REPUL>
0

>  <SCORE.INTRA.REPUL.0>
0

>  <SCORE.INTRA.SOLV>
0.917233

>  <SCORE.INTRA.SOLV.lig_0>
-110.958

>  <SCORE.INTRA.VDW>
1.12879

>  <SCORE.INTRA.VDW.0>
-2.34644

>  <SCORE.INTRA.norm>
0.0378042

>  <SCORE.RESTR>
0

>  <SCORE.RESTR.CAVITY>
0

>  <SCORE.RESTR.norm>
0

>  <SCORE.SYSTEM>
0

>  <SCORE.SYSTEM.CONST>
0

>  <SCORE.SYSTEM.DIHEDRAL>
0

>  <SCORE.SYSTEM.SOLV>
0

>  <SCORE.SYSTEM.norm>
0

>  <SCORE.heavy>
42

>  <SCORE.norm>
-0.655282

>  <RMSD>
2.228

$$$$
ligand
 OpenBabel11021811513D
libRbt.so/2013.1/901 2013/11/27
 42 48  0  0  0  0  0  0  0  0999 V2000
    3.0538  -35.6320  -13.0111 P   0  0  2  0  0  0  0  0  0  0  0  0
    7.1388  -36.0806  -15.9482 P   0  0  1  0  0  0  0  0  0  0  0  0
    2.4540  -36.8795  -12.4054 O   0  5  0  0  0  0  0  0  0  0  0  0
    6.6979  -34.6704  -16.2601 O   0  5  0  0  0  0  0  0  0  0  0  0
    2.2616  -34.3467  -13.0267 O   0  0  0  0  0  0  0  0  0  0  0  0
    8.4985  -36.5616  -16.3946 O   0  0  0  0  0  0  0  0  0  0  0  0
    2.7511  -36.8979  -15.3053 C   0  0  0  0  0  0  0  0  0  0  0  0
    7.7668  -35.4919  -13.4557 C   0  0  0  0  0  0  0  0  0  0  0  0
    3.4978  -35.9690  -14.5212 O   0  0  0  0  0  0  0  0  0  0  0  0
    7.0211  -36.3056  -14.3582 O   0  0  0  0  0  0  0  0  0  0  0  0
    3.6822  -37.5945  -16.2903 C   0  0  1  0  0  0  0  0  0  0  0  0
    6.8409  -34.9476  -12.3752 C   0  0  1  0  0  0  0  0  0  0  0  0
    2.9254  -38.1017  -17.3928 O   0  0  0  0  0  0  0  0  0  0  0  0
    7.4014  -33.7582  -11.8139 O   0  0  0  0  0  0  0  0  0  0  0  0
    4.7202  -36.6319  -16.8421 C   0  0  1  0  0  0  0  0  0  0  0  0
    5.4761  -34.5943  -12.9444 C   0  0  1  0  0  0  0  0  0  0  0  0
    6.0306  -37.0945  -16.5296 O   0  0  0  0  0  0  0  0  0  0  0  0
    4.4623  -35.3477  -12.2857 O   0  0  0  0  0  0  0  0  0  0  0  0
    4.5235  -36.6045  -18.3465 C   0  0  0  0  0  0  0  0  0  0  0  0
    5.2736  -33.1136  -12.6870 C   0  0  0  0  0  0  0  0  0  0  0  0
    3.3701  -37.5535  -18.6366 C   0  0  2  0  0  0  0  0  0  0  0  0
    6.5287  -32.6365  -11.9701 C   0  0  2  0  0  0  0  0  0  0  0  0
    0.3309  -33.2725  -18.5150 N   0  0  0  0  0  0  0  0  0  0  0  0
    1.3281  -33.6523  -17.6949 C   0  0  0  0  0  0  0  0  0  0  0  0
    2.0295  -34.7905  -17.8481 N   0  0  0  0  0  0  0  0  0  0  0  0
    1.7613  -35.6404  -18.8682 C   0  0  0  0  0  0  0  0  0  0  0  0
    0.6842  -35.2948  -19.8091 C   0  0  0  0  0  0  0  0  0  0  0  0
   -0.0432  -34.0250  -19.5739 C   0  0  0  0  0  0  0  0  0  0  0  0
   -1.0482  -33.6315  -20.3929 N   0  0  0  0  0  0  0  0  0  0  0  0
    0.6277  -36.2925  -20.7112 N   0  0  0  0  0  0  0  0  0  0  0  0
    1.5834  -37.1976  -20.3785 C   0  0  0  0  0  0  0  0  0  0  0  0
    2.2594  -36.8089  -19.2801 N   0  0  0  0  0  0  0  0  0  0  0  0
    7.6934  -30.9200  -16.7939 N   0  0  0  0  0  0  0  0  0  0  0  0
    7.0038  -32.0078  -16.4031 C   0  0  0  0  0  0  0  0  0  0  0  0
    6.7796  -32.3280  -15.1159 N   0  0  0  0  0  0  0  0  0  0  0  0
    7.2510  -31.5471  -14.1140 C   0  0  0  0  0  0  0  0  0  0  0  0
    8.0150  -30.3388  -14.4610 C   0  0  0  0  0  0  0  0  0  0  0  0
    8.2195  -30.0542  -15.9010 C   0  0  0  0  0  0  0  0  0  0  0  0
    8.9115  -28.9615  -16.3072 N   0  0  0  0  0  0  0  0  0  0  0  0
    8.3590  -29.7549  -13.2976 N   0  0  0  0  0  0  0  0  0  0  0  0
    7.8598  -30.5219  -12.2943 C   0  0  0  0  0  0  0  0  0  0  0  0
    7.2001  -31.5894  -12.7805 N   0  0  0  0  0  0  0  0  0  0  0  0
  1  3  1  1  0  0  0
  1  5  2  0  0  0  0
  1  9  1  0  0  0  0
  1 18  1  0  0  0  0
  2  4  1  6  0  0  0
  2  6  2  0  0  0  0
  2 10  1  0  0  0  0
  2 17  1  0  0  0  0
  7  9  1  0  0  0  0
  8 10  1  0  0  0  0
 11  7  1  1  0  0  0
 11 13  1  0  0  0  0
 11 15  1  0  0  0  0
 12  8  1  6  0  0  0
 12 14  1  0  0  0  0
 12 16  1  0  0  0  0
 13 21  1  0  0  0  0
 14 22  1  0  0  0  0
 15 17  1  6  0  0  0
 15 19  1  0  0  0  0
 16 18  1  1  0  0  0
 16 20  1  0  0  0  0
 19 21  1  0  0  0  0
 20 22  1  0  0  0  0
 21 32  1  1  0  0  0
 22 42  1  6  0  0  0
 23 24  2  0  0  0  0
 23 28  1  0  0  0  0
 24 25  1  0  0  0  0
 25 26  2  0  0  0  0
 26 27  1  0  0  0  0
 26 32  1  0  0  0  0
 27 28  2  0  0  0  0
 27 30  1  0  0  0  0
 28 29  1  0  0  0  0
 30 31  2  0  0  0  0
 31 32  1  0  0  0  0
 33 34  2  0  0  0  0
 33 38  1  0  0  0  0
 34 35  1  0  0  0  0
 35 36  2  0  0  0  0
 36 37  1  0  0  0  0
 36 42  1  0  0  0  0
 37 38  2  0  0  0  0
 37 40  1  0  0  0  0
 38 39  1  0  0  0  0
 40 41  2  0  0  0  0
 41 42  1  0  0  0  0
M  CHG  2   3  -1   4  -1
M  END
>  <CHROM.1>
71.25164930,83.50206179,4.78304544,-34.57588404,-15.65120702,3.04804630,-0.80398101
-0.76705168

>  <Name>
ligand

>  <RI>
0

>  <Rbt.Current_Directory>
/home/itssahil/PROJECTS/Mol_Feturizer/New_Systems/rnas/4QLN

>  <Rbt.Executable>
rbdock ($Id: //depot/dev/client3/rdock/2013.1/src/exe/rbdock.cxx#4 $)

>  <Rbt.Library>
libRbt.so (2013.1, Build901 2013/11/27)

>  <Rbt.Parameter_File>
/export/apps/rDock/src/rDock_2013.1_src/data/scripts/dock_solv.prm

>  <Rbt.Receptor>
prm/pocket_docking_4.prm

>  <SCORE>
-24.9849

>  <SCORE.INTER>
-25.9013

>  <SCORE.INTER.CONST>
1

>  <SCORE.INTER.POLAR>
0

>  <SCORE.INTER.ROT>
2

>  <SCORE.INTER.SOLV>
28.1787

>  <SCORE.INTER.VDW>
-31.5938

>  <SCORE.INTER.norm>
-0.616698

>  <SCORE.INTRA>
0.916398

>  <SCORE.INTRA.DIHEDRAL>
0.00100394

>  <SCORE.INTRA.DIHEDRAL.0>
2.39985

>  <SCORE.INTRA.POLAR>
0

>  <SCORE.INTRA.POLAR.0>
0

>  <SCORE.INTRA.REPUL>
0

>  <SCORE.INTRA.REPUL.0>
0

>  <SCORE.INTRA.SOLV>
0.924851

>  <SCORE.INTRA.SOLV.lig_0>
-110.958

>  <SCORE.INTRA.VDW>
0.453471

>  <SCORE.INTRA.VDW.0>
-2.34644

>  <SCORE.INTRA.norm>
0.021819

>  <SCORE.RESTR>
0

>  <SCORE.RESTR.CAVITY>
0

>  <SCORE.RESTR.norm>
0

>  <SCORE.SYSTEM>
0

>  <SCORE.SYSTEM.CONST>
0

>  <SCORE.SYSTEM.DIHEDRAL>
0

>  <SCORE.SYSTEM.SOLV>
0

>  <SCORE.SYSTEM.norm>
0

>  <SCORE.heavy>
42

>  <SCORE.norm>
-0.594879

>  <RMSD>
2.230

$$$$
ligand
 OpenBabel11021811513D
libRbt.so/2013.1/901 2013/11/27
 42 48  0  0  0  0  0  0  0  0999 V2000
    3.0894  -35.7064  -13.0276 P   0  0  2  0  0  0  0  0  0  0  0  0
    7.1558  -36.0735  -16.0014 P   0  0  1  0  0  0  0  0  0  0  0  0
    2.5079  -36.9679  -12.4329 O   0  5  0  0  0  0  0  0  0  0  0  0
    6.6971  -34.6645  -16.2923 O   0  5  0  0  0  0  0  0  0  0  0  0
    2.2830  -34.4298  -13.0211 O   0  0  0  0  0  0  0  0  0  0  0  0
    8.5172  -36.5339  -16.4642 O   0  0  0  0  0  0  0  0  0  0  0  0
    2.7825  -36.9470  -15.3350 C   0  0  0  0  0  0  0  0  0  0  0  0
    7.7969  -35.5087  -13.5068 C   0  0  0  0  0  0  0  0  0  0  0  0
    3.5251  -36.0197  -14.5452 O   0  0  0  0  0  0  0  0  0  0  0  0
    7.0531  -36.3194  -14.4135 O   0  0  0  0  0  0  0  0  0  0  0  0
    3.7135  -37.6211  -16.3358 C   0  0  1  0  0  0  0  0  0  0  0  0
    6.8736  -34.9882  -12.4124 C   0  0  1  0  0  0  0  0  0  0  0  0
    2.9536  -38.1229  -17.4387 O   0  0  0  0  0  0  0  0  0  0  0  0
    7.4254  -33.7997  -11.8407 O   0  0  0  0  0  0  0  0  0  0  0  0
    4.7365  -36.6403  -16.8835 C   0  0  1  0  0  0  0  0  0  0  0  0
    5.5006  -34.6429  -12.9666 C   0  0  1  0  0  0  0  0  0  0  0  0
    6.0543  -37.0922  -16.5869 O   0  0  0  0  0  0  0  0  0  0  0  0
    4.5003  -35.4155  -12.3096 O   0  0  0  0  0  0  0  0  0  0  0  0
    4.5277  -36.5965  -18.3859 C   0  0  0  0  0  0  0  0  0  0  0  0
    5.2839  -33.1678  -12.6892 C   0  0  0  0  0  0  0  0  0  0  0  0
    3.3826  -37.5544  -18.6789 C   0  0  2  0  0  0  0  0  0  0  0  0
    6.5393  -32.6859  -11.9761 C   0  0  2  0  0  0  0  0  0  0  0  0
    0.2480  -33.3479  -18.4372 N   0  0  0  0  0  0  0  0  0  0  0  0
    1.2493  -33.7318  -17.6240 C   0  0  0  0  0  0  0  0  0  0  0  0
    1.9767  -34.8487  -17.8097 N   0  0  0  0  0  0  0  0  0  0  0  0
    1.7327  -35.6710  -18.8582 C   0  0  0  0  0  0  0  0  0  0  0  0
    0.6528  -35.3191  -19.7936 C   0  0  0  0  0  0  0  0  0  0  0  0
   -0.1039  -34.0739  -19.5219 C   0  0  0  0  0  0  0  0  0  0  0  0
   -1.1133  -33.6765  -20.3335 N   0  0  0  0  0  0  0  0  0  0  0  0
    0.6231  -36.2882  -20.7276 N   0  0  0  0  0  0  0  0  0  0  0  0
    1.5971  -37.1821  -20.4186 C   0  0  0  0  0  0  0  0  0  0  0  0
    2.2587  -36.8143  -19.3045 N   0  0  0  0  0  0  0  0  0  0  0  0
    7.6833  -30.9188  -16.7866 N   0  0  0  0  0  0  0  0  0  0  0  0
    7.0134  -32.0217  -16.4041 C   0  0  0  0  0  0  0  0  0  0  0  0
    6.7921  -32.3538  -15.1194 N   0  0  0  0  0  0  0  0  0  0  0  0
    7.2463  -31.5702  -14.1116 C   0  0  0  0  0  0  0  0  0  0  0  0
    7.9882  -30.3457  -14.4495 C   0  0  0  0  0  0  0  0  0  0  0  0
    8.1908  -30.0486  -15.8872 C   0  0  0  0  0  0  0  0  0  0  0  0
    8.8631  -28.9406  -16.2852 N   0  0  0  0  0  0  0  0  0  0  0  0
    8.3183  -29.7624  -13.2817 N   0  0  0  0  0  0  0  0  0  0  0  0
    7.8311  -30.5446  -12.2844 C   0  0  0  0  0  0  0  0  0  0  0  0
    7.1928  -31.6214  -12.7785 N   0  0  0  0  0  0  0  0  0  0  0  0
  1  3  1  1  0  0  0
  1  5  2  0  0  0  0
  1  9  1  0  0  0  0
  1 18  1  0  0  0  0
  2  4  1  6  0  0  0
  2  6  2  0  0  0  0
  2 10  1  0  0  0  0
  2 17  1  0  0  0  0
  7  9  1  0  0  0  0
  8 10  1  0  0  0  0
 11  7  1  1  0  0  0
 11 13  1  0  0  0  0
 11 15  1  0  0  0  0
 12  8  1  6  0  0  0
 12 14  1  0  0  0  0
 12 16  1  0  0  0  0
 13 21  1  0  0  0  0
 14 22  1  0  0  0  0
 15 17  1  6  0  0  0
 15 19  1  0  0  0  0
 16 18  1  1  0  0  0
 16 20  1  0  0  0  0
 19 21  1  0  0  0  0
 20 22  1  0  0  0  0
 21 32  1  1  0  0  0
 22 42  1  6  0  0  0
 23 24  2  0  0  0  0
 23 28  1  0  0  0  0
 24 25  1  0  0  0  0
 25 26  2  0  0  0  0
 26 27  1  0  0  0  0
 26 32  1  0  0  0  0
 27 28  2  0  0  0  0
 27 30  1  0  0  0  0
 28 29  1  0  0  0  0
 30 31  2  0  0  0  0
 31 32  1  0  0  0  0
 33 34  2  0  0  0  0
 33 38  1  0  0  0  0
 34 35  1  0  0  0  0
 35 36  2  0  0  0  0
 36 37  1  0  0  0  0
 36 42  1  0  0  0  0
 37 38  2  0  0  0  0
 37 40  1  0  0  0  0
 38 39  1  0  0  0  0
 40 41  2  0  0  0  0
 41 42  1  0  0  0  0
M  CHG  2   3  -1   4  -1
M  END
>  <CHROM.1>
69.74613592,82.67320516,4.78504329,-34.60359778,-15.66399767,3.06171078,-0.80255443
-0.75110683

>  <Name>
ligand

>  <RI>
0

>  <Rbt.Current_Directory>
/home/itssahil/PROJECTS/Mol_Feturizer/New_Systems/rnas/4QLN

>  <Rbt.Executable>
rbdock ($Id: //depot/dev/client3/rdock/2013.1/src/exe/rbdock.cxx#4 $)

>  <Rbt.Library>
libRbt.so (2013.1, Build901 2013/11/27)

>  <Rbt.Parameter_File>
/export/apps/rDock/src/rDock_2013.1_src/data/scripts/dock_solv.prm

>  <Rbt.Receptor>
prm/pocket_docking_4.prm

>  <SCORE>
-24.9976

>  <SCORE.INTER>
-25.9277

>  <SCORE.INTER.CONST>
1

>  <SCORE.INTER.POLAR>
0

>  <SCORE.INTER.ROT>
2

>  <SCORE.INTER.SOLV>
28.1364

>  <SCORE.INTER.VDW>
-31.5973

>  <SCORE.INTER.norm>
-0.617326

>  <SCORE.INTRA>
0.930066

>  <SCORE.INTRA.DIHEDRAL>
0.000974777

>  <SCORE.INTRA.DIHEDRAL.0>
2.39985

>  <SCORE.INTRA.POLAR>
0

>  <SCORE.INTRA.POLAR.0>
0

>  <SCORE.INTRA.REPUL>
0

>  <SCORE.INTRA.REPUL.0>
0

>  <SCORE.INTRA.SOLV>
0.95325

>  <SCORE.INTRA.SOLV.lig_0>
-110.958

>  <SCORE.INTRA.VDW>
0.452953

>  <SCORE.INTRA.VDW.0>
-2.34644

>  <SCORE.INTRA.norm>
0.0221444

>  <SCORE.RESTR>
0

>  <SCORE.RESTR.CAVITY>
0

>  <SCORE.RESTR.norm>
0

>  <SCORE.SYSTEM>
0

>  <SCORE.SYSTEM.CONST>
0

>  <SCORE.SYSTEM.DIHEDRAL>
0

>  <SCORE.SYSTEM.SOLV>
0

>  <SCORE.SYSTEM.norm>
0

>  <SCORE.heavy>
42

>  <SCORE.norm>
-0.595182

>  <RMSD>
2.235

$$$$
ligand
 OpenBabel11021811513D
libRbt.so/2013.1/901 2013/11/27
 42 48  0  0  0  0  0  0  0  0999 V2000
    5.5976  -34.0018  -12.1871 P   0  0  2  0  0  0  0  0  0  0  0  0
    8.7004  -33.9569  -16.1727 P   0  0  1  0  0  0  0  0  0  0  0  0
    5.3569  -35.3089  -11.4684 O   0  5  0  0  0  0  0  0  0  0  0  0
    8.0151  -32.6183  -16.3104 O   0  5  0  0  0  0  0  0  0  0  0  0
    4.6783  -32.8287  -11.9443 O   0  0  0  0  0  0  0  0  0  0  0  0
    9.9262  -34.2648  -16.9986 O   0  0  0  0  0  0  0  0  0  0  0  0
    4.8164  -35.3218  -14.3329 C   0  0  0  0  0  0  0  0  0  0  0  0
    9.9324  -33.2644  -13.9464 C   0  0  0  0  0  0  0  0  0  0  0  0
    5.6322  -34.2961  -13.7692 O   0  0  0  0  0  0  0  0  0  0  0  0
    9.0694  -34.1771  -14.6209 O   0  0  0  0  0  0  0  0  0  0  0  0
    5.5087  -35.9046  -15.5592 C   0  0  1  0  0  0  0  0  0  0  0  0
    9.2914  -32.8310  -12.6340 C   0  0  1  0  0  0  0  0  0  0  0  0
    4.5397  -36.5169  -16.4144 O   0  0  0  0  0  0  0  0  0  0  0  0
    9.8339  -31.5733  -12.2244 O   0  0  0  0  0  0  0  0  0  0  0  0
    6.2169  -34.8233  -16.3578 C   0  0  1  0  0  0  0  0  0  0  0  0
    7.7879  -32.6618  -12.7835 C   0  0  1  0  0  0  0  0  0  0  0  0
    7.6095  -35.1107  -16.4418 O   0  0  0  0  0  0  0  0  0  0  0  0
    7.1067  -33.5312  -11.8839 O   0  0  0  0  0  0  0  0  0  0  0  0
    5.5985  -34.8383  -17.7434 C   0  0  0  0  0  0  0  0  0  0  0  0
    7.4822  -31.2164  -12.4413 C   0  0  0  0  0  0  0  0  0  0  0  0
    4.5393  -35.9303  -17.7187 C   0  0  2  0  0  0  0  0  0  0  0  0
    8.8189  -30.5745  -12.0977 C   0  0  2  0  0  0  0  0  0  0  0  0
    0.1482  -36.2298  -20.5834 N   0  0  0  0  0  0  0  0  0  0  0  0
    1.2487  -37.0043  -20.5987 C   0  0  0  0  0  0  0  0  0  0  0  0
    2.3125  -36.8075  -19.7982 N   0  0  0  0  0  0  0  0  0  0  0  0
    2.3323  -35.7882  -18.9062 C   0  0  0  0  0  0  0  0  0  0  0  0
    1.1646  -34.8964  -18.8289 C   0  0  0  0  0  0  0  0  0  0  0  0
    0.0323  -35.1770  -19.7434 C   0  0  0  0  0  0  0  0  0  0  0  0
   -1.0811  -34.4051  -19.7368 N   0  0  0  0  0  0  0  0  0  0  0  0
    1.4404  -33.9844  -17.8778 N   0  0  0  0  0  0  0  0  0  0  0  0
    2.6752  -34.2661  -17.3888 C   0  0  0  0  0  0  0  0  0  0  0  0
    3.2068  -35.3414  -18.0015 N   0  0  0  0  0  0  0  0  0  0  0  0
    8.4534  -28.8310  -17.0373 N   0  0  0  0  0  0  0  0  0  0  0  0
    8.0613  -30.0005  -16.4988 C   0  0  0  0  0  0  0  0  0  0  0  0
    8.2202  -30.3164  -15.2009 N   0  0  0  0  0  0  0  0  0  0  0  0
    8.8015  -29.4457  -14.3407 C   0  0  0  0  0  0  0  0  0  0  0  0
    9.2571  -28.1446  -14.8540 C   0  0  0  0  0  0  0  0  0  0  0  0
    9.0464  -27.8711  -16.2952 C   0  0  0  0  0  0  0  0  0  0  0  0
    9.4363  -26.6967  -16.8493 N   0  0  0  0  0  0  0  0  0  0  0  0
    9.7877  -27.4837  -13.8078 N   0  0  0  0  0  0  0  0  0  0  0  0
    9.6817  -28.2906  -12.7209 C   0  0  0  0  0  0  0  0  0  0  0  0
    9.0945  -29.4592  -13.0381 N   0  0  0  0  0  0  0  0  0  0  0  0
  1  3  1  1  0  0  0
  1  5  2  0  0  0  0
  1  9  1  0  0  0  0
  1 18  1  0  0  0  0
  2  4  1  6  0  0  0
  2  6  2  0  0  0  0
  2 10  1  0  0  0  0
  2 17  1  0  0  0  0
  7  9  1  0  0  0  0
  8 10  1  0  0  0  0
 11  7  1  1  0  0  0
 11 13  1  0  0  0  0
 11 15  1  0  0  0  0
 12  8  1  6  0  0  0
 12 14  1  0  0  0  0
 12 16  1  0  0  0  0
 13 21  1  0  0  0  0
 14 22  1  0  0  0  0
 15 17  1  6  0  0  0
 15 19  1  0  0  0  0
 16 18  1  1  0  0  0
 16 20  1  0  0  0  0
 19 21  1  0  0  0  0
 20 22  1  0  0  0  0
 21 32  1  1  0  0  0
 22 42  1  6  0  0  0
 23 24  2  0  0  0  0
 23 28  1  0  0  0  0
 24 25  1  0  0  0  0
 25 26  2  0  0  0  0
 26 27  1  0  0  0  0
 26 32  1  0  0  0  0
 27 28  2  0  0  0  0
 27 30  1  0  0  0  0
 28 29  1  0  0  0  0
 30 31  2  0  0  0  0
 31 32  1  0  0  0  0
 33 34  2  0  0  0  0
 33 38  1  0  0  0  0
 34 35  1  0  0  0  0
 35 36  2  0  0  0  0
 36 37  1  0  0  0  0
 36 42  1  0  0  0  0
 37 38  2  0  0  0  0
 37 40  1  0  0  0  0
 38 39  1  0  0  0  0
 40 41  2  0  0  0  0
 41 42  1  0  0  0  0
M  CHG  2   3  -1   4  -1
M  END
>  <CHROM.1>
-111.82699833,80.91477383,6.28416843,-33.10880225,-15.50830990,0.02533960
0.79525863,2.26564980

>  <Name>
ligand

>  <RI>
0

>  <Rbt.Current_Directory>
/home/itssahil/PROJECTS/Mol_Feturizer/New_Systems/rnas/4QLN

>  <Rbt.Executable>
rbdock ($Id: //depot/dev/client3/rdock/2013.1/src/exe/rbdock.cxx#4 $)

>  <Rbt.Library>
libRbt.so (2013.1, Build901 2013/11/27)

>  <Rbt.Parameter_File>
/export/apps/rDock/src/rDock_2013.1_src/data/scripts/dock_solv.prm

>  <Rbt.Receptor>
prm/pocket_docking_5.prm

>  <SCORE>
-27.5618

>  <SCORE.INTER>
-29.2973

>  <SCORE.INTER.CONST>
1

>  <SCORE.INTER.POLAR>
0

>  <SCORE.INTER.ROT>
2

>  <SCORE.INTER.SOLV>
34.3265

>  <SCORE.INTER.VDW>
-35.907

>  <SCORE.INTER.norm>
-0.697554

>  <SCORE.INTRA>
1.73548

>  <SCORE.INTRA.DIHEDRAL>
0.00070963

>  <SCORE.INTRA.DIHEDRAL.0>
2.39985

>  <SCORE.INTRA.POLAR>
0

>  <SCORE.INTRA.POLAR.0>
0

>  <SCORE.INTRA.REPUL>
0

>  <SCORE.INTRA.REPUL.0>
0

>  <SCORE.INTRA.SOLV>
0.964204

>  <SCORE.INTRA.SOLV.lig_0>
-110.958

>  <SCORE.INTRA.VDW>
1.25303

>  <SCORE.INTRA.VDW.0>
-2.34644

>  <SCORE.INTRA.norm>
0.041321

>  <SCORE.RESTR>
0

>  <SCORE.RESTR.CAVITY>
0

>  <SCORE.RESTR.norm>
0

>  <SCORE.SYSTEM>
0

>  <SCORE.SYSTEM.CONST>
0

>  <SCORE.SYSTEM.DIHEDRAL>
0

>  <SCORE.SYSTEM.SOLV>
0

>  <SCORE.SYSTEM.norm>
0

>  <SCORE.heavy>
42

>  <SCORE.norm>
-0.656233

>  <RMSD>
2.238

$$$$
ligand
 OpenBabel11021811513D
libRbt.so/2013.1/901 2013/11/27
 42 48  0  0  0  0  0  0  0  0999 V2000
    9.0034  -34.8147  -16.2330 P   0  0  2  0  0  0  0  0  0  0  0  0
    5.3223  -33.9314  -12.8888 P   0  0  1  0  0  0  0  0  0  0  0  0
   10.2891  -35.4439  -15.7490 O   0  5  0  0  0  0  0  0  0  0  0  0
    4.8578  -33.1133  -14.0701 O   0  5  0  0  0  0  0  0  0  0  0  0
    8.9526  -34.1541  -17.5899 O   0  0  0  0  0  0  0  0  0  0  0  0
    4.3823  -34.1936  -11.7368 O   0  0  0  0  0  0  0  0  0  0  0  0
    9.4779  -33.0049  -14.3738 C   0  0  0  0  0  0  0  0  0  0  0  0
    4.9877  -36.2211  -14.1533 C   0  0  0  0  0  0  0  0  0  0  0  0
    8.5218  -33.7434  -15.1324 O   0  0  0  0  0  0  0  0  0  0  0  0
    5.8572  -35.3482  -13.4358 O   0  0  0  0  0  0  0  0  0  0  0  0
    8.8974  -32.6815  -13.0023 C   0  0  1  0  0  0  0  0  0  0  0  0
    5.6654  -36.6710  -15.4415 C   0  0  1  0  0  0  0  0  0  0  0  0
    9.5703  -31.5470  -12.4494 O   0  0  0  0  0  0  0  0  0  0  0  0
    4.6761  -37.0717  -16.3925 O   0  0  0  0  0  0  0  0  0  0  0  0
    7.4186  -32.3454  -13.0954 C   0  0  1  0  0  0  0  0  0  0  0  0
    6.4761  -35.5440  -16.0613 C   0  0  1  0  0  0  0  0  0  0  0  0
    6.6602  -33.2533  -12.3022 O   0  0  0  0  0  0  0  0  0  0  0  0
    7.8433  -35.9287  -16.1705 O   0  0  0  0  0  0  0  0  0  0  0  0
    7.2646  -30.9338  -12.5606 C   0  0  0  0  0  0  0  0  0  0  0  0
    5.8921  -35.3027  -17.4399 C   0  0  0  0  0  0  0  0  0  0  0  0
    8.6624  -30.4782  -12.1690 C   0  0  2  0  0  0  0  0  0  0  0  0
    4.7515  -36.2988  -17.5930 C   0  0  2  0  0  0  0  0  0  0  0  0
    8.9090  -28.2973  -16.9399 N   0  0  0  0  0  0  0  0  0  0  0  0
    8.4700  -29.5124  -16.5629 C   0  0  0  0  0  0  0  0  0  0  0  0
    8.4657  -29.9433  -15.2879 N   0  0  0  0  0  0  0  0  0  0  0  0
    8.9164  -29.1519  -14.2851 C   0  0  0  0  0  0  0  0  0  0  0  0
    9.4130  -27.8073  -14.6171 C   0  0  0  0  0  0  0  0  0  0  0  0
    9.3864  -27.4051  -16.0435 C   0  0  0  0  0  0  0  0  0  0  0  0
    9.8248  -26.1845  -16.4353 N   0  0  0  0  0  0  0  0  0  0  0  0
    9.7940  -27.2414  -13.4566 N   0  0  0  0  0  0  0  0  0  0  0  0
    9.5625  -28.1428  -12.4682 C   0  0  0  0  0  0  0  0  0  0  0  0
    9.0391  -29.2816  -12.9618 N   0  0  0  0  0  0  0  0  0  0  0  0
    0.3082  -35.9655  -20.3711 N   0  0  0  0  0  0  0  0  0  0  0  0
    1.3309  -36.8347  -20.4713 C   0  0  0  0  0  0  0  0  0  0  0  0
    2.4202  -36.8012  -19.6828 N   0  0  0  0  0  0  0  0  0  0  0  0
    2.5486  -35.8609  -18.7157 C   0  0  0  0  0  0  0  0  0  0  0  0
    1.4711  -34.8743  -18.5434 C   0  0  0  0  0  0  0  0  0  0  0  0
    0.3038  -34.9773  -19.4507 C   0  0  0  0  0  0  0  0  0  0  0  0
   -0.7328  -34.1083  -19.3592 N   0  0  0  0  0  0  0  0  0  0  0  0
    1.8457  -34.0698  -17.5308 N   0  0  0  0  0  0  0  0  0  0  0  0
    3.0562  -34.5029  -17.0937 C   0  0  0  0  0  0  0  0  0  0  0  0
    3.4749  -35.5695  -17.7994 N   0  0  0  0  0  0  0  0  0  0  0  0
  1  3  1  1  0  0  0
  1  5  2  0  0  0  0
  1  9  1  0  0  0  0
  1 18  1  0  0  0  0
  2  4  1  6  0  0  0
  2  6  2  0  0  0  0
  2 10  1  0  0  0  0
  2 17  1  0  0  0  0
  7  9  1  0  0  0  0
  8 10  1  0  0  0  0
 11  7  1  6  0  0  0
 11 13  1  0  0  0  0
 11 15  1  0  0  0  0
 12  8  1  1  0  0  0
 12 14  1  0  0  0  0
 12 16  1  0  0  0  0
 13 21  1  0  0  0  0
 14 22  1  0  0  0  0
 15 17  1  1  0  0  0
 15 19  1  0  0  0  0
 16 18  1  6  0  0  0
 16 20  1  0  0  0  0
 19 21  1  0  0  0  0
 20 22  1  0  0  0  0
 21 32  1  6  0  0  0
 22 42  1  1  0  0  0
 23 24  2  0  0  0  0
 23 28  1  0  0  0  0
 24 25  1  0  0  0  0
 25 26  2  0  0  0  0
 26 27  1  0  0  0  0
 26 32  1  0  0  0  0
 27 28  2  0  0  0  0
 27 30  1  0  0  0  0
 28 29  1  0  0  0  0
 30 31  2  0  0  0  0
 31 32  1  0  0  0  0
 33 34  2  0  0  0  0
 33 38  1  0  0  0  0
 34 35  1  0  0  0  0
 35 36  2  0  0  0  0
 36 37  1  0  0  0  0
 36 42  1  0  0  0  0
 37 38  2  0  0  0  0
 37 40  1  0  0  0  0
 38 39  1  0  0  0  0
 40 41  2  0  0  0  0
 41 42  1  0  0  0  0
M  CHG  2   3  -1   4  -1
M  END
>  <CHROM.1>
70.09489253,-107.10292011,6.36560585,-33.20417627,-15.54380386,-0.41462123
0.74926129,2.74252745

>  <Name>
ligand

>  <RI>
0

>  <Rbt.Current_Directory>
/home/itssahil/PROJECTS/Mol_Feturizer/New_Systems/rnas/4QLN

>  <Rbt.Executable>
rbdock ($Id: //depot/dev/client3/rdock/2013.1/src/exe/rbdock.cxx#4 $)

>  <Rbt.Library>
libRbt.so (2013.1, Build901 2013/11/27)

>  <Rbt.Parameter_File>
/export/apps/rDock/src/rDock_2013.1_src/data/scripts/dock_solv.prm

>  <Rbt.Receptor>
prm/pocket_docking_6.prm

>  <SCORE>
-32.3072

>  <SCORE.INTER>
-32.6633

>  <SCORE.INTER.CONST>
1

>  <SCORE.INTER.POLAR>
0

>  <SCORE.INTER.ROT>
2

>  <SCORE.INTER.SOLV>
31.291

>  <SCORE.INTER.VDW>
-37.1392

>  <SCORE.INTER.norm>
-0.777697

>  <SCORE.INTRA>
0.356017

>  <SCORE.INTRA.DIHEDRAL>
-0.000188725

>  <SCORE.INTRA.DIHEDRAL.0>
2.39985

>  <SCORE.INTRA.POLAR>
0

>  <SCORE.INTRA.POLAR.0>
0

>  <SCORE.INTRA.REPUL>
0

>  <SCORE.INTRA.REPUL.0>
0

>  <SCORE.INTRA.SOLV>
-0.00933011

>  <SCORE.INTRA.SOLV.lig_0>
-110.958

>  <SCORE.INTRA.VDW>
0.360776

>  <SCORE.INTRA.VDW.0>
-2.34644

>  <SCORE.INTRA.norm>
0.0084766

>  <SCORE.RESTR>
0

>  <SCORE.RESTR.CAVITY>
0

>  <SCORE.RESTR.norm>
0

>  <SCORE.SYSTEM>
0

>  <SCORE.SYSTEM.CONST>
0

>  <SCORE.SYSTEM.DIHEDRAL>
0

>  <SCORE.SYSTEM.SOLV>
0

>  <SCORE.SYSTEM.norm>
0

>  <SCORE.heavy>
42

>  <SCORE.norm>
-0.76922

>  <RMSD>
2.247

$$$$
ligand
 OpenBabel11021811513D
libRbt.so/2013.1/901 2013/11/27
 42 48  0  0  0  0  0  0  0  0999 V2000
    9.0936  -34.7735  -16.3351 P   0  0  2  0  0  0  0  0  0  0  0  0
    5.4368  -34.0184  -12.9334 P   0  0  1  0  0  0  0  0  0  0  0  0
   10.3953  -35.3895  -15.8779 O   0  5  0  0  0  0  0  0  0  0  0  0
    4.9447  -33.1860  -14.0933 O   0  5  0  0  0  0  0  0  0  0  0  0
    9.0158  -34.0881  -17.6783 O   0  0  0  0  0  0  0  0  0  0  0  0
    4.5148  -34.3189  -11.7762 O   0  0  0  0  0  0  0  0  0  0  0  0
    9.5585  -32.9917  -14.4467 C   0  0  0  0  0  0  0  0  0  0  0  0
    5.1269  -36.2889  -14.2381 C   0  0  0  0  0  0  0  0  0  0  0  0
    8.6065  -33.7320  -15.2087 O   0  0  0  0  0  0  0  0  0  0  0  0
    5.9895  -35.4150  -13.5137 O   0  0  0  0  0  0  0  0  0  0  0  0
    8.9884  -32.7047  -13.0628 C   0  0  1  0  0  0  0  0  0  0  0  0
    5.7972  -36.7022  -15.5423 C   0  0  1  0  0  0  0  0  0  0  0  0
    9.6481  -31.5695  -12.4956 O   0  0  0  0  0  0  0  0  0  0  0  0
    4.8040  -37.1018  -16.4897 O   0  0  0  0  0  0  0  0  0  0  0  0
    7.5031  -32.3926  -13.1328 C   0  0  1  0  0  0  0  0  0  0  0  0
    6.5813  -35.5497  -16.1493 C   0  0  1  0  0  0  0  0  0  0  0  0
    6.7696  -33.3286  -12.3488 O   0  0  0  0  0  0  0  0  0  0  0  0
    7.9535  -35.9085  -16.2812 O   0  0  0  0  0  0  0  0  0  0  0  0
    7.3311  -30.9944  -12.5691 C   0  0  0  0  0  0  0  0  0  0  0  0
    5.9774  -35.2922  -17.5163 C   0  0  0  0  0  0  0  0  0  0  0  0
    8.7254  -30.5222  -12.1844 C   0  0  2  0  0  0  0  0  0  0  0  0
    4.8523  -36.3048  -17.6758 C   0  0  2  0  0  0  0  0  0  0  0  0
    8.8945  -28.2521  -16.9170 N   0  0  0  0  0  0  0  0  0  0  0  0
    8.4827  -29.4824  -16.5589 C   0  0  0  0  0  0  0  0  0  0  0  0
    8.4961  -29.9359  -15.2919 N   0  0  0  0  0  0  0  0  0  0  0  0
    8.9377  -29.1536  -14.2781 C   0  0  0  0  0  0  0  0  0  0  0  0
    9.4049  -27.7935  -14.5892 C   0  0  0  0  0  0  0  0  0  0  0  0
    9.3602  -27.3666  -16.0079 C   0  0  0  0  0  0  0  0  0  0  0  0
    9.7711  -26.1305  -16.3807 N   0  0  0  0  0  0  0  0  0  0  0  0
    9.7825  -27.2407  -13.4212 N   0  0  0  0  0  0  0  0  0  0  0  0
    9.5761  -28.1641  -12.4476 C   0  0  0  0  0  0  0  0  0  0  0  0
    9.0724  -29.3043  -12.9581 N   0  0  0  0  0  0  0  0  0  0  0  0
    0.3248  -36.0633  -20.3244 N   0  0  0  0  0  0  0  0  0  0  0  0
    1.3549  -36.9213  -20.4436 C   0  0  0  0  0  0  0  0  0  0  0  0
    2.4666  -36.8639  -19.6884 N   0  0  0  0  0  0  0  0  0  0  0  0
    2.6118  -35.9091  -18.7380 C   0  0  0  0  0  0  0  0  0  0  0  0
    1.5276  -34.9333  -18.5468 C   0  0  0  0  0  0  0  0  0  0  0  0
    0.3353  -35.0628  -19.4175 C   0  0  0  0  0  0  0  0  0  0  0  0
   -0.7089  -34.2053  -19.3067 N   0  0  0  0  0  0  0  0  0  0  0  0
    1.9219  -34.1107  -17.5565 N   0  0  0  0  0  0  0  0  0  0  0  0
    3.1501  -34.5231  -17.1500 C   0  0  0  0  0  0  0  0  0  0  0  0
    3.5611  -35.5940  -17.8537 N   0  0  0  0  0  0  0  0  0  0  0  0
  1  3  1  1  0  0  0
  1  5  2  0  0  0  0
  1  9  1  0  0  0  0
  1 18  1  0  0  0  0
  2  4  1  6  0  0  0
  2  6  2  0  0  0  0
  2 10  1  0  0  0  0
  2 17  1  0  0  0  0
  7  9  1  0  0  0  0
  8 10  1  0  0  0  0
 11  7  1  6  0  0  0
 11 13  1  0  0  0  0
 11 15  1  0  0  0  0
 12  8  1  1  0  0  0
 12 14  1  0  0  0  0
 12 16  1  0  0  0  0
 13 21  1  0  0  0  0
 14 22  1  0  0  0  0
 15 17  1  1  0  0  0
 15 19  1  0  0  0  0
 16 18  1  6  0  0  0
 16 20  1  0  0  0  0
 19 21  1  0  0  0  0
 20 22  1  0  0  0  0
 21 32  1  6  0  0  0
 22 42  1  1  0  0  0
 23 24  2  0  0  0  0
 23 28  1  0  0  0  0
 24 25  1  0  0  0  0
 25 26  2  0  0  0  0
 26 27  1  0  0  0  0
 26 32  1  0  0  0  0
 27 28  2  0  0  0  0
 27 30  1  0  0  0  0
 28 29  1  0  0  0  0
 30 31  2  0  0  0  0
 31 32  1  0  0  0  0
 33 34  2  0  0  0  0
 33 38  1  0  0  0  0
 34 35  1  0  0  0  0
 35 36  2  0  0  0  0
 36 37  1  0  0  0  0
 36 42  1  0  0  0  0
 37 38  2  0  0  0  0
 37 40  1  0  0  0  0
 38 39  1  0  0  0  0
 40 41  2  0  0  0  0
 41 42  1  0  0  0  0
M  CHG  2   3  -1   4  -1
M  END
>  <CHROM.1>
69.77447561,-104.93747153,6.43409815,-33.22851654,-15.57958826,-0.45016204
0.73910472,2.78762336

>  <Name>
ligand

>  <RI>
0

>  <Rbt.Current_Directory>
/home/itssahil/PROJECTS/Mol_Feturizer/New_Systems/rnas/4QLN

>  <Rbt.Executable>
rbdock ($Id: //depot/dev/client3/rdock/2013.1/src/exe/rbdock.cxx#4 $)

>  <Rbt.Library>
libRbt.so (2013.1, Build901 2013/11/27)

>  <Rbt.Parameter_File>
/export/apps/rDock/src/rDock_2013.1_src/data/scripts/dock_solv.prm

>  <Rbt.Receptor>
prm/pocket_docking_5.prm

>  <SCORE>
-32.4702

>  <SCORE.INTER>
-32.86

>  <SCORE.INTER.CONST>
1

>  <SCORE.INTER.POLAR>
0

>  <SCORE.INTER.ROT>
2

>  <SCORE.INTER.SOLV>
31.2145

>  <SCORE.INTER.VDW>
-37.2448

>  <SCORE.INTER.norm>
-0.782381

>  <SCORE.INTRA>
0.389839

>  <SCORE.INTRA.DIHEDRAL>
-0.000256001

>  <SCORE.INTRA.DIHEDRAL.0>
2.39985

>  <SCORE.INTRA.POLAR>
0

>  <SCORE.INTRA.POLAR.0>
0

>  <SCORE.INTRA.REPUL>
0

>  <SCORE.INTRA.REPUL.0>
0

>  <SCORE.INTRA.SOLV>
-0.0105887

>  <SCORE.INTRA.SOLV.lig_0>
-110.958

>  <SCORE.INTRA.VDW>
0.395261

>  <SCORE.INTRA.VDW.0>
-2.34644

>  <SCORE.INTRA.norm>
0.00928188

>  <SCORE.RESTR>
0

>  <SCORE.RESTR.CAVITY>
0

>  <SCORE.RESTR.norm>
0

>  <SCORE.SYSTEM>
0

>  <SCORE.SYSTEM.CONST>
0

>  <SCORE.SYSTEM.DIHEDRAL>
0

>  <SCORE.SYSTEM.SOLV>
0

>  <SCORE.SYSTEM.norm>
0

>  <SCORE.heavy>
42

>  <SCORE.norm>
-0.773099

>  <RMSD>
2.261

$$$$
ligand
 OpenBabel11021811513D
libRbt.so/2013.1/901 2013/11/27
 42 48  0  0  0  0  0  0  0  0999 V2000
    9.1028  -34.7676  -16.3442 P   0  0  2  0  0  0  0  0  0  0  0  0
    5.4418  -34.0207  -12.9452 P   0  0  1  0  0  0  0  0  0  0  0  0
   10.4048  -35.3827  -15.8864 O   0  5  0  0  0  0  0  0  0  0  0  0
    4.9499  -33.1875  -14.1047 O   0  5  0  0  0  0  0  0  0  0  0  0
    9.0256  -34.0807  -17.6867 O   0  0  0  0  0  0  0  0  0  0  0  0
    4.5190  -34.3235  -11.7893 O   0  0  0  0  0  0  0  0  0  0  0  0
    9.5638  -32.9875  -14.4533 C   0  0  0  0  0  0  0  0  0  0  0  0
    5.1357  -36.2900  -14.2529 C   0  0  0  0  0  0  0  0  0  0  0  0
    8.6133  -33.7280  -15.2171 O   0  0  0  0  0  0  0  0  0  0  0  0
    5.9966  -35.4159  -13.5266 O   0  0  0  0  0  0  0  0  0  0  0  0
    8.9920  -32.7028  -13.0696 C   0  0  1  0  0  0  0  0  0  0  0  0
    5.8078  -36.7010  -15.5568 C   0  0  1  0  0  0  0  0  0  0  0  0
    9.6499  -31.5675  -12.5004 O   0  0  0  0  0  0  0  0  0  0  0  0
    4.8160  -37.1006  -16.5058 O   0  0  0  0  0  0  0  0  0  0  0  0
    7.5064  -32.3923  -13.1407 C   0  0  1  0  0  0  0  0  0  0  0  0
    6.5912  -35.5469  -16.1618 C   0  0  1  0  0  0  0  0  0  0  0  0
    6.7732  -33.3300  -12.3585 O   0  0  0  0  0  0  0  0  0  0  0  0
    7.9639  -35.9040  -16.2928 O   0  0  0  0  0  0  0  0  0  0  0  0
    7.3323  -30.9949  -12.5755 C   0  0  0  0  0  0  0  0  0  0  0  0
    5.9883  -35.2885  -17.5290 C   0  0  0  0  0  0  0  0  0  0  0  0
    8.7256  -30.5216  -12.1890 C   0  0  2  0  0  0  0  0  0  0  0  0
    4.8645  -36.3022  -17.6908 C   0  0  2  0  0  0  0  0  0  0  0  0
    8.8945  -28.2450  -16.9183 N   0  0  0  0  0  0  0  0  0  0  0  0
    8.4834  -29.4760  -16.5621 C   0  0  0  0  0  0  0  0  0  0  0  0
    8.4968  -29.9312  -15.2957 N   0  0  0  0  0  0  0  0  0  0  0  0
    8.9376  -29.1500  -14.2807 C   0  0  0  0  0  0  0  0  0  0  0  0
    9.4039  -27.7891  -14.5898 C   0  0  0  0  0  0  0  0  0  0  0  0
    9.3593  -27.3603  -16.0079 C   0  0  0  0  0  0  0  0  0  0  0  0
    9.7695  -26.1235  -16.3789 N   0  0  0  0  0  0  0  0  0  0  0  0
    9.7808  -27.2377  -13.4210 N   0  0  0  0  0  0  0  0  0  0  0  0
    9.5748  -28.1626  -12.4487 C   0  0  0  0  0  0  0  0  0  0  0  0
    9.0720  -29.3024  -12.9609 N   0  0  0  0  0  0  0  0  0  0  0  0
    0.3276  -36.0794  -20.3251 N   0  0  0  0  0  0  0  0  0  0  0  0
    1.3573  -36.9382  -20.4418 C   0  0  0  0  0  0  0  0  0  0  0  0
    2.4717  -36.8755  -19.6910 N   0  0  0  0  0  0  0  0  0  0  0  0
    2.6202  -35.9139  -18.7479 C   0  0  0  0  0  0  0  0  0  0  0  0
    1.5367  -34.9368  -18.5598 C   0  0  0  0  0  0  0  0  0  0  0  0
    0.3414  -35.0725  -19.4253 C   0  0  0  0  0  0  0  0  0  0  0  0
   -0.7025  -34.2142  -19.3168 N   0  0  0  0  0  0  0  0  0  0  0  0
    1.9345  -34.1072  -17.5767 N   0  0  0  0  0  0  0  0  0  0  0  0
    3.1642  -34.5168  -17.1716 C   0  0  0  0  0  0  0  0  0  0  0  0
    3.5727  -35.5926  -17.8692 N   0  0  0  0  0  0  0  0  0  0  0  0
  1  3  1  1  0  0  0
  1  5  2  0  0  0  0
  1  9  1  0  0  0  0
  1 18  1  0  0  0  0
  2  4  1  6  0  0  0
  2  6  2  0  0  0  0
  2 10  1  0  0  0  0
  2 17  1  0  0  0  0
  7  9  1  0  0  0  0
  8 10  1  0  0  0  0
 11  7  1  6  0  0  0
 11 13  1  0  0  0  0
 11 15  1  0  0  0  0
 12  8  1  1  0  0  0
 12 14  1  0  0  0  0
 12 16  1  0  0  0  0
 13 21  1  0  0  0  0
 14 22  1  0  0  0  0
 15 17  1  1  0  0  0
 15 19  1  0  0  0  0
 16 18  1  6  0  0  0
 16 20  1  0  0  0  0
 19 21  1  0  0  0  0
 20 22  1  0  0  0  0
 21 32  1  6  0  0  0
 22 42  1  1  0  0  0
 23 24  2  0  0  0  0
 23 28  1  0  0  0  0
 24 25  1  0  0  0  0
 25 26  2  0  0  0  0
 26 27  1  0  0  0  0
 26 32  1  0  0  0  0
 27 28  2  0  0  0  0
 27 30  1  0  0  0  0
 28 29  1  0  0  0  0
 30 31  2  0  0  0  0
 31 32  1  0  0  0  0
 33 34  2  0  0  0  0
 33 38  1  0  0  0  0
 34 35  1  0  0  0  0
 35 36  2  0  0  0  0
 36 37  1  0  0  0  0
 36 42  1  0  0  0  0
 37 38  2  0  0  0  0
 37 40  1  0  0  0  0
 38 39  1  0  0  0  0
 40 41  2  0  0  0  0
 41 42  1  0  0  0  0
M  CHG  2   3  -1   4  -1
M  END
>  <CHROM.1>
69.82412773,-104.39595856,6.43961570,-33.22785121,-15.58796436,-0.45384809
0.73868006,2.79223261

>  <Name>
ligand

>  <RI>
0

>  <Rbt.Current_Directory>
/home/itssahil/PROJECTS/Mol_Feturizer/New_Systems/rnas/4QLN

>  <Rbt.Executable>
rbdock ($Id: //depot/dev/client3/rdock/2013.1/src/exe/rbdock.cxx#4 $)

>  <Rbt.Library>
libRbt.so (2013.1, Build901 2013/11/27)

>  <Rbt.Parameter_File>
/export/apps/rDock/src/rDock_2013.1_src/data/scripts/dock_solv.prm

>  <Rbt.Receptor>
prm/pocket_docking_3.prm

>  <SCORE>
-32.4839

>  <SCORE.INTER>
-32.8864

>  <SCORE.INTER.CONST>
1

>  <SCORE.INTER.POLAR>
0

>  <SCORE.INTER.ROT>
2

>  <SCORE.INTER.SOLV>
31.2297

>  <SCORE.INTER.VDW>
-37.2675

>  <SCORE.INTER.norm>
-0.78301

>  <SCORE.INTRA>
0.40253

>  <SCORE.INTRA.DIHEDRAL>
-0.000270239

>  <SCORE.INTRA.DIHEDRAL.0>
2.39985

>  <SCORE.INTRA.POLAR>
0

>  <SCORE.INTRA.POLAR.0>
0

>  <SCORE.INTRA.REPUL>
0

>  <SCORE.INTRA.REPUL.0>
0

>  <SCORE.INTRA.SOLV>
-0.0111081

>  <SCORE.INTRA.SOLV.lig_0>
-110.958

>  <SCORE.INTRA.VDW>
0.408219

>  <SCORE.INTRA.VDW.0>
-2.34644

>  <SCORE.INTRA.norm>
0.00958404

>  <SCORE.RESTR>
0

>  <SCORE.RESTR.CAVITY>
0

>  <SCORE.RESTR.norm>
0

>  <SCORE.SYSTEM>
0

>  <SCORE.SYSTEM.CONST>
0

>  <SCORE.SYSTEM.DIHEDRAL>
0

>  <SCORE.SYSTEM.SOLV>
0

>  <SCORE.SYSTEM.norm>
0

>  <SCORE.heavy>
42

>  <SCORE.norm>
-0.773426

>  <RMSD>
2.264

$$$$
ligand
 OpenBabel11021811513D
libRbt.so/2013.1/901 2013/11/27
 42 48  0  0  0  0  0  0  0  0999 V2000
    8.9537  -34.6585  -16.4273 P   0  0  2  0  0  0  0  0  0  0  0  0
    5.3917  -33.9106  -12.9249 P   0  0  1  0  0  0  0  0  0  0  0  0
   10.2563  -35.3021  -16.0128 O   0  5  0  0  0  0  0  0  0  0  0  0
    4.8848  -33.0500  -14.0575 O   0  5  0  0  0  0  0  0  0  0  0  0
    8.8542  -33.9477  -17.7558 O   0  0  0  0  0  0  0  0  0  0  0  0
    4.4932  -34.2182  -11.7512 O   0  0  0  0  0  0  0  0  0  0  0  0
    9.4912  -32.9185  -14.5193 C   0  0  0  0  0  0  0  0  0  0  0  0
    5.0155  -36.1521  -14.2619 C   0  0  0  0  0  0  0  0  0  0  0  0
    8.5098  -33.6304  -15.2710 O   0  0  0  0  0  0  0  0  0  0  0  0
    5.9086  -35.3045  -13.5432 O   0  0  0  0  0  0  0  0  0  0  0  0
    8.9590  -32.6481  -13.1171 C   0  0  1  0  0  0  0  0  0  0  0  0
    5.6479  -36.5517  -15.5891 C   0  0  1  0  0  0  0  0  0  0  0  0
    9.6496  -31.5335  -12.5459 O   0  0  0  0  0  0  0  0  0  0  0  0
    4.6262  -36.9190  -16.5191 O   0  0  0  0  0  0  0  0  0  0  0  0
    7.4774  -32.3126  -13.1454 C   0  0  1  0  0  0  0  0  0  0  0  0
    6.4349  -35.4002  -16.1943 C   0  0  1  0  0  0  0  0  0  0  0  0
    6.7486  -33.2516  -12.3606 O   0  0  0  0  0  0  0  0  0  0  0  0
    7.7978  -35.7770  -16.3659 O   0  0  0  0  0  0  0  0  0  0  0  0
    7.3406  -30.9224  -12.5529 C   0  0  0  0  0  0  0  0  0  0  0  0
    5.8023  -35.1089  -17.5415 C   0  0  0  0  0  0  0  0  0  0  0  0
    8.7508  -30.4782  -12.1939 C   0  0  2  0  0  0  0  0  0  0  0  0
    4.6582  -36.1015  -17.6916 C   0  0  2  0  0  0  0  0  0  0  0  0
    8.9992  -28.1847  -16.9115 N   0  0  0  0  0  0  0  0  0  0  0  0
    8.5975  -29.4225  -16.5685 C   0  0  0  0  0  0  0  0  0  0  0  0
    8.5873  -29.8815  -15.3035 N   0  0  0  0  0  0  0  0  0  0  0  0
    8.9927  -29.0972  -14.2761 C   0  0  0  0  0  0  0  0  0  0  0  0
    9.4466  -27.7289  -14.5703 C   0  0  0  0  0  0  0  0  0  0  0  0
    9.4295  -27.2964  -15.9879 C   0  0  0  0  0  0  0  0  0  0  0  0
    9.8307  -26.0527  -16.3456 N   0  0  0  0  0  0  0  0  0  0  0  0
    9.7878  -27.1758  -13.3913 N   0  0  0  0  0  0  0  0  0  0  0  0
    9.5720  -28.1066  -12.4268 C   0  0  0  0  0  0  0  0  0  0  0  0
    9.0979  -29.2518  -12.9540 N   0  0  0  0  0  0  0  0  0  0  0  0
    0.1027  -35.7001  -20.2719 N   0  0  0  0  0  0  0  0  0  0  0  0
    1.1201  -36.5655  -20.4373 C   0  0  0  0  0  0  0  0  0  0  0  0
    2.2415  -36.5515  -19.6945 N   0  0  0  0  0  0  0  0  0  0  0  0
    2.4104  -35.6365  -18.7095 C   0  0  0  0  0  0  0  0  0  0  0  0
    1.3413  -34.6556  -18.4667 C   0  0  0  0  0  0  0  0  0  0  0  0
    0.1370  -34.7361  -19.3268 C   0  0  0  0  0  0  0  0  0  0  0  0
   -0.8947  -33.8707  -19.1695 N   0  0  0  0  0  0  0  0  0  0  0  0
    1.7580  -33.8775  -17.4501 N   0  0  0  0  0  0  0  0  0  0  0  0
    2.9856  -34.3207  -17.0753 C   0  0  0  0  0  0  0  0  0  0  0  0
    3.3743  -35.3682  -17.8254 N   0  0  0  0  0  0  0  0  0  0  0  0
  1  3  1  1  0  0  0
  1  5  2  0  0  0  0
  1  9  1  0  0  0  0
  1 18  1  0  0  0  0
  2  4  1  6  0  0  0
  2  6  2  0  0  0  0
  2 10  1  0  0  0  0
  2 17  1  0  0  0  0
  7  9  1  0  0  0  0
  8 10  1  0  0  0  0
 11  7  1  6  0  0  0
 11 13  1  0  0  0  0
 11 15  1  0  0  0  0
 12  8  1  1  0  0  0
 12 14  1  0  0  0  0
 12 16  1  0  0  0  0
 13 21  1  0  0  0  0
 14 22  1  0  0  0  0
 15 17  1  1  0  0  0
 15 19  1  0  0  0  0
 16 18  1  6  0  0  0
 16 20  1  0  0  0  0
 19 21  1  0  0  0  0
 20 22  1  0  0  0  0
 21 32  1  6  0  0  0
 22 42  1  1  0  0  0
 23 24  2  0  0  0  0
 23 28  1  0  0  0  0
 24 25  1  0  0  0  0
 25 26  2  0  0  0  0
 26 27  1  0  0  0  0
 26 32  1  0  0  0  0
 27 28  2  0  0  0  0
 27 30  1  0  0  0  0
 28 29  1  0  0  0  0
 30 31  2  0  0  0  0
 31 32  1  0  0  0  0
 33 34  2  0  0  0  0
 33 38  1  0  0  0  0
 34 35  1  0  0  0  0
 35 36  2  0  0  0  0
 36 37  1  0  0  0  0
 36 42  1  0  0  0  0
 37 38  2  0  0  0  0
 37 40  1  0  0  0  0
 38 39  1  0  0  0  0
 40 41  2  0  0  0  0
 41 42  1  0  0  0  0
M  CHG  2   3  -1   4  -1
M  END
>  <CHROM.1>
66.42437040,-106.33564384,6.35263468,-33.08906568,-15.58582220,-0.41862798
0.72010881,2.76896643

>  <Name>
ligand

>  <RI>
0

>  <Rbt.Current_Directory>
/home/itssahil/PROJECTS/Mol_Feturizer/New_Systems/rnas/4QLN

>  <Rbt.Executable>
rbdock ($Id: //depot/dev/client3/rdock/2013.1/src/exe/rbdock.cxx#4 $)

>  <Rbt.Library>
libRbt.so (2013.1, Build901 2013/11/27)

>  <Rbt.Parameter_File>
/export/apps/rDock/src/rDock_2013.1_src/data/scripts/dock_solv.prm

>  <Rbt.Receptor>
prm/pocket_docking_5.prm

>  <SCORE>
-32.3154

>  <SCORE.INTER>
-32.5757

>  <SCORE.INTER.CONST>
1

>  <SCORE.INTER.POLAR>
0

>  <SCORE.INTER.ROT>
2

>  <SCORE.INTER.SOLV>
32.8915

>  <SCORE.INTER.VDW>
-37.6143

>  <SCORE.INTER.norm>
-0.775613

>  <SCORE.INTRA>
0.260318

>  <SCORE.INTRA.DIHEDRAL>
-0.000257533

>  <SCORE.INTRA.DIHEDRAL.0>
2.39985

>  <SCORE.INTRA.POLAR>
0

>  <SCORE.INTRA.POLAR.0>
0

>  <SCORE.INTRA.REPUL>
0

>  <SCORE.INTRA.REPUL.0>
0

>  <SCORE.INTRA.SOLV>
-0.00640818

>  <SCORE.INTRA.SOLV.lig_0>
-110.958

>  <SCORE.INTRA.VDW>
0.26365

>  <SCORE.INTRA.VDW.0>
-2.34644

>  <SCORE.INTRA.norm>
0.00619804

>  <SCORE.RESTR>
0

>  <SCORE.RESTR.CAVITY>
0

>  <SCORE.RESTR.norm>
0

>  <SCORE.SYSTEM>
0

>  <SCORE.SYSTEM.CONST>
0

>  <SCORE.SYSTEM.DIHEDRAL>
0

>  <SCORE.SYSTEM.SOLV>
0

>  <SCORE.SYSTEM.norm>
0

>  <SCORE.heavy>
42

>  <SCORE.norm>
-0.769415

>  <RMSD>
2.266

$$$$
ligand
 OpenBabel11021811513D
libRbt.so/2013.1/901 2013/11/27
 42 48  0  0  0  0  0  0  0  0999 V2000
    9.1130  -34.7604  -16.3330 P   0  0  2  0  0  0  0  0  0  0  0  0
    5.4525  -34.0067  -12.9349 P   0  0  1  0  0  0  0  0  0  0  0  0
   10.4147  -35.3753  -15.8743 O   0  5  0  0  0  0  0  0  0  0  0  0
    4.9609  -33.1751  -14.0955 O   0  5  0  0  0  0  0  0  0  0  0  0
    9.0360  -34.0754  -17.6765 O   0  0  0  0  0  0  0  0  0  0  0  0
    4.5297  -34.3075  -11.7784 O   0  0  0  0  0  0  0  0  0  0  0  0
    9.5749  -32.9777  -14.4447 C   0  0  0  0  0  0  0  0  0  0  0  0
    5.1453  -36.2778  -14.2391 C   0  0  0  0  0  0  0  0  0  0  0  0
    8.6241  -33.7188  -15.2073 O   0  0  0  0  0  0  0  0  0  0  0  0
    6.0067  -35.4031  -13.5142 O   0  0  0  0  0  0  0  0  0  0  0  0
    9.0034  -32.6906  -13.0614 C   0  0  1  0  0  0  0  0  0  0  0  0
    5.8172  -36.6911  -15.5425 C   0  0  1  0  0  0  0  0  0  0  0  0
    9.6617  -31.5548  -12.4940 O   0  0  0  0  0  0  0  0  0  0  0  0
    4.8251  -37.0917  -16.4908 O   0  0  0  0  0  0  0  0  0  0  0  0
    7.5179  -32.3796  -13.1329 C   0  0  1  0  0  0  0  0  0  0  0  0
    6.6010  -35.5382  -16.1492 C   0  0  1  0  0  0  0  0  0  0  0  0
    6.7843  -33.3158  -12.3492 O   0  0  0  0  0  0  0  0  0  0  0  0
    7.9736  -35.8961  -16.2798 O   0  0  0  0  0  0  0  0  0  0  0  0
    7.3444  -30.9813  -12.5697 C   0  0  0  0  0  0  0  0  0  0  0  0
    5.9982  -35.2816  -17.5168 C   0  0  0  0  0  0  0  0  0  0  0  0
    8.7380  -30.5080  -12.1840 C   0  0  2  0  0  0  0  0  0  0  0  0
    4.8740  -36.2951  -17.6770 C   0  0  2  0  0  0  0  0  0  0  0  0
    8.8654  -28.2224  -16.9103 N   0  0  0  0  0  0  0  0  0  0  0  0
    8.4484  -29.4506  -16.5514 C   0  0  0  0  0  0  0  0  0  0  0  0
    8.4742  -29.9088  -15.2862 N   0  0  0  0  0  0  0  0  0  0  0  0
    8.9348  -29.1336  -14.2754 C   0  0  0  0  0  0  0  0  0  0  0  0
    9.4087  -27.7761  -14.5876 C   0  0  0  0  0  0  0  0  0  0  0  0
    9.3495  -27.3438  -16.0041 C   0  0  0  0  0  0  0  0  0  0  0  0
    9.7655  -26.1097  -16.3777 N   0  0  0  0  0  0  0  0  0  0  0  0
    9.8054  -27.2306  -13.4225 N   0  0  0  0  0  0  0  0  0  0  0  0
    9.6040  -28.1558  -12.4497 C   0  0  0  0  0  0  0  0  0  0  0  0
    9.0848  -29.2901  -12.9577 N   0  0  0  0  0  0  0  0  0  0  0  0
    0.3493  -36.0567  -20.3309 N   0  0  0  0  0  0  0  0  0  0  0  0
    1.3802  -36.9139  -20.4489 C   0  0  0  0  0  0  0  0  0  0  0  0
    2.4910  -36.8557  -19.6925 N   0  0  0  0  0  0  0  0  0  0  0  0
    2.6344  -35.9009  -18.7419 C   0  0  0  0  0  0  0  0  0  0  0  0
    1.5492  -34.9259  -18.5518 C   0  0  0  0  0  0  0  0  0  0  0  0
    0.3581  -35.0563  -19.4238 C   0  0  0  0  0  0  0  0  0  0  0  0
   -0.6870  -34.1996  -19.3142 N   0  0  0  0  0  0  0  0  0  0  0  0
    1.9417  -34.1031  -17.5610 N   0  0  0  0  0  0  0  0  0  0  0  0
    3.1698  -34.5146  -17.1531 C   0  0  0  0  0  0  0  0  0  0  0  0
    3.5825  -35.5852  -17.8564 N   0  0  0  0  0  0  0  0  0  0  0  0
  1  3  1  1  0  0  0
  1  5  2  0  0  0  0
  1  9  1  0  0  0  0
  1 18  1  0  0  0  0
  2  4  1  6  0  0  0
  2  6  2  0  0  0  0
  2 10  1  0  0  0  0
  2 17  1  0  0  0  0
  7  9  1  0  0  0  0
  8 10  1  0  0  0  0
 11  7  1  6  0  0  0
 11 13  1  0  0  0  0
 11 15  1  0  0  0  0
 12  8  1  1  0  0  0
 12 14  1  0  0  0  0
 12 16  1  0  0  0  0
 13 21  1  0  0  0  0
 14 22  1  0  0  0  0
 15 17  1  1  0  0  0
 15 19  1  0  0  0  0
 16 18  1  6  0  0  0
 16 20  1  0  0  0  0
 19 21  1  0  0  0  0
 20 22  1  0  0  0  0
 21 32  1  6  0  0  0
 22 42  1  1  0  0  0
 23 24  2  0  0  0  0
 23 28  1  0  0  0  0
 24 25  1  0  0  0  0
 25 26  2  0  0  0  0
 26 27  1  0  0  0  0
 26 32  1  0  0  0  0
 27 28  2  0  0  0  0
 27 30  1  0  0  0  0
 28 29  1  0  0  0  0
 30 31  2  0  0  0  0
 31 32  1  0  0  0  0
 33 34  2  0  0  0  0
 33 38  1  0  0  0  0
 34 35  1  0  0  0  0
 35 36  2  0  0  0  0
 36 37  1  0  0  0  0
 36 42  1  0  0  0  0
 37 38  2  0  0  0  0
 37 40  1  0  0  0  0
 38 39  1  0  0  0  0
 40 41  2  0  0  0  0
 41 42  1  0  0  0  0
M  CHG  2   3  -1   4  -1
M  END
>  <CHROM.1>
70.72014883,-104.96499258,6.44809271,-33.21553654,-15.57990274,-0.45561061
0.73879975,2.79471687

>  <Name>
ligand

>  <RI>
0

>  <Rbt.Current_Directory>
/home/itssahil/PROJECTS/Mol_Feturizer/New_Systems/rnas/4QLN

>  <Rbt.Executable>
rbdock ($Id: //depot/dev/client3/rdock/2013.1/src/exe/rbdock.cxx#4 $)

>  <Rbt.Library>
libRbt.so (2013.1, Build901 2013/11/27)

>  <Rbt.Parameter_File>
/export/apps/rDock/src/rDock_2013.1_src/data/scripts/dock_solv.prm

>  <Rbt.Receptor>
prm/pocket_docking_3.prm

>  <SCORE>
-32.4375

>  <SCORE.INTER>
-32.8558

>  <SCORE.INTER.CONST>
1

>  <SCORE.INTER.POLAR>
0

>  <SCORE.INTER.ROT>
2

>  <SCORE.INTER.SOLV>
31.2603

>  <SCORE.INTER.VDW>
-37.2573

>  <SCORE.INTER.norm>
-0.782281

>  <SCORE.INTRA>
0.418297

>  <SCORE.INTRA.DIHEDRAL>
-0.000244102

>  <SCORE.INTRA.DIHEDRAL.0>
2.39985

>  <SCORE.INTRA.POLAR>
0

>  <SCORE.INTRA.POLAR.0>
0

>  <SCORE.INTRA.REPUL>
0

>  <SCORE.INTRA.REPUL.0>
0

>  <SCORE.INTRA.SOLV>
-0.0114406

>  <SCORE.INTRA.SOLV.lig_0>
-110.958

>  <SCORE.INTRA.VDW>
0.424139

>  <SCORE.INTRA.VDW.0>
-2.34644

>  <SCORE.INTRA.norm>
0.00995944

>  <SCORE.RESTR>
0

>  <SCORE.RESTR.CAVITY>
0

>  <SCORE.RESTR.norm>
0

>  <SCORE.SYSTEM>
0

>  <SCORE.SYSTEM.CONST>
0

>  <SCORE.SYSTEM.DIHEDRAL>
0

>  <SCORE.SYSTEM.SOLV>
0

>  <SCORE.SYSTEM.norm>
0

>  <SCORE.heavy>
42

>  <SCORE.norm>
-0.772322

>  <RMSD>
2.268

$$$$
ligand
 OpenBabel11021811513D
libRbt.so/2013.1/901 2013/11/27
 42 48  0  0  0  0  0  0  0  0999 V2000
    9.1041  -34.7592  -16.3260 P   0  0  2  0  0  0  0  0  0  0  0  0
    5.4291  -33.9917  -12.9467 P   0  0  1  0  0  0  0  0  0  0  0  0
   10.4045  -35.3706  -15.8590 O   0  5  0  0  0  0  0  0  0  0  0  0
    4.9415  -33.1664  -14.1135 O   0  5  0  0  0  0  0  0  0  0  0  0
    9.0320  -34.0811  -17.6732 O   0  0  0  0  0  0  0  0  0  0  0  0
    4.5018  -34.2875  -11.7926 O   0  0  0  0  0  0  0  0  0  0  0  0
    9.5567  -32.9666  -14.4449 C   0  0  0  0  0  0  0  0  0  0  0  0
    5.1292  -36.2697  -14.2408 C   0  0  0  0  0  0  0  0  0  0  0  0
    8.6097  -33.7125  -15.2076 O   0  0  0  0  0  0  0  0  0  0  0  0
    5.9869  -35.3905  -13.5168 O   0  0  0  0  0  0  0  0  0  0  0  0
    8.9793  -32.6731  -13.0654 C   0  0  1  0  0  0  0  0  0  0  0  0
    5.8068  -36.6889  -15.5393 C   0  0  1  0  0  0  0  0  0  0  0  0
    9.6343  -31.5339  -12.5010 O   0  0  0  0  0  0  0  0  0  0  0  0
    4.8189  -37.0951  -16.4896 O   0  0  0  0  0  0  0  0  0  0  0  0
    7.4938  -32.3637  -13.1445 C   0  0  1  0  0  0  0  0  0  0  0  0
    6.5921  -35.5384  -16.1486 C   0  0  1  0  0  0  0  0  0  0  0  0
    6.7579  -33.2967  -12.3592 O   0  0  0  0  0  0  0  0  0  0  0  0
    7.9655  -35.8957  -16.2718 O   0  0  0  0  0  0  0  0  0  0  0  0
    7.3168  -30.9628  -12.5891 C   0  0  0  0  0  0  0  0  0  0  0  0
    5.9946  -35.2892  -17.5199 C   0  0  0  0  0  0  0  0  0  0  0  0
    8.7084  -30.4863  -12.2001 C   0  0  2  0  0  0  0  0  0  0  0  0
    4.8719  -36.3044  -17.6796 C   0  0  2  0  0  0  0  0  0  0  0  0
    8.8531  -28.2244  -16.9373 N   0  0  0  0  0  0  0  0  0  0  0  0
    8.4356  -29.4511  -16.5739 C   0  0  0  0  0  0  0  0  0  0  0  0
    8.4567  -29.9029  -15.3063 N   0  0  0  0  0  0  0  0  0  0  0  0
    8.9125  -29.1223  -14.2975 C   0  0  0  0  0  0  0  0  0  0  0  0
    9.3865  -27.7660  -14.6146 C   0  0  0  0  0  0  0  0  0  0  0  0
    9.3327  -27.3408  -16.0336 C   0  0  0  0  0  0  0  0  0  0  0  0
    9.7492  -26.1083  -16.4117 N   0  0  0  0  0  0  0  0  0  0  0  0
    9.7780  -27.2142  -13.4508 N   0  0  0  0  0  0  0  0  0  0  0  0
    9.5735  -28.1347  -12.4741 C   0  0  0  0  0  0  0  0  0  0  0  0
    9.0573  -29.2720  -12.9785 N   0  0  0  0  0  0  0  0  0  0  0  0
    0.3535  -36.0897  -20.3462 N   0  0  0  0  0  0  0  0  0  0  0  0
    1.3851  -36.9473  -20.4548 C   0  0  0  0  0  0  0  0  0  0  0  0
    2.4941  -36.8825  -19.6961 N   0  0  0  0  0  0  0  0  0  0  0  0
    2.6347  -35.9199  -18.7530 C   0  0  0  0  0  0  0  0  0  0  0  0
    1.5487  -34.9440  -18.5735 C   0  0  0  0  0  0  0  0  0  0  0  0
    0.3597  -35.0819  -19.4473 C   0  0  0  0  0  0  0  0  0  0  0  0
   -0.6860  -34.2248  -19.3470 N   0  0  0  0  0  0  0  0  0  0  0  0
    1.9385  -34.1130  -17.5884 N   0  0  0  0  0  0  0  0  0  0  0  0
    3.1658  -34.5206  -17.1742 C   0  0  0  0  0  0  0  0  0  0  0  0
    3.5806  -35.5966  -17.8678 N   0  0  0  0  0  0  0  0  0  0  0  0
  1  3  1  1  0  0  0
  1  5  2  0  0  0  0
  1  9  1  0  0  0  0
  1 18  1  0  0  0  0
  2  4  1  6  0  0  0
  2  6  2  0  0  0  0
  2 10  1  0  0  0  0
  2 17  1  0  0  0  0
  7  9  1  0  0  0  0
  8 10  1  0  0  0  0
 11  7  1  6  0  0  0
 11 13  1  0  0  0  0
 11 15  1  0  0  0  0
 12  8  1  1  0  0  0
 12 14  1  0  0  0  0
 12 16  1  0  0  0  0
 13 21  1  0  0  0  0
 14 22  1  0  0  0  0
 15 17  1  1  0  0  0
 15 19  1  0  0  0  0
 16 18  1  6  0  0  0
 16 20  1  0  0  0  0
 19 21  1  0  0  0  0
 20 22  1  0  0  0  0
 21 32  1  6  0  0  0
 22 42  1  1  0  0  0
 23 24  2  0  0  0  0
 23 28  1  0  0  0  0
 24 25  1  0  0  0  0
 25 26  2  0  0  0  0
 26 27  1  0  0  0  0
 26 32  1  0  0  0  0
 27 28  2  0  0  0  0
 27 30  1  0  0  0  0
 28 29  1  0  0  0  0
 30 31  2  0  0  0  0
 31 32  1  0  0  0  0
 33 34  2  0  0  0  0
 33 38  1  0  0  0  0
 34 35  1  0  0  0  0
 35 36  2  0  0  0  0
 36 37  1  0  0  0  0
 36 42  1  0  0  0  0
 37 38  2  0  0  0  0
 37 40  1  0  0  0  0
 38 39  1  0  0  0  0
 40 41  2  0  0  0  0
 41 42  1  0  0  0  0
M  CHG  2   3  -1   4  -1
M  END
>  <CHROM.1>
70.72264720,-104.76249107,6.43441480,-33.21347768,-15.59106748,-0.45576251
0.74231418,2.79007414

>  <Name>
ligand

>  <RI>
0

>  <Rbt.Current_Directory>
/home/itssahil/PROJECTS/Mol_Feturizer/New_Systems/rnas/4QLN

>  <Rbt.Executable>
rbdock ($Id: //depot/dev/client3/rdock/2013.1/src/exe/rbdock.cxx#4 $)

>  <Rbt.Library>
libRbt.so (2013.1, Build901 2013/11/27)

>  <Rbt.Parameter_File>
/export/apps/rDock/src/rDock_2013.1_src/data/scripts/dock_solv.prm

>  <Rbt.Receptor>
prm/pocket_docking_3.prm

>  <SCORE>
-32.4625

>  <SCORE.INTER>
-32.8851

>  <SCORE.INTER.CONST>
1

>  <SCORE.INTER.POLAR>
0

>  <SCORE.INTER.ROT>
2

>  <SCORE.INTER.SOLV>
31.1728

>  <SCORE.INTER.VDW>
-37.2476

>  <SCORE.INTER.norm>
-0.782978

>  <SCORE.INTRA>
0.42255

>  <SCORE.INTRA.DIHEDRAL>
-0.000249678

>  <SCORE.INTRA.DIHEDRAL.0>
2.39985

>  <SCORE.INTRA.POLAR>
0

>  <SCORE.INTRA.POLAR.0>
0

>  <SCORE.INTRA.REPUL>
0

>  <SCORE.INTRA.REPUL.0>
0

>  <SCORE.INTRA.SOLV>
-0.0116154

>  <SCORE.INTRA.SOLV.lig_0>
-110.958

>  <SCORE.INTRA.VDW>
0.428483

>  <SCORE.INTRA.VDW.0>
-2.34644

>  <SCORE.INTRA.norm>
0.0100607

>  <SCORE.RESTR>
0

>  <SCORE.RESTR.CAVITY>
0

>  <SCORE.RESTR.norm>
0

>  <SCORE.SYSTEM>
0

>  <SCORE.SYSTEM.CONST>
0

>  <SCORE.SYSTEM.DIHEDRAL>
0

>  <SCORE.SYSTEM.SOLV>
0

>  <SCORE.SYSTEM.norm>
0

>  <SCORE.heavy>
42

>  <SCORE.norm>
-0.772917

>  <RMSD>
2.269

$$$$
ligand
 OpenBabel11021811513D
libRbt.so/2013.1/901 2013/11/27
 42 48  0  0  0  0  0  0  0  0999 V2000
    9.1126  -34.7539  -16.3488 P   0  0  2  0  0  0  0  0  0  0  0  0
    5.4501  -34.0095  -12.9508 P   0  0  1  0  0  0  0  0  0  0  0  0
   10.4156  -35.3663  -15.8902 O   0  5  0  0  0  0  0  0  0  0  0  0
    4.9569  -33.1784  -14.1112 O   0  5  0  0  0  0  0  0  0  0  0  0
    9.0343  -34.0686  -17.6920 O   0  0  0  0  0  0  0  0  0  0  0  0
    4.5278  -34.3126  -11.7946 O   0  0  0  0  0  0  0  0  0  0  0  0
    9.5705  -32.9711  -14.4597 C   0  0  0  0  0  0  0  0  0  0  0  0
    5.1479  -36.2807  -14.2561 C   0  0  0  0  0  0  0  0  0  0  0  0
    8.6214  -33.7139  -15.2228 O   0  0  0  0  0  0  0  0  0  0  0  0
    6.0073  -35.4044  -13.5307 O   0  0  0  0  0  0  0  0  0  0  0  0
    8.9982  -32.6858  -13.0764 C   0  0  1  0  0  0  0  0  0  0  0  0
    5.8208  -36.6920  -15.5595 C   0  0  1  0  0  0  0  0  0  0  0  0
    9.6541  -31.5488  -12.5084 O   0  0  0  0  0  0  0  0  0  0  0  0
    4.8297  -37.0942  -16.5081 O   0  0  0  0  0  0  0  0  0  0  0  0
    7.5121  -32.3778  -13.1479 C   0  0  1  0  0  0  0  0  0  0  0  0
    6.6023  -35.5372  -16.1656 C   0  0  1  0  0  0  0  0  0  0  0  0
    6.7804  -33.3160  -12.3647 O   0  0  0  0  0  0  0  0  0  0  0  0
    7.9757  -35.8921  -16.2962 O   0  0  0  0  0  0  0  0  0  0  0  0
    7.3356  -30.9801  -12.5842 C   0  0  0  0  0  0  0  0  0  0  0  0
    5.9991  -35.2813  -17.5332 C   0  0  0  0  0  0  0  0  0  0  0  0
    8.7281  -30.5041  -12.1981 C   0  0  2  0  0  0  0  0  0  0  0  0
    4.8770  -36.2971  -17.6940 C   0  0  2  0  0  0  0  0  0  0  0  0
    8.8888  -28.2305  -16.9292 N   0  0  0  0  0  0  0  0  0  0  0  0
    8.4792  -29.4616  -16.5715 C   0  0  0  0  0  0  0  0  0  0  0  0
    8.4946  -29.9160  -15.3049 N   0  0  0  0  0  0  0  0  0  0  0  0
    8.9362  -29.1337  -14.2910 C   0  0  0  0  0  0  0  0  0  0  0  0
    9.4010  -27.7727  -14.6016 C   0  0  0  0  0  0  0  0  0  0  0  0
    9.3542  -27.3449  -16.0200 C   0  0  0  0  0  0  0  0  0  0  0  0
    9.7629  -26.1080  -16.3924 N   0  0  0  0  0  0  0  0  0  0  0  0
    9.7791  -27.2202  -13.4337 N   0  0  0  0  0  0  0  0  0  0  0  0
    9.5751  -28.1446  -12.4605 C   0  0  0  0  0  0  0  0  0  0  0  0
    9.0725  -29.2851  -12.9713 N   0  0  0  0  0  0  0  0  0  0  0  0
    0.3371  -36.0887  -20.3242 N   0  0  0  0  0  0  0  0  0  0  0  0
    1.3678  -36.9464  -20.4393 C   0  0  0  0  0  0  0  0  0  0  0  0
    2.4829  -36.8798  -19.6899 N   0  0  0  0  0  0  0  0  0  0  0  0
    2.6311  -35.9151  -18.7500 C   0  0  0  0  0  0  0  0  0  0  0  0
    1.5464  -34.9390  -18.5637 C   0  0  0  0  0  0  0  0  0  0  0  0
    0.3504  -35.0790  -19.4275 C   0  0  0  0  0  0  0  0  0  0  0  0
   -0.6946  -34.2218  -19.3206 N   0  0  0  0  0  0  0  0  0  0  0  0
    1.9441  -34.1058  -17.5836 N   0  0  0  0  0  0  0  0  0  0  0  0
    3.1747  -34.5123  -17.1786 C   0  0  0  0  0  0  0  0  0  0  0  0
    3.5840  -35.5898  -17.8732 N   0  0  0  0  0  0  0  0  0  0  0  0
  1  3  1  1  0  0  0
  1  5  2  0  0  0  0
  1  9  1  0  0  0  0
  1 18  1  0  0  0  0
  2  4  1  6  0  0  0
  2  6  2  0  0  0  0
  2 10  1  0  0  0  0
  2 17  1  0  0  0  0
  7  9  1  0  0  0  0
  8 10  1  0  0  0  0
 11  7  1  6  0  0  0
 11 13  1  0  0  0  0
 11 15  1  0  0  0  0
 12  8  1  1  0  0  0
 12 14  1  0  0  0  0
 12 16  1  0  0  0  0
 13 21  1  0  0  0  0
 14 22  1  0  0  0  0
 15 17  1  1  0  0  0
 15 19  1  0  0  0  0
 16 18  1  6  0  0  0
 16 20  1  0  0  0  0
 19 21  1  0  0  0  0
 20 22  1  0  0  0  0
 21 32  1  6  0  0  0
 22 42  1  1  0  0  0
 23 24  2  0  0  0  0
 23 28  1  0  0  0  0
 24 25  1  0  0  0  0
 25 26  2  0  0  0  0
 26 27  1  0  0  0  0
 26 32  1  0  0  0  0
 27 28  2  0  0  0  0
 27 30  1  0  0  0  0
 28 29  1  0  0  0  0
 30 31  2  0  0  0  0
 31 32  1  0  0  0  0
 33 34  2  0  0  0  0
 33 38  1  0  0  0  0
 34 35  1  0  0  0  0
 35 36  2  0  0  0  0
 36 37  1  0  0  0  0
 36 42  1  0  0  0  0
 37 38  2  0  0  0  0
 37 40  1  0  0  0  0
 38 39  1  0  0  0  0
 40 41  2  0  0  0  0
 41 42  1  0  0  0  0
M  CHG  2   3  -1   4  -1
M  END
>  <CHROM.1>
69.92239423,-104.26185491,6.44620045,-33.21799747,-15.59389285,-0.45707187
0.73874148,2.79391688

>  <Name>
ligand

>  <RI>
0

>  <Rbt.Current_Directory>
/home/itssahil/PROJECTS/Mol_Feturizer/New_Systems/rnas/4QLN

>  <Rbt.Executable>
rbdock ($Id: //depot/dev/client3/rdock/2013.1/src/exe/rbdock.cxx#4 $)

>  <Rbt.Library>
libRbt.so (2013.1, Build901 2013/11/27)

>  <Rbt.Parameter_File>
/export/apps/rDock/src/rDock_2013.1_src/data/scripts/dock_solv.prm

>  <Rbt.Receptor>
prm/pocket_docking_5.prm

>  <SCORE>
-32.4807

>  <SCORE.INTER>
-32.8889

>  <SCORE.INTER.CONST>
1

>  <SCORE.INTER.POLAR>
0

>  <SCORE.INTER.ROT>
2

>  <SCORE.INTER.SOLV>
31.2643

>  <SCORE.INTER.VDW>
-37.2807

>  <SCORE.INTER.norm>
-0.78307

>  <SCORE.INTRA>
0.40827

>  <SCORE.INTRA.DIHEDRAL>
-0.000272674

>  <SCORE.INTRA.DIHEDRAL.0>
2.39985

>  <SCORE.INTRA.POLAR>
0

>  <SCORE.INTRA.POLAR.0>
0

>  <SCORE.INTRA.REPUL>
0

>  <SCORE.INTRA.REPUL.0>
0

>  <SCORE.INTRA.SOLV>
-0.0113216

>  <SCORE.INTRA.SOLV.lig_0>
-110.958

>  <SCORE.INTRA.VDW>
0.414067

>  <SCORE.INTRA.VDW.0>
-2.34644

>  <SCORE.INTRA.norm>
0.00972071

>  <SCORE.RESTR>
0

>  <SCORE.RESTR.CAVITY>
0

>  <SCORE.RESTR.norm>
0

>  <SCORE.SYSTEM>
0

>  <SCORE.SYSTEM.CONST>
0

>  <SCORE.SYSTEM.DIHEDRAL>
0

>  <SCORE.SYSTEM.SOLV>
0

>  <SCORE.SYSTEM.norm>
0

>  <SCORE.heavy>
42

>  <SCORE.norm>
-0.773349

>  <RMSD>
2.269

$$$$
ligand
 OpenBabel11021811513D
libRbt.so/2013.1/901 2013/11/27
 42 48  0  0  0  0  0  0  0  0999 V2000
    9.1059  -34.7552  -16.3157 P   0  0  2  0  0  0  0  0  0  0  0  0
    5.4286  -33.9866  -12.9392 P   0  0  1  0  0  0  0  0  0  0  0  0
   10.4052  -35.3683  -15.8480 O   0  5  0  0  0  0  0  0  0  0  0  0
    4.9429  -33.1599  -14.1058 O   0  5  0  0  0  0  0  0  0  0  0  0
    9.0356  -34.0760  -17.6625 O   0  0  0  0  0  0  0  0  0  0  0  0
    4.4999  -34.2823  -11.7861 O   0  0  0  0  0  0  0  0  0  0  0  0
    9.5586  -32.9645  -14.4328 C   0  0  0  0  0  0  0  0  0  0  0  0
    5.1276  -36.2632  -14.2352 C   0  0  0  0  0  0  0  0  0  0  0  0
    8.6115  -33.7088  -15.1970 O   0  0  0  0  0  0  0  0  0  0  0  0
    5.9854  -35.3855  -13.5098 O   0  0  0  0  0  0  0  0  0  0  0  0
    8.9802  -32.6715  -13.0536 C   0  0  1  0  0  0  0  0  0  0  0  0
    5.8059  -36.6822  -15.5335 C   0  0  1  0  0  0  0  0  0  0  0  0
    9.6359  -31.5333  -12.4878 O   0  0  0  0  0  0  0  0  0  0  0  0
    4.8185  -37.0866  -16.4850 O   0  0  0  0  0  0  0  0  0  0  0  0
    7.4951  -32.3605  -13.1338 C   0  0  1  0  0  0  0  0  0  0  0  0
    6.5929  -35.5320  -16.1411 C   0  0  1  0  0  0  0  0  0  0  0  0
    6.7575  -33.2933  -12.3499 O   0  0  0  0  0  0  0  0  0  0  0  0
    7.9661  -35.8906  -16.2633 O   0  0  0  0  0  0  0  0  0  0  0  0
    7.3190  -30.9598  -12.5776 C   0  0  0  0  0  0  0  0  0  0  0  0
    5.9969  -35.2812  -17.5129 C   0  0  0  0  0  0  0  0  0  0  0  0
    8.7107  -30.4851  -12.1869 C   0  0  2  0  0  0  0  0  0  0  0  0
    4.8734  -36.2952  -17.6743 C   0  0  2  0  0  0  0  0  0  0  0  0
    8.8707  -28.2231  -16.9235 N   0  0  0  0  0  0  0  0  0  0  0  0
    8.4528  -29.4501  -16.5616 C   0  0  0  0  0  0  0  0  0  0  0  0
    8.4697  -29.9018  -15.2940 N   0  0  0  0  0  0  0  0  0  0  0  0
    8.9214  -29.1209  -14.2836 C   0  0  0  0  0  0  0  0  0  0  0  0
    9.3956  -27.7643  -14.5990 C   0  0  0  0  0  0  0  0  0  0  0  0
    9.3465  -27.3392  -16.0181 C   0  0  0  0  0  0  0  0  0  0  0  0
    9.7635  -26.1063  -16.3948 N   0  0  0  0  0  0  0  0  0  0  0  0
    9.7826  -27.2123  -13.4338 N   0  0  0  0  0  0  0  0  0  0  0  0
    9.5752  -28.1329  -12.4578 C   0  0  0  0  0  0  0  0  0  0  0  0
    9.0616  -29.2705  -12.9641 N   0  0  0  0  0  0  0  0  0  0  0  0
    0.3578  -36.0735  -20.3452 N   0  0  0  0  0  0  0  0  0  0  0  0
    1.3886  -36.9320  -20.4535 C   0  0  0  0  0  0  0  0  0  0  0  0
    2.4969  -36.8690  -19.6937 N   0  0  0  0  0  0  0  0  0  0  0  0
    2.6376  -35.9074  -18.7496 C   0  0  0  0  0  0  0  0  0  0  0  0
    1.5524  -34.9306  -18.5702 C   0  0  0  0  0  0  0  0  0  0  0  0
    0.3641  -35.0665  -19.4453 C   0  0  0  0  0  0  0  0  0  0  0  0
   -0.6808  -34.2085  -19.3453 N   0  0  0  0  0  0  0  0  0  0  0  0
    1.9420  -34.1008  -17.5840 N   0  0  0  0  0  0  0  0  0  0  0  0
    3.1685  -34.5101  -17.1690 C   0  0  0  0  0  0  0  0  0  0  0  0
    3.5829  -35.5858  -17.8632 N   0  0  0  0  0  0  0  0  0  0  0  0
  1  3  1  1  0  0  0
  1  5  2  0  0  0  0
  1  9  1  0  0  0  0
  1 18  1  0  0  0  0
  2  4  1  6  0  0  0
  2  6  2  0  0  0  0
  2 10  1  0  0  0  0
  2 17  1  0  0  0  0
  7  9  1  0  0  0  0
  8 10  1  0  0  0  0
 11  7  1  6  0  0  0
 11 13  1  0  0  0  0
 11 15  1  0  0  0  0
 12  8  1  1  0  0  0
 12 14  1  0  0  0  0
 12 16  1  0  0  0  0
 13 21  1  0  0  0  0
 14 22  1  0  0  0  0
 15 17  1  1  0  0  0
 15 19  1  0  0  0  0
 16 18  1  6  0  0  0
 16 20  1  0  0  0  0
 19 21  1  0  0  0  0
 20 22  1  0  0  0  0
 21 32  1  6  0  0  0
 22 42  1  1  0  0  0
 23 24  2  0  0  0  0
 23 28  1  0  0  0  0
 24 25  1  0  0  0  0
 25 26  2  0  0  0  0
 26 27  1  0  0  0  0
 26 32  1  0  0  0  0
 27 28  2  0  0  0  0
 27 30  1  0  0  0  0
 28 29  1  0  0  0  0
 30 31  2  0  0  0  0
 31 32  1  0  0  0  0
 33 34  2  0  0  0  0
 33 38  1  0  0  0  0
 34 35  1  0  0  0  0
 35 36  2  0  0  0  0
 36 37  1  0  0  0  0
 36 42  1  0  0  0  0
 37 38  2  0  0  0  0
 37 40  1  0  0  0  0
 38 39  1  0  0  0  0
 40 41  2  0  0  0  0
 41 42  1  0  0  0  0
M  CHG  2   3  -1   4  -1
M  END
>  <CHROM.1>
70.53726505,-104.77279838,6.43780245,-33.20760650,-15.58213917,-0.45298609
0.74314505,2.78820343

>  <Name>
ligand

>  <RI>
0

>  <Rbt.Current_Directory>
/home/itssahil/PROJECTS/Mol_Feturizer/New_Systems/rnas/4QLN

>  <Rbt.Executable>
rbdock ($Id: //depot/dev/client3/rdock/2013.1/src/exe/rbdock.cxx#4 $)

>  <Rbt.Library>
libRbt.so (2013.1, Build901 2013/11/27)

>  <Rbt.Parameter_File>
/export/apps/rDock/src/rDock_2013.1_src/data/scripts/dock_solv.prm

>  <Rbt.Receptor>
prm/pocket_docking_4.prm

>  <SCORE>
-32.4793

>  <SCORE.INTER>
-32.8959

>  <SCORE.INTER.CONST>
1

>  <SCORE.INTER.POLAR>
0

>  <SCORE.INTER.ROT>
2

>  <SCORE.INTER.SOLV>
31.2321

>  <SCORE.INTER.VDW>
-37.2746

>  <SCORE.INTER.norm>
-0.783235

>  <SCORE.INTRA>
0.416509

>  <SCORE.INTRA.DIHEDRAL>
-0.00025155

>  <SCORE.INTRA.DIHEDRAL.0>
2.39985

>  <SCORE.INTRA.POLAR>
0

>  <SCORE.INTRA.POLAR.0>
0

>  <SCORE.INTRA.REPUL>
0

>  <SCORE.INTRA.REPUL.0>
0

>  <SCORE.INTRA.SOLV>
-0.0114351

>  <SCORE.INTRA.SOLV.lig_0>
-110.958

>  <SCORE.INTRA.VDW>
0.422352

>  <SCORE.INTRA.VDW.0>
-2.34644

>  <SCORE.INTRA.norm>
0.00991688

>  <SCORE.RESTR>
0

>  <SCORE.RESTR.CAVITY>
0

>  <SCORE.RESTR.norm>
0

>  <SCORE.SYSTEM>
0

>  <SCORE.SYSTEM.CONST>
0

>  <SCORE.SYSTEM.DIHEDRAL>
0

>  <SCORE.SYSTEM.SOLV>
0

>  <SCORE.SYSTEM.norm>
0

>  <SCORE.heavy>
42

>  <SCORE.norm>
-0.773318

>  <RMSD>
2.270

$$$$
ligand
 OpenBabel11021811513D
libRbt.so/2013.1/901 2013/11/27
 42 48  0  0  0  0  0  0  0  0999 V2000
    8.9752  -34.6125  -16.5392 P   0  0  2  0  0  0  0  0  0  0  0  0
    5.4507  -33.9576  -12.9807 P   0  0  1  0  0  0  0  0  0  0  0  0
   10.2904  -35.2469  -16.1511 O   0  5  0  0  0  0  0  0  0  0  0  0
    4.9193  -33.0864  -14.0938 O   0  5  0  0  0  0  0  0  0  0  0  0
    8.8505  -33.8834  -17.8556 O   0  0  0  0  0  0  0  0  0  0  0  0
    4.5711  -34.2928  -11.8003 O   0  0  0  0  0  0  0  0  0  0  0  0
    9.5176  -32.8946  -14.6127 C   0  0  0  0  0  0  0  0  0  0  0  0
    5.0828  -36.1834  -14.3459 C   0  0  0  0  0  0  0  0  0  0  0  0
    8.5347  -33.6068  -15.3622 O   0  0  0  0  0  0  0  0  0  0  0  0
    5.9755  -35.3362  -13.6262 O   0  0  0  0  0  0  0  0  0  0  0  0
    9.0006  -32.6511  -13.1998 C   0  0  1  0  0  0  0  0  0  0  0  0
    5.7025  -36.5561  -15.6869 C   0  0  1  0  0  0  0  0  0  0  0  0
    9.6857  -31.5370  -12.6211 O   0  0  0  0  0  0  0  0  0  0  0  0
    4.6730  -36.9215  -16.6091 O   0  0  0  0  0  0  0  0  0  0  0  0
    7.5150  -32.3324  -13.2042 C   0  0  1  0  0  0  0  0  0  0  0  0
    6.4683  -35.3867  -16.2850 C   0  0  1  0  0  0  0  0  0  0  0  0
    6.8072  -33.2912  -12.4242 O   0  0  0  0  0  0  0  0  0  0  0  0
    7.8332  -35.7452  -16.4797 O   0  0  0  0  0  0  0  0  0  0  0  0
    7.3700  -30.9528  -12.5894 C   0  0  0  0  0  0  0  0  0  0  0  0
    5.8151  -35.0830  -17.6195 C   0  0  0  0  0  0  0  0  0  0  0  0
    8.7796  -30.4976  -12.2419 C   0  0  2  0  0  0  0  0  0  0  0  0
    4.6805  -36.0865  -17.7697 C   0  0  2  0  0  0  0  0  0  0  0  0
    8.8896  -28.1144  -16.9203 N   0  0  0  0  0  0  0  0  0  0  0  0
    8.5000  -29.3595  -16.5896 C   0  0  0  0  0  0  0  0  0  0  0  0
    8.5266  -29.8423  -15.3337 N   0  0  0  0  0  0  0  0  0  0  0  0
    8.9597  -29.0767  -14.3036 C   0  0  0  0  0  0  0  0  0  0  0  0
    9.4026  -27.7021  -14.5844 C   0  0  0  0  0  0  0  0  0  0  0  0
    9.3444  -27.2427  -15.9925 C   0  0  0  0  0  0  0  0  0  0  0  0
    9.7330  -25.9915  -16.3377 N   0  0  0  0  0  0  0  0  0  0  0  0
    9.7761  -27.1706  -13.4053 N   0  0  0  0  0  0  0  0  0  0  0  0
    9.5896  -28.1200  -12.4529 C   0  0  0  0  0  0  0  0  0  0  0  0
    9.1027  -29.2561  -12.9881 N   0  0  0  0  0  0  0  0  0  0  0  0
    0.0811  -35.7103  -20.2749 N   0  0  0  0  0  0  0  0  0  0  0  0
    1.1053  -36.5626  -20.4649 C   0  0  0  0  0  0  0  0  0  0  0  0
    2.2380  -36.5435  -19.7394 N   0  0  0  0  0  0  0  0  0  0  0  0
    2.4121  -35.6366  -18.7478 C   0  0  0  0  0  0  0  0  0  0  0  0
    1.3362  -34.6702  -18.4786 C   0  0  0  0  0  0  0  0  0  0  0  0
    0.1196  -34.7555  -19.3206 C   0  0  0  0  0  0  0  0  0  0  0  0
   -0.9190  -33.9034  -19.1386 N   0  0  0  0  0  0  0  0  0  0  0  0
    1.7601  -33.8976  -17.4606 N   0  0  0  0  0  0  0  0  0  0  0  0
    2.9982  -34.3308  -17.1095 C   0  0  0  0  0  0  0  0  0  0  0  0
    3.3867  -35.3664  -17.8761 N   0  0  0  0  0  0  0  0  0  0  0  0
  1  3  1  1  0  0  0
  1  5  2  0  0  0  0
  1  9  1  0  0  0  0
  1 18  1  0  0  0  0
  2  4  1  6  0  0  0
  2  6  2  0  0  0  0
  2 10  1  0  0  0  0
  2 17  1  0  0  0  0
  7  9  1  0  0  0  0
  8 10  1  0  0  0  0
 11  7  1  6  0  0  0
 11 13  1  0  0  0  0
 11 15  1  0  0  0  0
 12  8  1  1  0  0  0
 12 14  1  0  0  0  0
 12 16  1  0  0  0  0
 13 21  1  0  0  0  0
 14 22  1  0  0  0  0
 15 17  1  1  0  0  0
 15 19  1  0  0  0  0
 16 18  1  6  0  0  0
 16 20  1  0  0  0  0
 19 21  1  0  0  0  0
 20 22  1  0  0  0  0
 21 32  1  6  0  0  0
 22 42  1  1  0  0  0
 23 24  2  0  0  0  0
 23 28  1  0  0  0  0
 24 25  1  0  0  0  0
 25 26  2  0  0  0  0
 26 27  1  0  0  0  0
 26 32  1  0  0  0  0
 27 28  2  0  0  0  0
 27 30  1  0  0  0  0
 28 29  1  0  0  0  0
 30 31  2  0  0  0  0
 31 32  1  0  0  0  0
 33 34  2  0  0  0  0
 33 38  1  0  0  0  0
 34 35  1  0  0  0  0
 35 36  2  0  0  0  0
 36 37  1  0  0  0  0
 36 42  1  0  0  0  0
 37 38  2  0  0  0  0
 37 40  1  0  0  0  0
 38 39  1  0  0  0  0
 40 41  2  0  0  0  0
 41 42  1  0  0  0  0
M  CHG  2   3  -1   4  -1
M  END
>  <CHROM.1>
67.49375848,-106.02596111,6.36286407,-33.08529636,-15.63981302,-0.44569102
0.70958196,2.80634397

>  <Name>
ligand

>  <RI>
0

>  <Rbt.Current_Directory>
/home/itssahil/PROJECTS/Mol_Feturizer/New_Systems/rnas/4QLN

>  <Rbt.Executable>
rbdock ($Id: //depot/dev/client3/rdock/2013.1/src/exe/rbdock.cxx#4 $)

>  <Rbt.Library>
libRbt.so (2013.1, Build901 2013/11/27)

>  <Rbt.Parameter_File>
/export/apps/rDock/src/rDock_2013.1_src/data/scripts/dock_solv.prm

>  <Rbt.Receptor>
prm/pocket_docking_3.prm

>  <SCORE>
-32.3699

>  <SCORE.INTER>
-32.6929

>  <SCORE.INTER.CONST>
1

>  <SCORE.INTER.POLAR>
0

>  <SCORE.INTER.ROT>
2

>  <SCORE.INTER.SOLV>
32.9478

>  <SCORE.INTER.VDW>
-37.7112

>  <SCORE.INTER.norm>
-0.778402

>  <SCORE.INTRA>
0.322958

>  <SCORE.INTRA.DIHEDRAL>
-0.000252996

>  <SCORE.INTRA.DIHEDRAL.0>
2.39985

>  <SCORE.INTRA.POLAR>
0

>  <SCORE.INTRA.POLAR.0>
0

>  <SCORE.INTRA.REPUL>
0

>  <SCORE.INTRA.REPUL.0>
0

>  <SCORE.INTRA.SOLV>
-0.00762124

>  <SCORE.INTRA.SOLV.lig_0>
-110.958

>  <SCORE.INTRA.VDW>
0.326895

>  <SCORE.INTRA.VDW.0>
-2.34644

>  <SCORE.INTRA.norm>
0.00768947

>  <SCORE.RESTR>
0

>  <SCORE.RESTR.CAVITY>
0

>  <SCORE.RESTR.norm>
0

>  <SCORE.SYSTEM>
0

>  <SCORE.SYSTEM.CONST>
0

>  <SCORE.SYSTEM.DIHEDRAL>
0

>  <SCORE.SYSTEM.SOLV>
0

>  <SCORE.SYSTEM.norm>
0

>  <SCORE.heavy>
42

>  <SCORE.norm>
-0.770712

>  <RMSD>
2.276

$$$$
ligand
 OpenBabel11021811513D
libRbt.so/2013.1/901 2013/11/27
 42 48  0  0  0  0  0  0  0  0999 V2000
    8.9842  -34.6067  -16.5221 P   0  0  2  0  0  0  0  0  0  0  0  0
    5.4461  -33.9482  -12.9777 P   0  0  1  0  0  0  0  0  0  0  0  0
   10.2985  -35.2392  -16.1280 O   0  5  0  0  0  0  0  0  0  0  0  0
    4.9180  -33.0797  -14.0944 O   0  5  0  0  0  0  0  0  0  0  0  0
    8.8635  -33.8803  -17.8404 O   0  0  0  0  0  0  0  0  0  0  0  0
    4.5626  -34.2819  -11.7998 O   0  0  0  0  0  0  0  0  0  0  0  0
    9.5179  -32.8846  -14.5969 C   0  0  0  0  0  0  0  0  0  0  0  0
    5.0853  -36.1770  -14.3399 C   0  0  0  0  0  0  0  0  0  0  0  0
    8.5384  -33.5991  -15.3486 O   0  0  0  0  0  0  0  0  0  0  0  0
    5.9745  -35.3275  -13.6186 O   0  0  0  0  0  0  0  0  0  0  0  0
    8.9956  -32.6388  -13.1865 C   0  0  1  0  0  0  0  0  0  0  0  0
    5.7101  -36.5517  -15.6779 C   0  0  1  0  0  0  0  0  0  0  0  0
    9.6776  -31.5230  -12.6074 O   0  0  0  0  0  0  0  0  0  0  0  0
    4.6844  -36.9199  -16.6031 O   0  0  0  0  0  0  0  0  0  0  0  0
    7.5098  -32.3215  -13.1969 C   0  0  1  0  0  0  0  0  0  0  0  0
    6.4770  -35.3828  -16.2755 C   0  0  1  0  0  0  0  0  0  0  0  0
    6.8000  -33.2795  -12.4175 O   0  0  0  0  0  0  0  0  0  0  0  0
    7.8429  -35.7403  -16.4645 O   0  0  0  0  0  0  0  0  0  0  0  0
    7.3612  -30.9408  -12.5852 C   0  0  0  0  0  0  0  0  0  0  0  0
    5.8284  -35.0823  -17.6129 C   0  0  0  0  0  0  0  0  0  0  0  0
    8.7691  -30.4836  -12.2336 C   0  0  2  0  0  0  0  0  0  0  0  0
    4.6953  -36.0871  -17.7652 C   0  0  2  0  0  0  0  0  0  0  0  0
    8.8820  -28.1053  -16.9143 N   0  0  0  0  0  0  0  0  0  0  0  0
    8.4909  -29.3495  -16.5824 C   0  0  0  0  0  0  0  0  0  0  0  0
    8.5169  -29.8312  -15.3260 N   0  0  0  0  0  0  0  0  0  0  0  0
    8.9510  -29.0651  -14.2966 C   0  0  0  0  0  0  0  0  0  0  0  0
    9.3956  -27.6912  -14.5789 C   0  0  0  0  0  0  0  0  0  0  0  0
    9.3380  -27.2332  -15.9874 C   0  0  0  0  0  0  0  0  0  0  0  0
    9.7281  -25.9829  -16.3338 N   0  0  0  0  0  0  0  0  0  0  0  0
    9.7699  -27.1591  -13.4003 N   0  0  0  0  0  0  0  0  0  0  0  0
    9.5822  -28.1073  -12.4469 C   0  0  0  0  0  0  0  0  0  0  0  0
    9.0938  -29.2434  -12.9810 N   0  0  0  0  0  0  0  0  0  0  0  0
    0.0898  -35.7431  -20.2639 N   0  0  0  0  0  0  0  0  0  0  0  0
    1.1136  -36.5977  -20.4454 C   0  0  0  0  0  0  0  0  0  0  0  0
    2.2480  -36.5694  -19.7229 N   0  0  0  0  0  0  0  0  0  0  0  0
    2.4245  -35.6498  -18.7435 C   0  0  0  0  0  0  0  0  0  0  0  0
    1.3492  -34.6800  -18.4841 C   0  0  0  0  0  0  0  0  0  0  0  0
    0.1306  -34.7761  -19.3221 C   0  0  0  0  0  0  0  0  0  0  0  0
   -0.9076  -33.9216  -19.1484 N   0  0  0  0  0  0  0  0  0  0  0  0
    1.7756  -33.8944  -17.4772 N   0  0  0  0  0  0  0  0  0  0  0  0
    3.0146  -34.3231  -17.1236 C   0  0  0  0  0  0  0  0  0  0  0  0
    3.4012  -35.3684  -17.8778 N   0  0  0  0  0  0  0  0  0  0  0  0
  1  3  1  1  0  0  0
  1  5  2  0  0  0  0
  1  9  1  0  0  0  0
  1 18  1  0  0  0  0
  2  4  1  6  0  0  0
  2  6  2  0  0  0  0
  2 10  1  0  0  0  0
  2 17  1  0  0  0  0
  7  9  1  0  0  0  0
  8 10  1  0  0  0  0
 11  7  1  6  0  0  0
 11 13  1  0  0  0  0
 11 15  1  0  0  0  0
 12  8  1  1  0  0  0
 12 14  1  0  0  0  0
 12 16  1  0  0  0  0
 13 21  1  0  0  0  0
 14 22  1  0  0  0  0
 15 17  1  1  0  0  0
 15 19  1  0  0  0  0
 16 18  1  6  0  0  0
 16 20  1  0  0  0  0
 19 21  1  0  0  0  0
 20 22  1  0  0  0  0
 21 32  1  6  0  0  0
 22 42  1  1  0  0  0
 23 24  2  0  0  0  0
 23 28  1  0  0  0  0
 24 25  1  0  0  0  0
 25 26  2  0  0  0  0
 26 27  1  0  0  0  0
 26 32  1  0  0  0  0
 27 28  2  0  0  0  0
 27 30  1  0  0  0  0
 28 29  1  0  0  0  0
 30 31  2  0  0  0  0
 31 32  1  0  0  0  0
 33 34  2  0  0  0  0
 33 38  1  0  0  0  0
 34 35  1  0  0  0  0
 35 36  2  0  0  0  0
 36 37  1  0  0  0  0
 36 42  1  0  0  0  0
 37 38  2  0  0  0  0
 37 40  1  0  0  0  0
 38 39  1  0  0  0  0
 40 41  2  0  0  0  0
 41 42  1  0  0  0  0
M  CHG  2   3  -1   4  -1
M  END
>  <CHROM.1>
67.74377431,-105.31003069,6.36493877,-33.08174805,-15.63302147,-0.44966174
0.71077634,2.80910289

>  <Name>
ligand

>  <RI>
0

>  <Rbt.Current_Directory>
/home/itssahil/PROJECTS/Mol_Feturizer/New_Systems/rnas/4QLN

>  <Rbt.Executable>
rbdock ($Id: //depot/dev/client3/rdock/2013.1/src/exe/rbdock.cxx#4 $)

>  <Rbt.Library>
libRbt.so (2013.1, Build901 2013/11/27)

>  <Rbt.Parameter_File>
/export/apps/rDock/src/rDock_2013.1_src/data/scripts/dock_solv.prm

>  <Rbt.Receptor>
prm/pocket_docking_3.prm

>  <SCORE>
-32.3773

>  <SCORE.INTER>
-32.7211

>  <SCORE.INTER.CONST>
1

>  <SCORE.INTER.POLAR>
0

>  <SCORE.INTER.ROT>
2

>  <SCORE.INTER.SOLV>
32.881

>  <SCORE.INTER.VDW>
-37.7077

>  <SCORE.INTER.norm>
-0.779075

>  <SCORE.INTRA>
0.343807

>  <SCORE.INTRA.DIHEDRAL>
-0.000270482

>  <SCORE.INTRA.DIHEDRAL.0>
2.39985

>  <SCORE.INTRA.POLAR>
0

>  <SCORE.INTRA.POLAR.0>
0

>  <SCORE.INTRA.REPUL>
0

>  <SCORE.INTRA.REPUL.0>
0

>  <SCORE.INTRA.SOLV>
-0.00839726

>  <SCORE.INTRA.SOLV.lig_0>
-110.958

>  <SCORE.INTRA.VDW>
0.348141

>  <SCORE.INTRA.VDW.0>
-2.34644

>  <SCORE.INTRA.norm>
0.00818588

>  <SCORE.RESTR>
0

>  <SCORE.RESTR.CAVITY>
0

>  <SCORE.RESTR.norm>
0

>  <SCORE.SYSTEM>
0

>  <SCORE.SYSTEM.CONST>
0

>  <SCORE.SYSTEM.DIHEDRAL>
0

>  <SCORE.SYSTEM.SOLV>
0

>  <SCORE.SYSTEM.norm>
0

>  <SCORE.heavy>
42

>  <SCORE.norm>
-0.770889

>  <RMSD>
2.278

$$$$
ligand
 OpenBabel11021811513D
libRbt.so/2013.1/901 2013/11/27
 42 48  0  0  0  0  0  0  0  0999 V2000
    9.2055  -34.7574  -16.3085 P   0  0  2  0  0  0  0  0  0  0  0  0
    5.5109  -34.0122  -12.9456 P   0  0  1  0  0  0  0  0  0  0  0  0
   10.5103  -35.3537  -15.8341 O   0  5  0  0  0  0  0  0  0  0  0  0
    5.0192  -33.1969  -14.1178 O   0  5  0  0  0  0  0  0  0  0  0  0
    9.1314  -34.0860  -17.6589 O   0  0  0  0  0  0  0  0  0  0  0  0
    4.5825  -34.3122  -11.7935 O   0  0  0  0  0  0  0  0  0  0  0  0
    9.6334  -32.9521  -14.4337 C   0  0  0  0  0  0  0  0  0  0  0  0
    5.2386  -36.2987  -14.2306 C   0  0  0  0  0  0  0  0  0  0  0  0
    8.6966  -33.7108  -15.1965 O   0  0  0  0  0  0  0  0  0  0  0  0
    6.0847  -35.4078  -13.5075 O   0  0  0  0  0  0  0  0  0  0  0  0
    9.0480  -32.6584  -13.0576 C   0  0  1  0  0  0  0  0  0  0  0  0
    5.9249  -36.7168  -15.5249 C   0  0  1  0  0  0  0  0  0  0  0  0
    9.6896  -31.5102  -12.4959 O   0  0  0  0  0  0  0  0  0  0  0  0
    4.9447  -37.1370  -16.4769 O   0  0  0  0  0  0  0  0  0  0  0  0
    7.5599  -32.3644  -13.1433 C   0  0  1  0  0  0  0  0  0  0  0  0
    6.7008  -35.5611  -16.1365 C   0  0  1  0  0  0  0  0  0  0  0  0
    6.8305  -33.3012  -12.3564 O   0  0  0  0  0  0  0  0  0  0  0  0
    8.0782  -35.9051  -16.2532 O   0  0  0  0  0  0  0  0  0  0  0  0
    7.3668  -30.9628  -12.5948 C   0  0  0  0  0  0  0  0  0  0  0  0
    6.1058  -35.3239  -17.5110 C   0  0  0  0  0  0  0  0  0  0  0  0
    8.7521  -30.4707  -12.2029 C   0  0  2  0  0  0  0  0  0  0  0  0
    4.9940  -36.3511  -17.6702 C   0  0  2  0  0  0  0  0  0  0  0  0
    8.8804  -28.2243  -16.9479 N   0  0  0  0  0  0  0  0  0  0  0  0
    8.4727  -29.4531  -16.5804 C   0  0  0  0  0  0  0  0  0  0  0  0
    8.4969  -29.9002  -15.3113 N   0  0  0  0  0  0  0  0  0  0  0  0
    8.9461  -29.1124  -14.3050 C   0  0  0  0  0  0  0  0  0  0  0  0
    9.4094  -27.7535  -14.6267 C   0  0  0  0  0  0  0  0  0  0  0  0
    9.3527  -27.3337  -16.0472 C   0  0  0  0  0  0  0  0  0  0  0  0
    9.7594  -26.0992  -16.4295 N   0  0  0  0  0  0  0  0  0  0  0  0
    9.7960  -27.1945  -13.4647 N   0  0  0  0  0  0  0  0  0  0  0  0
    9.5984  -28.1132  -12.4848 C   0  0  0  0  0  0  0  0  0  0  0  0
    9.0916  -29.2564  -12.9855 N   0  0  0  0  0  0  0  0  0  0  0  0
    0.4373  -36.2581  -20.2780 N   0  0  0  0  0  0  0  0  0  0  0  0
    1.4719  -37.1142  -20.3693 C   0  0  0  0  0  0  0  0  0  0  0  0
    2.5911  -37.0157  -19.6296 N   0  0  0  0  0  0  0  0  0  0  0  0
    2.7398  -36.0179  -18.7250 C   0  0  0  0  0  0  0  0  0  0  0  0
    1.6511  -35.0413  -18.5664 C   0  0  0  0  0  0  0  0  0  0  0  0
    0.4506  -35.2175  -19.4173 C   0  0  0  0  0  0  0  0  0  0  0  0
   -0.5982  -34.3625  -19.3341 N   0  0  0  0  0  0  0  0  0  0  0  0
    2.0502  -34.1722  -17.6185 N   0  0  0  0  0  0  0  0  0  0  0  0
    3.2854  -34.5581  -17.2071 C   0  0  0  0  0  0  0  0  0  0  0  0
    3.6962  -35.6572  -17.8661 N   0  0  0  0  0  0  0  0  0  0  0  0
  1  3  1  1  0  0  0
  1  5  2  0  0  0  0
  1  9  1  0  0  0  0
  1 18  1  0  0  0  0
  2  4  1  6  0  0  0
  2  6  2  0  0  0  0
  2 10  1  0  0  0  0
  2 17  1  0  0  0  0
  7  9  1  0  0  0  0
  8 10  1  0  0  0  0
 11  7  1  6  0  0  0
 11 13  1  0  0  0  0
 11 15  1  0  0  0  0
 12  8  1  1  0  0  0
 12 14  1  0  0  0  0
 12 16  1  0  0  0  0
 13 21  1  0  0  0  0
 14 22  1  0  0  0  0
 15 17  1  1  0  0  0
 15 19  1  0  0  0  0
 16 18  1  6  0  0  0
 16 20  1  0  0  0  0
 19 21  1  0  0  0  0
 20 22  1  0  0  0  0
 21 32  1  6  0  0  0
 22 42  1  1  0  0  0
 23 24  2  0  0  0  0
 23 28  1  0  0  0  0
 24 25  1  0  0  0  0
 25 26  2  0  0  0  0
 26 27  1  0  0  0  0
 26 32  1  0  0  0  0
 27 28  2  0  0  0  0
 27 30  1  0  0  0  0
 28 29  1  0  0  0  0
 30 31  2  0  0  0  0
 31 32  1  0  0  0  0
 33 34  2  0  0  0  0
 33 38  1  0  0  0  0
 34 35  1  0  0  0  0
 35 36  2  0  0  0  0
 36 37  1  0  0  0  0
 36 42  1  0  0  0  0
 37 38  2  0  0  0  0
 37 40  1  0  0  0  0
 38 39  1  0  0  0  0
 40 41  2  0  0  0  0
 41 42  1  0  0  0  0
M  CHG  2   3  -1   4  -1
M  END
>  <CHROM.1>
70.94670156,-102.60550068,6.51315917,-33.24043897,-15.58345386,-0.47785579
0.74187532,2.80444887

>  <Name>
ligand

>  <RI>
0

>  <Rbt.Current_Directory>
/home/itssahil/PROJECTS/Mol_Feturizer/New_Systems/rnas/4QLN

>  <Rbt.Executable>
rbdock ($Id: //depot/dev/client3/rdock/2013.1/src/exe/rbdock.cxx#4 $)

>  <Rbt.Library>
libRbt.so (2013.1, Build901 2013/11/27)

>  <Rbt.Parameter_File>
/export/apps/rDock/src/rDock_2013.1_src/data/scripts/dock_solv.prm

>  <Rbt.Receptor>
prm/pocket_docking_3.prm

>  <SCORE>
-32.3499

>  <SCORE.INTER>
-32.8251

>  <SCORE.INTER.CONST>
1

>  <SCORE.INTER.POLAR>
0

>  <SCORE.INTER.ROT>
2

>  <SCORE.INTER.SOLV>
30.9546

>  <SCORE.INTER.VDW>
-37.135

>  <SCORE.INTER.norm>
-0.781551

>  <SCORE.INTRA>
0.475248

>  <SCORE.INTRA.DIHEDRAL>
-0.000302914

>  <SCORE.INTRA.DIHEDRAL.0>
2.39985

>  <SCORE.INTRA.POLAR>
0

>  <SCORE.INTRA.POLAR.0>
0

>  <SCORE.INTRA.REPUL>
0

>  <SCORE.INTRA.REPUL.0>
0

>  <SCORE.INTRA.SOLV>
-0.0139508

>  <SCORE.INTRA.SOLV.lig_0>
-110.958

>  <SCORE.INTRA.VDW>
0.482375

>  <SCORE.INTRA.VDW.0>
-2.34644

>  <SCORE.INTRA.norm>
0.0113154

>  <SCORE.RESTR>
0

>  <SCORE.RESTR.CAVITY>
0

>  <SCORE.RESTR.norm>
0

>  <SCORE.SYSTEM>
0

>  <SCORE.SYSTEM.CONST>
0

>  <SCORE.SYSTEM.DIHEDRAL>
0

>  <SCORE.SYSTEM.SOLV>
0

>  <SCORE.SYSTEM.norm>
0

>  <SCORE.heavy>
42

>  <SCORE.norm>
-0.770235

>  <RMSD>
2.292

$$$$
ligand
 OpenBabel11021811513D
libRbt.so/2013.1/901 2013/11/27
 42 48  0  0  0  0  0  0  0  0999 V2000
    3.0433  -35.9299  -13.0948 P   0  0  2  0  0  0  0  0  0  0  0  0
    7.0939  -36.0915  -16.1083 P   0  0  1  0  0  0  0  0  0  0  0  0
    2.4944  -37.2259  -12.5454 O   0  5  0  0  0  0  0  0  0  0  0  0
    6.6021  -34.6829  -16.3413 O   0  5  0  0  0  0  0  0  0  0  0  0
    2.2092  -34.6727  -13.0334 O   0  0  0  0  0  0  0  0  0  0  0  0
    8.4615  -36.5033  -16.5978 O   0  0  0  0  0  0  0  0  0  0  0  0
    2.7461  -37.0871  -15.4463 C   0  0  0  0  0  0  0  0  0  0  0  0
    7.7415  -35.6091  -13.5980 C   0  0  0  0  0  0  0  0  0  0  0  0
    3.4742  -36.1747  -14.6263 O   0  0  0  0  0  0  0  0  0  0  0  0
    7.0088  -36.4006  -14.5304 O   0  0  0  0  0  0  0  0  0  0  0  0
    3.6840  -37.7013  -16.4788 C   0  0  1  0  0  0  0  0  0  0  0  0
    6.8155  -35.1518  -12.4781 C   0  0  1  0  0  0  0  0  0  0  0  0
    2.9269  -38.1770  -17.5950 O   0  0  0  0  0  0  0  0  0  0  0  0
    7.3453  -33.9742  -11.8646 O   0  0  0  0  0  0  0  0  0  0  0  0
    4.6809  -36.6776  -16.9951 C   0  0  1  0  0  0  0  0  0  0  0  0
    5.4310  -34.8160  -13.0092 C   0  0  1  0  0  0  0  0  0  0  0  0
    6.0106  -37.1112  -16.7252 O   0  0  0  0  0  0  0  0  0  0  0  0
    4.4530  -35.6355  -12.3758 O   0  0  0  0  0  0  0  0  0  0  0  0
    4.4597  -36.5806  -18.4932 C   0  0  0  0  0  0  0  0  0  0  0  0
    5.1841  -33.3580  -12.6735 C   0  0  0  0  0  0  0  0  0  0  0  0
    3.3337  -37.5518  -18.8152 C   0  0  2  0  0  0  0  0  0  0  0  0
    6.4340  -32.8760  -11.9508 C   0  0  2  0  0  0  0  0  0  0  0  0
    0.1442  -33.3986  -18.4197 N   0  0  0  0  0  0  0  0  0  0  0  0
    1.1644  -33.7873  -17.6327 C   0  0  0  0  0  0  0  0  0  0  0  0
    1.9044  -34.8886  -17.8575 N   0  0  0  0  0  0  0  0  0  0  0  0
    1.6544  -35.6889  -18.9214 C   0  0  0  0  0  0  0  0  0  0  0  0
    0.5541  -35.3305  -19.8301 C   0  0  0  0  0  0  0  0  0  0  0  0
   -0.2156  -34.1034  -19.5158 C   0  0  0  0  0  0  0  0  0  0  0  0
   -1.2440  -33.7013  -20.3008 N   0  0  0  0  0  0  0  0  0  0  0  0
    0.5225  -36.2771  -20.7868 N   0  0  0  0  0  0  0  0  0  0  0  0
    1.5141  -37.1638  -20.5158 C   0  0  0  0  0  0  0  0  0  0  0  0
    2.1891  -36.8133  -19.4041 N   0  0  0  0  0  0  0  0  0  0  0  0
    9.1294  -31.5018  -16.2425 N   0  0  0  0  0  0  0  0  0  0  0  0
    8.6970  -32.7111  -15.8398 C   0  0  0  0  0  0  0  0  0  0  0  0
    8.0089  -32.9182  -14.7026 N   0  0  0  0  0  0  0  0  0  0  0  0
    7.7055  -31.8874  -13.8772 C   0  0  0  0  0  0  0  0  0  0  0  0
    8.1439  -30.5333  -14.2489 C   0  0  0  0  0  0  0  0  0  0  0  0
    8.8969  -30.3868  -15.5169 C   0  0  0  0  0  0  0  0  0  0  0  0
    9.3371  -29.1741  -15.9337 N   0  0  0  0  0  0  0  0  0  0  0  0
    7.7180  -29.7103  -13.2720 N   0  0  0  0  0  0  0  0  0  0  0  0
    7.0651  -30.4705  -12.3557 C   0  0  0  0  0  0  0  0  0  0  0  0
    7.0577  -31.7671  -12.7159 N   0  0  0  0  0  0  0  0  0  0  0  0
  1  3  1  1  0  0  0
  1  5  2  0  0  0  0
  1  9  1  0  0  0  0
  1 18  1  0  0  0  0
  2  4  1  6  0  0  0
  2  6  2  0  0  0  0
  2 10  1  0  0  0  0
  2 17  1  0  0  0  0
  7  9  1  0  0  0  0
  8 10  1  0  0  0  0
 11  7  1  1  0  0  0
 11 13  1  0  0  0  0
 11 15  1  0  0  0  0
 12  8  1  6  0  0  0
 12 14  1  0  0  0  0
 12 16  1  0  0  0  0
 13 21  1  0  0  0  0
 14 22  1  0  0  0  0
 15 17  1  6  0  0  0
 15 19  1  0  0  0  0
 16 18  1  1  0  0  0
 16 20  1  0  0  0  0
 19 21  1  0  0  0  0
 20 22  1  0  0  0  0
 21 32  1  1  0  0  0
 22 42  1  6  0  0  0
 23 24  2  0  0  0  0
 23 28  1  0  0  0  0
 24 25  1  0  0  0  0
 25 26  2  0  0  0  0
 26 27  1  0  0  0  0
 26 32  1  0  0  0  0
 27 28  2  0  0  0  0
 27 30  1  0  0  0  0
 28 29  1  0  0  0  0
 30 31  2  0  0  0  0
 31 32  1  0  0  0  0
 33 34  2  0  0  0  0
 33 38  1  0  0  0  0
 34 35  1  0  0  0  0
 35 36  2  0  0  0  0
 36 37  1  0  0  0  0
 36 42  1  0  0  0  0
 37 38  2  0  0  0  0
 37 40  1  0  0  0  0
 38 39  1  0  0  0  0
 40 41  2  0  0  0  0
 41 42  1  0  0  0  0
M  CHG  2   3  -1   4  -1
M  END
>  <CHROM.1>
70.82594263,46.77417914,4.83064465,-34.73583074,-15.66322327,2.92529869,-0.74415688
-0.94473976

>  <Name>
ligand

>  <RI>
0

>  <Rbt.Current_Directory>
/home/itssahil/PROJECTS/Mol_Feturizer/New_Systems/rnas/4QLN

>  <Rbt.Executable>
rbdock ($Id: //depot/dev/client3/rdock/2013.1/src/exe/rbdock.cxx#4 $)

>  <Rbt.Library>
libRbt.so (2013.1, Build901 2013/11/27)

>  <Rbt.Parameter_File>
/export/apps/rDock/src/rDock_2013.1_src/data/scripts/dock_solv.prm

>  <Rbt.Receptor>
prm/pocket_docking_5.prm

>  <SCORE>
-23.5596

>  <SCORE.INTER>
-23.1345

>  <SCORE.INTER.CONST>
1

>  <SCORE.INTER.POLAR>
0

>  <SCORE.INTER.ROT>
2

>  <SCORE.INTER.SOLV>
25.4567

>  <SCORE.INTER.VDW>
-28.8419

>  <SCORE.INTER.norm>
-0.550821

>  <SCORE.INTRA>
-0.426568

>  <SCORE.INTRA.DIHEDRAL>
-0.000190948

>  <SCORE.INTRA.DIHEDRAL.0>
2.39985

>  <SCORE.INTRA.POLAR>
0

>  <SCORE.INTRA.POLAR.0>
0

>  <SCORE.INTRA.REPUL>
0

>  <SCORE.INTRA.REPUL.0>
0

>  <SCORE.INTRA.SOLV>
1.07879

>  <SCORE.INTRA.SOLV.lig_0>
-110.958

>  <SCORE.INTRA.VDW>
-0.965866

>  <SCORE.INTRA.VDW.0>
-2.34644

>  <SCORE.INTRA.norm>
-0.0101564

>  <SCORE.RESTR>
0.0014217

>  <SCORE.RESTR.CAVITY>
0.0014217

>  <SCORE.RESTR.norm>
3.38499e-05

>  <SCORE.SYSTEM>
0

>  <SCORE.SYSTEM.CONST>
0

>  <SCORE.SYSTEM.DIHEDRAL>
0

>  <SCORE.SYSTEM.SOLV>
0

>  <SCORE.SYSTEM.norm>
0

>  <SCORE.heavy>
42

>  <SCORE.norm>
-0.560943

>  <RMSD>
2.301

$$$$
ligand
 OpenBabel11021811513D
libRbt.so/2013.1/901 2013/11/27
 42 48  0  0  0  0  0  0  0  0999 V2000
    9.1696  -34.6142  -16.3808 P   0  0  2  0  0  0  0  0  0  0  0  0
    5.5250  -33.9246  -12.9521 P   0  0  1  0  0  0  0  0  0  0  0  0
   10.4851  -35.2078  -15.9333 O   0  5  0  0  0  0  0  0  0  0  0  0
    5.0101  -33.1003  -14.1079 O   0  5  0  0  0  0  0  0  0  0  0  0
    9.0702  -33.9296  -17.7229 O   0  0  0  0  0  0  0  0  0  0  0  0
    4.6167  -34.2416  -11.7885 O   0  0  0  0  0  0  0  0  0  0  0  0
    9.6172  -32.8257  -14.4946 C   0  0  0  0  0  0  0  0  0  0  0  0
    5.2450  -36.1994  -14.2560 C   0  0  0  0  0  0  0  0  0  0  0  0
    8.6726  -33.5820  -15.2501 O   0  0  0  0  0  0  0  0  0  0  0  0
    6.0976  -35.3110  -13.5373 O   0  0  0  0  0  0  0  0  0  0  0  0
    9.0522  -32.5493  -13.1064 C   0  0  1  0  0  0  0  0  0  0  0  0
    5.9130  -36.6004  -15.5653 C   0  0  1  0  0  0  0  0  0  0  0  0
    9.6962  -31.4032  -12.5432 O   0  0  0  0  0  0  0  0  0  0  0  0
    4.9200  -37.0166  -16.5058 O   0  0  0  0  0  0  0  0  0  0  0  0
    7.5612  -32.2630  -13.1654 C   0  0  1  0  0  0  0  0  0  0  0  0
    6.6725  -35.4340  -16.1772 C   0  0  1  0  0  0  0  0  0  0  0  0
    6.8498  -33.2120  -12.3767 O   0  0  0  0  0  0  0  0  0  0  0  0
    8.0498  -35.7689  -16.3193 O   0  0  0  0  0  0  0  0  0  0  0  0
    7.3691  -30.8683  -12.5995 C   0  0  0  0  0  0  0  0  0  0  0  0
    6.0543  -35.1864  -17.5396 C   0  0  0  0  0  0  0  0  0  0  0  0
    8.7577  -30.3722  -12.2247 C   0  0  2  0  0  0  0  0  0  0  0  0
    4.9459  -36.2183  -17.6916 C   0  0  2  0  0  0  0  0  0  0  0  0
    8.8732  -28.1042  -16.9598 N   0  0  0  0  0  0  0  0  0  0  0  0
    8.4880  -29.3425  -16.6000 C   0  0  0  0  0  0  0  0  0  0  0  0
    8.5124  -29.7942  -15.3325 N   0  0  0  0  0  0  0  0  0  0  0  0
    8.9386  -29.0016  -14.3200 C   0  0  0  0  0  0  0  0  0  0  0  0
    9.3763  -27.6323  -14.6331 C   0  0  0  0  0  0  0  0  0  0  0  0
    9.3210  -27.2079  -16.0522 C   0  0  0  0  0  0  0  0  0  0  0  0
    9.7052  -25.9639  -16.4268 N   0  0  0  0  0  0  0  0  0  0  0  0
    9.7435  -27.0704  -13.4662 N   0  0  0  0  0  0  0  0  0  0  0  0
    9.5579  -27.9969  -12.4914 C   0  0  0  0  0  0  0  0  0  0  0  0
    9.0778  -29.1480  -13.0001 N   0  0  0  0  0  0  0  0  0  0  0  0
    0.4084  -36.0351  -20.3279 N   0  0  0  0  0  0  0  0  0  0  0  0
    1.4540  -36.8726  -20.4577 C   0  0  0  0  0  0  0  0  0  0  0  0
    2.5662  -36.8019  -19.7045 N   0  0  0  0  0  0  0  0  0  0  0  0
    2.6959  -35.8539  -18.7451 C   0  0  0  0  0  0  0  0  0  0  0  0
    1.5942  -34.9004  -18.5419 C   0  0  0  0  0  0  0  0  0  0  0  0
    0.4025  -35.0435  -19.4112 C   0  0  0  0  0  0  0  0  0  0  0  0
   -0.6573  -34.2067  -19.2897 N   0  0  0  0  0  0  0  0  0  0  0  0
    1.9754  -34.0803  -17.5444 N   0  0  0  0  0  0  0  0  0  0  0  0
    3.2121  -34.4737  -17.1446 C   0  0  0  0  0  0  0  0  0  0  0  0
    3.6413  -35.5299  -17.8597 N   0  0  0  0  0  0  0  0  0  0  0  0
  1  3  1  1  0  0  0
  1  5  2  0  0  0  0
  1  9  1  0  0  0  0
  1 18  1  0  0  0  0
  2  4  1  6  0  0  0
  2  6  2  0  0  0  0
  2 10  1  0  0  0  0
  2 17  1  0  0  0  0
  7  9  1  0  0  0  0
  8 10  1  0  0  0  0
 11  7  1  6  0  0  0
 11 13  1  0  0  0  0
 11 15  1  0  0  0  0
 12  8  1  1  0  0  0
 12 14  1  0  0  0  0
 12 16  1  0  0  0  0
 13 21  1  0  0  0  0
 14 22  1  0  0  0  0
 15 17  1  1  0  0  0
 15 19  1  0  0  0  0
 16 18  1  6  0  0  0
 16 20  1  0  0  0  0
 19 21  1  0  0  0  0
 20 22  1  0  0  0  0
 21 32  1  6  0  0  0
 22 42  1  1  0  0  0
 23 24  2  0  0  0  0
 23 28  1  0  0  0  0
 24 25  1  0  0  0  0
 25 26  2  0  0  0  0
 26 27  1  0  0  0  0
 26 32  1  0  0  0  0
 27 28  2  0  0  0  0
 27 30  1  0  0  0  0
 28 29  1  0  0  0  0
 30 31  2  0  0  0  0
 31 32  1  0  0  0  0
 33 34  2  0  0  0  0
 33 38  1  0  0  0  0
 34 35  1  0  0  0  0
 35 36  2  0  0  0  0
 36 37  1  0  0  0  0
 36 42  1  0  0  0  0
 37 38  2  0  0  0  0
 37 40  1  0  0  0  0
 38 39  1  0  0  0  0
 40 41  2  0  0  0  0
 41 42  1  0  0  0  0
M  CHG  2   3  -1   4  -1
M  END
>  <CHROM.1>
69.35032683,-105.54245234,6.49186239,-33.11512259,-15.60689041,-0.47061531
0.74075720,2.79947908

>  <Name>
ligand

>  <RI>
0

>  <Rbt.Current_Directory>
/home/itssahil/PROJECTS/Mol_Feturizer/New_Systems/rnas/4QLN

>  <Rbt.Executable>
rbdock ($Id: //depot/dev/client3/rdock/2013.1/src/exe/rbdock.cxx#4 $)

>  <Rbt.Library>
libRbt.so (2013.1, Build901 2013/11/27)

>  <Rbt.Parameter_File>
/export/apps/rDock/src/rDock_2013.1_src/data/scripts/dock_solv.prm

>  <Rbt.Receptor>
prm/pocket_docking_4.prm

>  <SCORE>
-32.4348

>  <SCORE.INTER>
-32.7999

>  <SCORE.INTER.CONST>
1

>  <SCORE.INTER.POLAR>
0

>  <SCORE.INTER.ROT>
2

>  <SCORE.INTER.SOLV>
31.7336

>  <SCORE.INTER.VDW>
-37.3778

>  <SCORE.INTER.norm>
-0.780949

>  <SCORE.INTRA>
0.365029

>  <SCORE.INTRA.DIHEDRAL>
-0.000244024

>  <SCORE.INTRA.DIHEDRAL.0>
2.39985

>  <SCORE.INTRA.POLAR>
0

>  <SCORE.INTRA.POLAR.0>
0

>  <SCORE.INTRA.REPUL>
0

>  <SCORE.INTRA.REPUL.0>
0

>  <SCORE.INTRA.SOLV>
-0.00970665

>  <SCORE.INTRA.SOLV.lig_0>
-110.958

>  <SCORE.INTRA.VDW>
0.370005

>  <SCORE.INTRA.VDW.0>
-2.34644

>  <SCORE.INTRA.norm>
0.00869117

>  <SCORE.RESTR>
0

>  <SCORE.RESTR.CAVITY>
0

>  <SCORE.RESTR.norm>
0

>  <SCORE.SYSTEM>
0

>  <SCORE.SYSTEM.CONST>
0

>  <SCORE.SYSTEM.DIHEDRAL>
0

>  <SCORE.SYSTEM.SOLV>
0

>  <SCORE.SYSTEM.norm>
0

>  <SCORE.heavy>
42

>  <SCORE.norm>
-0.772258

>  <RMSD>
2.317

$$$$
ligand
 OpenBabel11021811513D
libRbt.so/2013.1/901 2013/11/27
 42 48  0  0  0  0  0  0  0  0999 V2000
    3.9542  -33.6143  -12.7056 P   0  0  2  0  0  0  0  0  0  0  0  0
    7.5190  -36.5125  -14.8047 P   0  0  1  0  0  0  0  0  0  0  0  0
    3.0575  -34.2163  -11.6490 O   0  5  0  0  0  0  0  0  0  0  0  0
    7.4908  -35.3371  -15.7524 O   0  5  0  0  0  0  0  0  0  0  0  0
    3.5744  -32.3076  -13.3601 O   0  0  0  0  0  0  0  0  0  0  0  0
    8.6444  -37.5160  -14.8814 O   0  0  0  0  0  0  0  0  0  0  0  0
    3.1388  -35.6319  -14.1960 C   0  0  0  0  0  0  0  0  0  0  0  0
    8.4596  -35.0703  -12.8076 C   0  0  0  0  0  0  0  0  0  0  0  0
    4.1763  -34.7116  -13.8621 O   0  0  0  0  0  0  0  0  0  0  0  0
    7.4487  -35.9476  -13.2986 O   0  0  0  0  0  0  0  0  0  0  0  0
    3.7557  -36.9364  -14.6864 C   0  0  1  0  0  0  0  0  0  0  0  0
    7.8095  -33.8525  -12.1630 C   0  0  1  0  0  0  0  0  0  0  0  0
    2.8105  -37.6427  -15.4946 O   0  0  0  0  0  0  0  0  0  0  0  0
    8.7308  -32.7593  -12.1590 O   0  0  0  0  0  0  0  0  0  0  0  0
    4.9903  -36.6776  -15.5333 C   0  0  1  0  0  0  0  0  0  0  0  0
    6.5729  -33.4151  -12.9319 C   0  0  1  0  0  0  0  0  0  0  0  0
    6.1256  -37.3074  -14.9474 O   0  0  0  0  0  0  0  0  0  0  0  0
    5.4300  -33.4563  -12.0827 O   0  0  0  0  0  0  0  0  0  0  0  0
    4.7087  -37.2787  -16.8978 C   0  0  0  0  0  0  0  0  0  0  0  0
    6.8314  -31.9919  -13.3873 C   0  0  0  0  0  0  0  0  0  0  0  0
    3.3109  -37.8737  -16.8143 C   0  0  2  0  0  0  0  0  0  0  0  0
    8.2168  -31.6307  -12.8706 C   0  0  2  0  0  0  0  0  0  0  0  0
    0.8116  -33.4654  -18.1920 N   0  0  0  0  0  0  0  0  0  0  0  0
    1.5956  -33.7223  -17.1287 C   0  0  0  0  0  0  0  0  0  0  0  0
    2.1776  -34.9139  -16.8995 N   0  0  0  0  0  0  0  0  0  0  0  0
    2.0003  -35.9500  -17.7539 C   0  0  0  0  0  0  0  0  0  0  0  0
    1.1558  -35.7477  -18.9416 C   0  0  0  0  0  0  0  0  0  0  0  0
    0.5489  -34.4079  -19.1249 C   0  0  0  0  0  0  0  0  0  0  0  0
   -0.2414  -34.1369  -20.1915 N   0  0  0  0  0  0  0  0  0  0  0  0
    1.1472  -36.9162  -19.6101 N   0  0  0  0  0  0  0  0  0  0  0  0
    1.9175  -37.7903  -18.9130 C   0  0  0  0  0  0  0  0  0  0  0  0
    2.4263  -37.2144  -17.8067 N   0  0  0  0  0  0  0  0  0  0  0  0
   12.0974  -33.3044  -15.9870 N   0  0  0  0  0  0  0  0  0  0  0  0
   11.4822  -33.9203  -14.9605 C   0  0  0  0  0  0  0  0  0  0  0  0
   10.4904  -33.3645  -14.2414 N   0  0  0  0  0  0  0  0  0  0  0  0
   10.0449  -32.1160  -14.5221 C   0  0  0  0  0  0  0  0  0  0  0  0
   10.6678  -31.3774  -15.6313 C   0  0  0  0  0  0  0  0  0  0  0  0
   11.7537  -32.0576  -16.3758 C   0  0  0  0  0  0  0  0  0  0  0  0
   12.3806  -31.4481  -17.4120 N   0  0  0  0  0  0  0  0  0  0  0  0
   10.0474  -30.1840  -15.6940 N   0  0  0  0  0  0  0  0  0  0  0  0
    9.1105  -30.1606  -14.7113 C   0  0  0  0  0  0  0  0  0  0  0  0
    9.1091  -31.3111  -14.0132 N   0  0  0  0  0  0  0  0  0  0  0  0
  1  3  1  1  0  0  0
  1  5  2  0  0  0  0
  1  9  1  0  0  0  0
  1 18  1  0  0  0  0
  2  4  1  6  0  0  0
  2  6  2  0  0  0  0
  2 10  1  0  0  0  0
  2 17  1  0  0  0  0
  7  9  1  0  0  0  0
  8 10  1  0  0  0  0
 11  7  1  6  0  0  0
 11 13  1  0  0  0  0
 11 15  1  0  0  0  0
 12  8  1  6  0  0  0
 12 14  1  0  0  0  0
 12 16  1  0  0  0  0
 13 21  1  0  0  0  0
 14 22  1  0  0  0  0
 15 17  1  1  0  0  0
 15 19  1  0  0  0  0
 16 18  1  1  0  0  0
 16 20  1  0  0  0  0
 19 21  1  0  0  0  0
 20 22  1  0  0  0  0
 21 32  1  6  0  0  0
 22 42  1  6  0  0  0
 23 24  2  0  0  0  0
 23 28  1  0  0  0  0
 24 25  1  0  0  0  0
 25 26  2  0  0  0  0
 26 27  1  0  0  0  0
 26 32  1  0  0  0  0
 27 28  2  0  0  0  0
 27 30  1  0  0  0  0
 28 29  1  0  0  0  0
 30 31  2  0  0  0  0
 31 32  1  0  0  0  0
 33 34  2  0  0  0  0
 33 38  1  0  0  0  0
 34 35  1  0  0  0  0
 35 36  2  0  0  0  0
 36 37  1  0  0  0  0
 36 42  1  0  0  0  0
 37 38  2  0  0  0  0
 37 40  1  0  0  0  0
 38 39  1  0  0  0  0
 40 41  2  0  0  0  0
 41 42  1  0  0  0  0
M  CHG  2   3  -1   4  -1
M  END
>  <CHROM.1>
49.33468297,15.70618843,5.87588746,-34.48436439,-15.19033134,2.72829780,-0.29374521
-1.81926119

>  <Name>
ligand

>  <RI>
0

>  <Rbt.Current_Directory>
/home/itssahil/PROJECTS/Mol_Feturizer/New_Systems/rnas/4QLN

>  <Rbt.Executable>
rbdock ($Id: //depot/dev/client3/rdock/2013.1/src/exe/rbdock.cxx#4 $)

>  <Rbt.Library>
libRbt.so (2013.1, Build901 2013/11/27)

>  <Rbt.Parameter_File>
/export/apps/rDock/src/rDock_2013.1_src/data/scripts/dock_solv.prm

>  <Rbt.Receptor>
prm/pocket_docking_6.prm

>  <SCORE>
-16.5501

>  <SCORE.INTER>
-15.9861

>  <SCORE.INTER.CONST>
1

>  <SCORE.INTER.POLAR>
0

>  <SCORE.INTER.ROT>
2

>  <SCORE.INTER.SOLV>
26.2034

>  <SCORE.INTER.VDW>
-24.3252

>  <SCORE.INTER.norm>
-0.380622

>  <SCORE.INTRA>
-0.564015

>  <SCORE.INTRA.DIHEDRAL>
-0.000540326

>  <SCORE.INTRA.DIHEDRAL.0>
2.39985

>  <SCORE.INTRA.POLAR>
0

>  <SCORE.INTRA.POLAR.0>
0

>  <SCORE.INTRA.REPUL>
0

>  <SCORE.INTRA.REPUL.0>
0

>  <SCORE.INTRA.SOLV>
0.0614959

>  <SCORE.INTRA.SOLV.lig_0>
-110.958

>  <SCORE.INTRA.VDW>
-0.594493

>  <SCORE.INTRA.VDW.0>
-2.34644

>  <SCORE.INTRA.norm>
-0.0134289

>  <SCORE.RESTR>
0

>  <SCORE.RESTR.CAVITY>
0

>  <SCORE.RESTR.norm>
0

>  <SCORE.SYSTEM>
0

>  <SCORE.SYSTEM.CONST>
0

>  <SCORE.SYSTEM.DIHEDRAL>
0

>  <SCORE.SYSTEM.SOLV>
0

>  <SCORE.SYSTEM.norm>
0

>  <SCORE.heavy>
42

>  <SCORE.norm>
-0.394051

>  <RMSD>
2.441

$$$$
ligand
 OpenBabel11021811513D
libRbt.so/2013.1/901 2013/11/27
 42 48  0  0  0  0  0  0  0  0999 V2000
   10.0116  -34.6825  -15.9301 P   0  0  2  0  0  0  0  0  0  0  0  0
    6.1165  -34.0780  -12.7714 P   0  0  1  0  0  0  0  0  0  0  0  0
   11.3548  -35.0750  -15.3604 O   0  5  0  0  0  0  0  0  0  0  0  0
    5.5847  -33.4359  -14.0305 O   0  5  0  0  0  0  0  0  0  0  0  0
    9.9183  -34.1494  -17.3397 O   0  0  0  0  0  0  0  0  0  0  0  0
    5.1806  -34.3802  -11.6259 O   0  0  0  0  0  0  0  0  0  0  0  0
   10.1496  -32.6772  -14.2222 C   0  0  0  0  0  0  0  0  0  0  0  0
    6.1631  -36.4874  -13.8420 C   0  0  0  0  0  0  0  0  0  0  0  0
    9.3392  -33.6071  -14.9389 O   0  0  0  0  0  0  0  0  0  0  0  0
    6.8700  -35.4411  -13.1801 O   0  0  0  0  0  0  0  0  0  0  0  0
    9.4765  -32.3315  -12.8993 C   0  0  1  0  0  0  0  0  0  0  0  0
    6.9472  -36.9368  -15.0685 C   0  0  1  0  0  0  0  0  0  0  0  0
    9.9577  -31.0694  -12.4290 O   0  0  0  0  0  0  0  0  0  0  0  0
    6.0629  -37.5543  -16.0068 O   0  0  0  0  0  0  0  0  0  0  0  0
    7.9695  -32.2243  -13.0595 C   0  0  1  0  0  0  0  0  0  0  0  0
    7.6106  -35.7576  -15.7619 C   0  0  1  0  0  0  0  0  0  0  0  0
    7.3196  -33.1658  -12.2108 O   0  0  0  0  0  0  0  0  0  0  0  0
    9.0221  -35.9455  -15.8020 O   0  0  0  0  0  0  0  0  0  0  0  0
    7.5938  -30.8116  -12.6526 C   0  0  0  0  0  0  0  0  0  0  0  0
    7.0512  -35.7177  -17.1709 C   0  0  0  0  0  0  0  0  0  0  0  0
    8.8956  -30.1258  -12.2655 C   0  0  2  0  0  0  0  0  0  0  0  0
    6.0723  -36.8792  -17.2671 C   0  0  2  0  0  0  0  0  0  0  0  0
   10.6010  -28.4482  -16.9405 N   0  0  0  0  0  0  0  0  0  0  0  0
   10.5320  -29.6949  -16.4383 C   0  0  0  0  0  0  0  0  0  0  0  0
   10.0671  -29.9806  -15.2082 N   0  0  0  0  0  0  0  0  0  0  0  0
    9.6295  -28.9981  -14.3848 C   0  0  0  0  0  0  0  0  0  0  0  0
    9.6726  -27.6070  -14.8621 C   0  0  0  0  0  0  0  0  0  0  0  0
   10.1984  -27.3723  -16.2279 C   0  0  0  0  0  0  0  0  0  0  0  0
   10.2720  -26.1221  -16.7448 N   0  0  0  0  0  0  0  0  0  0  0  0
    9.1884  -26.8436  -13.8645 N   0  0  0  0  0  0  0  0  0  0  0  0
    8.8638  -27.6714  -12.8385 C   0  0  0  0  0  0  0  0  0  0  0  0
    9.1264  -28.9556  -13.1485 N   0  0  0  0  0  0  0  0  0  0  0  0
    1.6397  -34.8420  -15.3244 N   0  0  0  0  0  0  0  0  0  0  0  0
    2.7675  -35.2231  -14.6965 C   0  0  0  0  0  0  0  0  0  0  0  0
    3.8386  -35.7353  -15.3289 N   0  0  0  0  0  0  0  0  0  0  0  0
    3.8378  -35.8994  -16.6739 C   0  0  0  0  0  0  0  0  0  0  0  0
    2.6402  -35.5056  -17.4321 C   0  0  0  0  0  0  0  0  0  0  0  0
    1.5018  -34.9491  -16.6635 C   0  0  0  0  0  0  0  0  0  0  0  0
    0.3608  -34.5611  -17.2845 N   0  0  0  0  0  0  0  0  0  0  0  0
    2.9015  -35.7690  -18.7264 N   0  0  0  0  0  0  0  0  0  0  0  0
    4.1554  -36.2862  -18.7911 C   0  0  0  0  0  0  0  0  0  0  0  0
    4.7130  -36.3640  -17.5688 N   0  0  0  0  0  0  0  0  0  0  0  0
  1  3  1  1  0  0  0
  1  5  2  0  0  0  0
  1  9  1  0  0  0  0
  1 18  1  0  0  0  0
  2  4  1  6  0  0  0
  2  6  2  0  0  0  0
  2 10  1  0  0  0  0
  2 17  1  0  0  0  0
  7  9  1  0  0  0  0
  8 10  1  0  0  0  0
 11  7  1  6  0  0  0
 11 13  1  0  0  0  0
 11 15  1  0  0  0  0
 12  8  1  1  0  0  0
 12 14  1  0  0  0  0
 12 16  1  0  0  0  0
 13 21  1  0  0  0  0
 14 22  1  0  0  0  0
 15 17  1  1  0  0  0
 15 19  1  0  0  0  0
 16 18  1  6  0  0  0
 16 20  1  0  0  0  0
 19 21  1  0  0  0  0
 20 22  1  0  0  0  0
 21 32  1  6  0  0  0
 22 42  1  1  0  0  0
 23 24  2  0  0  0  0
 23 28  1  0  0  0  0
 24 25  1  0  0  0  0
 25 26  2  0  0  0  0
 26 27  1  0  0  0  0
 26 32  1  0  0  0  0
 27 28  2  0  0  0  0
 27 30  1  0  0  0  0
 28 29  1  0  0  0  0
 30 31  2  0  0  0  0
 31 32  1  0  0  0  0
 33 34  2  0  0  0  0
 33 38  1  0  0  0  0
 34 35  1  0  0  0  0
 35 36  2  0  0  0  0
 36 37  1  0  0  0  0
 36 42  1  0  0  0  0
 37 38  2  0  0  0  0
 37 40  1  0  0  0  0
 38 39  1  0  0  0  0
 40 41  2  0  0  0  0
 41 42  1  0  0  0  0
M  CHG  2   3  -1   4  -1
M  END
>  <CHROM.1>
37.84799993,34.71418360,7.26815995,-33.22213610,-15.03127702,-0.88002901
-0.00470438,-2.88657378

>  <Name>
ligand

>  <RI>
0

>  <Rbt.Current_Directory>
/home/itssahil/PROJECTS/Mol_Feturizer/New_Systems/rnas/4QLN

>  <Rbt.Executable>
rbdock ($Id: //depot/dev/client3/rdock/2013.1/src/exe/rbdock.cxx#4 $)

>  <Rbt.Library>
libRbt.so (2013.1, Build901 2013/11/27)

>  <Rbt.Parameter_File>
/export/apps/rDock/src/rDock_2013.1_src/data/scripts/dock_solv.prm

>  <Rbt.Receptor>
prm/pocket_docking_4.prm

>  <SCORE>
-16.0461

>  <SCORE.INTER>
-15.8314

>  <SCORE.INTER.CONST>
1

>  <SCORE.INTER.POLAR>
0

>  <SCORE.INTER.ROT>
2

>  <SCORE.INTER.SOLV>
28.3619

>  <SCORE.INTER.VDW>
-24.9416

>  <SCORE.INTER.norm>
-0.376937

>  <SCORE.INTRA>
-0.459966

>  <SCORE.INTRA.DIHEDRAL>
-0.000820243

>  <SCORE.INTRA.DIHEDRAL.0>
2.39985

>  <SCORE.INTRA.POLAR>
0

>  <SCORE.INTRA.POLAR.0>
0

>  <SCORE.INTRA.REPUL>
0

>  <SCORE.INTRA.REPUL.0>
0

>  <SCORE.INTRA.SOLV>
0.676296

>  <SCORE.INTRA.SOLV.lig_0>
-110.958

>  <SCORE.INTRA.VDW>
-0.797704

>  <SCORE.INTRA.VDW.0>
-2.34644

>  <SCORE.INTRA.norm>
-0.0109516

>  <SCORE.RESTR>
0.245222

>  <SCORE.RESTR.CAVITY>
0.245222

>  <SCORE.RESTR.norm>
0.00583863

>  <SCORE.SYSTEM>
0

>  <SCORE.SYSTEM.CONST>
0

>  <SCORE.SYSTEM.DIHEDRAL>
0

>  <SCORE.SYSTEM.SOLV>
0

>  <SCORE.SYSTEM.norm>
0

>  <SCORE.heavy>
42

>  <SCORE.norm>
-0.38205

>  <RMSD>
2.456

$$$$
ligand
 OpenBabel11021811513D
libRbt.so/2013.1/901 2013/11/27
 42 48  0  0  0  0  0  0  0  0999 V2000
    3.8377  -33.7642  -12.8638 P   0  0  2  0  0  0  0  0  0  0  0  0
    7.4750  -36.5754  -14.9569 P   0  0  1  0  0  0  0  0  0  0  0  0
    2.8970  -34.4123  -11.8748 O   0  5  0  0  0  0  0  0  0  0  0  0
    7.4890  -35.3552  -15.8464 O   0  5  0  0  0  0  0  0  0  0  0  0
    3.4890  -32.4252  -13.4683 O   0  0  0  0  0  0  0  0  0  0  0  0
    8.5993  -37.5799  -15.0371 O   0  0  0  0  0  0  0  0  0  0  0  0
    3.0766  -35.7025  -14.4826 C   0  0  0  0  0  0  0  0  0  0  0  0
    8.3387  -35.2371  -12.8554 C   0  0  0  0  0  0  0  0  0  0  0  0
    4.1028  -34.8050  -14.0627 O   0  0  0  0  0  0  0  0  0  0  0  0
    7.3457  -36.0842  -13.4290 O   0  0  0  0  0  0  0  0  0  0  0  0
    3.7085  -36.9848  -15.0110 C   0  0  1  0  0  0  0  0  0  0  0  0
    7.6671  -34.0488  -12.1787 C   0  0  1  0  0  0  0  0  0  0  0  0
    2.7945  -37.6459  -15.8901 O   0  0  0  0  0  0  0  0  0  0  0  0
    8.5910  -32.9620  -12.0842 O   0  0  0  0  0  0  0  0  0  0  0  0
    4.9772  -36.6915  -15.7938 C   0  0  1  0  0  0  0  0  0  0  0  0
    6.4641  -33.5680  -12.9745 C   0  0  1  0  0  0  0  0  0  0  0  0
    6.0858  -37.3551  -15.1942 O   0  0  0  0  0  0  0  0  0  0  0  0
    5.2876  -33.6445  -12.1750 O   0  0  0  0  0  0  0  0  0  0  0  0
    4.7491  -37.2239  -17.1963 C   0  0  0  0  0  0  0  0  0  0  0  0
    6.7454  -32.1257  -13.3490 C   0  0  0  0  0  0  0  0  0  0  0  0
    3.3471  -37.8150  -17.1983 C   0  0  2  0  0  0  0  0  0  0  0  0
    8.1099  -31.7974  -12.7599 C   0  0  2  0  0  0  0  0  0  0  0  0
   -0.4735  -34.2953  -17.9681 N   0  0  0  0  0  0  0  0  0  0  0  0
    0.0867  -34.7318  -16.8249 C   0  0  0  0  0  0  0  0  0  0  0  0
    1.0697  -35.6497  -16.7771 N   0  0  0  0  0  0  0  0  0  0  0  0
    1.5635  -36.1995  -17.9124 C   0  0  0  0  0  0  0  0  0  0  0  0
    1.0024  -35.7731  -19.2040 C   0  0  0  0  0  0  0  0  0  0  0  0
   -0.0781  -34.7589  -19.1749 C   0  0  0  0  0  0  0  0  0  0  0  0
   -0.6493  -34.3110  -20.3189 N   0  0  0  0  0  0  0  0  0  0  0  0
    1.6604  -36.4626  -20.1547 N   0  0  0  0  0  0  0  0  0  0  0  0
    2.5630  -37.2604  -19.5287 C   0  0  0  0  0  0  0  0  0  0  0  0
    2.5055  -37.1035  -18.1921 N   0  0  0  0  0  0  0  0  0  0  0  0
   12.1157  -33.3335  -15.7876 N   0  0  0  0  0  0  0  0  0  0  0  0
   11.4584  -33.9948  -14.8170 C   0  0  0  0  0  0  0  0  0  0  0  0
   10.4380  -33.4708  -14.1144 N   0  0  0  0  0  0  0  0  0  0  0  0
   10.0047  -32.2097  -14.3552 C   0  0  0  0  0  0  0  0  0  0  0  0
   10.6731  -31.4219  -15.4024 C   0  0  0  0  0  0  0  0  0  0  0  0
   11.7887  -32.0693  -16.1321 C   0  0  0  0  0  0  0  0  0  0  0  0
   12.4580  -31.4139  -17.1122 N   0  0  0  0  0  0  0  0  0  0  0  0
   10.0561  -30.2256  -15.4353 N   0  0  0  0  0  0  0  0  0  0  0  0
    9.0794  -30.2456  -14.4922 C   0  0  0  0  0  0  0  0  0  0  0  0
    9.0488  -31.4271  -13.8487 N   0  0  0  0  0  0  0  0  0  0  0  0
  1  3  1  1  0  0  0
  1  5  2  0  0  0  0
  1  9  1  0  0  0  0
  1 18  1  0  0  0  0
  2  4  1  6  0  0  0
  2  6  2  0  0  0  0
  2 10  1  0  0  0  0
  2 17  1  0  0  0  0
  7  9  1  0  0  0  0
  8 10  1  0  0  0  0
 11  7  1  6  0  0  0
 11 13  1  0  0  0  0
 11 15  1  0  0  0  0
 12  8  1  6  0  0  0
 12 14  1  0  0  0  0
 12 16  1  0  0  0  0
 13 21  1  0  0  0  0
 14 22  1  0  0  0  0
 15 17  1  1  0  0  0
 15 19  1  0  0  0  0
 16 18  1  1  0  0  0
 16 20  1  0  0  0  0
 19 21  1  0  0  0  0
 20 22  1  0  0  0  0
 21 32  1  6  0  0  0
 22 42  1  6  0  0  0
 23 24  2  0  0  0  0
 23 28  1  0  0  0  0
 24 25  1  0  0  0  0
 25 26  2  0  0  0  0
 26 27  1  0  0  0  0
 26 32  1  0  0  0  0
 27 28  2  0  0  0  0
 27 30  1  0  0  0  0
 28 29  1  0  0  0  0
 30 31  2  0  0  0  0
 31 32  1  0  0  0  0
 33 34  2  0  0  0  0
 33 38  1  0  0  0  0
 34 35  1  0  0  0  0
 35 36  2  0  0  0  0
 36 37  1  0  0  0  0
 36 42  1  0  0  0  0
 37 38  2  0  0  0  0
 37 40  1  0  0  0  0
 38 39  1  0  0  0  0
 40 41  2  0  0  0  0
 41 42  1  0  0  0  0
M  CHG  2   3  -1   4  -1
M  END
>  <CHROM.1>
14.08392149,15.46956495,5.74158912,-34.60111529,-15.26772562,2.67476247,-0.18524270
-1.98762945

>  <Name>
ligand

>  <RI>
0

>  <Rbt.Current_Directory>
/home/itssahil/PROJECTS/Mol_Feturizer/New_Systems/rnas/4QLN

>  <Rbt.Executable>
rbdock ($Id: //depot/dev/client3/rdock/2013.1/src/exe/rbdock.cxx#4 $)

>  <Rbt.Library>
libRbt.so (2013.1, Build901 2013/11/27)

>  <Rbt.Parameter_File>
/export/apps/rDock/src/rDock_2013.1_src/data/scripts/dock_solv.prm

>  <Rbt.Receptor>
prm/pocket_docking_5.prm

>  <SCORE>
-14.571

>  <SCORE.INTER>
-14.4393

>  <SCORE.INTER.CONST>
1

>  <SCORE.INTER.POLAR>
0

>  <SCORE.INTER.ROT>
2

>  <SCORE.INTER.SOLV>
25.7834

>  <SCORE.INTER.VDW>
-23.154

>  <SCORE.INTER.norm>
-0.343793

>  <SCORE.INTRA>
-0.131727

>  <SCORE.INTRA.DIHEDRAL>
-0.000571133

>  <SCORE.INTRA.DIHEDRAL.0>
2.39985

>  <SCORE.INTRA.POLAR>
0

>  <SCORE.INTRA.POLAR.0>
0

>  <SCORE.INTRA.REPUL>
0

>  <SCORE.INTRA.REPUL.0>
0

>  <SCORE.INTRA.SOLV>
0.0774748

>  <SCORE.INTRA.SOLV.lig_0>
-110.958

>  <SCORE.INTRA.VDW>
-0.170179

>  <SCORE.INTRA.VDW.0>
-2.34644

>  <SCORE.INTRA.norm>
-0.00313636

>  <SCORE.RESTR>
0

>  <SCORE.RESTR.CAVITY>
0

>  <SCORE.RESTR.norm>
0

>  <SCORE.SYSTEM>
0

>  <SCORE.SYSTEM.CONST>
0

>  <SCORE.SYSTEM.DIHEDRAL>
0

>  <SCORE.SYSTEM.SOLV>
0

>  <SCORE.SYSTEM.norm>
0

>  <SCORE.heavy>
42

>  <SCORE.norm>
-0.346929

>  <RMSD>
2.463

$$$$
ligand
 OpenBabel11021811513D
libRbt.so/2013.1/901 2013/11/27
 42 48  0  0  0  0  0  0  0  0999 V2000
    2.8227  -34.1261  -13.0058 P   0  0  2  0  0  0  0  0  0  0  0  0
    6.7178  -36.4177  -15.2622 P   0  0  1  0  0  0  0  0  0  0  0  0
    1.8800  -34.9550  -12.1649 O   0  5  0  0  0  0  0  0  0  0  0  0
    6.6967  -35.0876  -15.9768 O   0  5  0  0  0  0  0  0  0  0  0  0
    2.4198  -32.7378  -13.4418 O   0  0  0  0  0  0  0  0  0  0  0  0
    7.9044  -37.3382  -15.4172 O   0  0  0  0  0  0  0  0  0  0  0  0
    2.2569  -35.8617  -14.9096 C   0  0  0  0  0  0  0  0  0  0  0  0
    7.4011  -35.3364  -12.9563 C   0  0  0  0  0  0  0  0  0  0  0  0
    3.2057  -34.9755  -14.3183 O   0  0  0  0  0  0  0  0  0  0  0  0
    6.4893  -36.1496  -13.6911 O   0  0  0  0  0  0  0  0  0  0  0  0
    2.9901  -37.0221  -15.5718 C   0  0  1  0  0  0  0  0  0  0  0  0
    6.6275  -34.2915  -12.1622 C   0  0  1  0  0  0  0  0  0  0  0  0
    2.1594  -37.6050  -16.5796 O   0  0  0  0  0  0  0  0  0  0  0  0
    7.4772  -33.1788  -11.8728 O   0  0  0  0  0  0  0  0  0  0  0  0
    4.2725  -36.5545  -16.2391 C   0  0  1  0  0  0  0  0  0  0  0  0
    5.4343  -33.7725  -12.9488 C   0  0  1  0  0  0  0  0  0  0  0  0
    5.3916  -37.2324  -15.6763 O   0  0  0  0  0  0  0  0  0  0  0  0
    4.2297  -34.0229  -12.2309 O   0  0  0  0  0  0  0  0  0  0  0  0
    4.1414  -36.9002  -17.7108 C   0  0  0  0  0  0  0  0  0  0  0  0
    5.6427  -32.2790  -13.1097 C   0  0  0  0  0  0  0  0  0  0  0  0
    2.7802  -37.5615  -17.8672 C   0  0  2  0  0  0  0  0  0  0  0  0
    6.9563  -31.9605  -12.4098 C   0  0  2  0  0  0  0  0  0  0  0  0
   -1.0575  -34.0089  -18.3465 N   0  0  0  0  0  0  0  0  0  0  0  0
   -0.5039  -34.5447  -17.2430 C   0  0  0  0  0  0  0  0  0  0  0  0
    0.4848  -35.4573  -17.2704 N   0  0  0  0  0  0  0  0  0  0  0  0
    0.9917  -35.8981  -18.4467 C   0  0  0  0  0  0  0  0  0  0  0  0
    0.4386  -35.3588  -19.6989 C   0  0  0  0  0  0  0  0  0  0  0  0
   -0.6489  -34.3579  -19.5870 C   0  0  0  0  0  0  0  0  0  0  0  0
   -1.2136  -33.8107  -20.6903 N   0  0  0  0  0  0  0  0  0  0  0  0
    1.1091  -35.9546  -20.7028 N   0  0  0  0  0  0  0  0  0  0  0  0
    2.0118  -36.8009  -20.1442 C   0  0  0  0  0  0  0  0  0  0  0  0
    1.9421  -36.7672  -18.7994 N   0  0  0  0  0  0  0  0  0  0  0  0
   11.1802  -32.8430  -15.4018 N   0  0  0  0  0  0  0  0  0  0  0  0
   10.5214  -33.6671  -14.5662 C   0  0  0  0  0  0  0  0  0  0  0  0
    9.4404  -33.3015  -13.8539 N   0  0  0  0  0  0  0  0  0  0  0  0
    8.9424  -32.0446  -13.9438 C   0  0  0  0  0  0  0  0  0  0  0  0
    9.6080  -31.0842  -14.8376 C   0  0  0  0  0  0  0  0  0  0  0  0
   10.7926  -31.5629  -15.5884 C   0  0  0  0  0  0  0  0  0  0  0  0
   11.4641  -30.7427  -16.4336 N   0  0  0  0  0  0  0  0  0  0  0  0
    8.9214  -29.9300  -14.7403 N   0  0  0  0  0  0  0  0  0  0  0  0
    7.9063  -30.1334  -13.8616 C   0  0  0  0  0  0  0  0  0  0  0  0
    7.9188  -31.3926  -13.3871 N   0  0  0  0  0  0  0  0  0  0  0  0
  1  3  1  1  0  0  0
  1  5  2  0  0  0  0
  1  9  1  0  0  0  0
  1 18  1  0  0  0  0
  2  4  1  6  0  0  0
  2  6  2  0  0  0  0
  2 10  1  0  0  0  0
  2 17  1  0  0  0  0
  7  9  1  0  0  0  0
  8 10  1  0  0  0  0
 11  7  1  6  0  0  0
 11 13  1  0  0  0  0
 11 15  1  0  0  0  0
 12  8  1  6  0  0  0
 12 14  1  0  0  0  0
 12 16  1  0  0  0  0
 13 21  1  0  0  0  0
 14 22  1  0  0  0  0
 15 17  1  1  0  0  0
 15 19  1  0  0  0  0
 16 18  1  1  0  0  0
 16 20  1  0  0  0  0
 19 21  1  0  0  0  0
 20 22  1  0  0  0  0
 21 32  1  6  0  0  0
 22 42  1  6  0  0  0
 23 24  2  0  0  0  0
 23 28  1  0  0  0  0
 24 25  1  0  0  0  0
 25 26  2  0  0  0  0
 26 27  1  0  0  0  0
 26 32  1  0  0  0  0
 27 28  2  0  0  0  0
 27 30  1  0  0  0  0
 28 29  1  0  0  0  0
 30 31  2  0  0  0  0
 31 32  1  0  0  0  0
 33 34  2  0  0  0  0
 33 38  1  0  0  0  0
 34 35  1  0  0  0  0
 35 36  2  0  0  0  0
 36 37  1  0  0  0  0
 36 42  1  0  0  0  0
 37 38  2  0  0  0  0
 37 40  1  0  0  0  0
 38 39  1  0  0  0  0
 40 41  2  0  0  0  0
 41 42  1  0  0  0  0
M  CHG  2   3  -1   4  -1
M  END
>  <CHROM.1>
18.69195510,15.54014894,4.89414410,-34.50332638,-15.39505301,2.60454864,-0.22157051
-1.86232297

>  <Name>
ligand

>  <RI>
0

>  <Rbt.Current_Directory>
/home/itssahil/PROJECTS/Mol_Feturizer/New_Systems/rnas/4QLN

>  <Rbt.Executable>
rbdock ($Id: //depot/dev/client3/rdock/2013.1/src/exe/rbdock.cxx#4 $)

>  <Rbt.Library>
libRbt.so (2013.1, Build901 2013/11/27)

>  <Rbt.Parameter_File>
/export/apps/rDock/src/rDock_2013.1_src/data/scripts/dock_solv.prm

>  <Rbt.Receptor>
prm/pocket_docking_4.prm

>  <SCORE>
-14.4735

>  <SCORE.INTER>
-14.3128

>  <SCORE.INTER.CONST>
1

>  <SCORE.INTER.POLAR>
0

>  <SCORE.INTER.ROT>
2

>  <SCORE.INTER.SOLV>
28.4976

>  <SCORE.INTER.VDW>
-23.9744

>  <SCORE.INTER.norm>
-0.340781

>  <SCORE.INTRA>
-0.160666

>  <SCORE.INTRA.DIHEDRAL>
-0.000614234

>  <SCORE.INTRA.DIHEDRAL.0>
2.39985

>  <SCORE.INTRA.POLAR>
0

>  <SCORE.INTRA.POLAR.0>
0

>  <SCORE.INTRA.REPUL>
0

>  <SCORE.INTRA.REPUL.0>
0

>  <SCORE.INTRA.SOLV>
0.0795233

>  <SCORE.INTRA.SOLV.lig_0>
-110.958

>  <SCORE.INTRA.VDW>
-0.20012

>  <SCORE.INTRA.VDW.0>
-2.34644

>  <SCORE.INTRA.norm>
-0.00382537

>  <SCORE.RESTR>
0

>  <SCORE.RESTR.CAVITY>
0

>  <SCORE.RESTR.norm>
0

>  <SCORE.SYSTEM>
0

>  <SCORE.SYSTEM.CONST>
0

>  <SCORE.SYSTEM.DIHEDRAL>
0

>  <SCORE.SYSTEM.SOLV>
0

>  <SCORE.SYSTEM.norm>
0

>  <SCORE.heavy>
42

>  <SCORE.norm>
-0.344607

>  <RMSD>
2.470

$$$$
ligand
 OpenBabel11021811513D
libRbt.so/2013.1/901 2013/11/27
 42 48  0  0  0  0  0  0  0  0999 V2000
    7.3277  -35.9023  -12.7641 P   0  0  2  0  0  0  0  0  0  0  0  0
    8.8287  -33.9555  -17.1768 P   0  0  1  0  0  0  0  0  0  0  0  0
    7.5366  -37.3773  -12.5122 O   0  5  0  0  0  0  0  0  0  0  0  0
    7.9560  -32.8461  -16.6403 O   0  5  0  0  0  0  0  0  0  0  0  0
    6.3923  -35.1125  -11.8802 O   0  0  0  0  0  0  0  0  0  0  0  0
    9.7255  -33.7020  -18.3646 O   0  0  0  0  0  0  0  0  0  0  0  0
    6.0503  -36.7043  -14.9279 C   0  0  0  0  0  0  0  0  0  0  0  0
   10.6409  -33.6462  -15.2864 C   0  0  0  0  0  0  0  0  0  0  0  0
    6.8566  -35.7142  -14.2918 O   0  0  0  0  0  0  0  0  0  0  0  0
    9.7367  -34.5117  -15.9690 O   0  0  0  0  0  0  0  0  0  0  0  0
    6.3529  -36.7226  -16.4215 C   0  0  1  0  0  0  0  0  0  0  0  0
   10.4367  -33.7781  -13.7824 C   0  0  1  0  0  0  0  0  0  0  0  0
    5.2455  -37.2846  -17.1309 O   0  0  0  0  0  0  0  0  0  0  0  0
   10.9036  -32.5966  -13.1267 O   0  0  0  0  0  0  0  0  0  0  0  0
    6.5824  -35.3184  -16.9542 C   0  0  1  0  0  0  0  0  0  0  0  0
    8.9658  -33.9501  -13.4381 C   0  0  1  0  0  0  0  0  0  0  0  0
    7.8866  -35.2165  -17.5178 O   0  0  0  0  0  0  0  0  0  0  0  0
    8.7663  -35.1804  -12.7485 O   0  0  0  0  0  0  0  0  0  0  0  0
    5.5333  -35.0891  -18.0263 C   0  0  0  0  0  0  0  0  0  0  0  0
    8.5957  -32.7850  -12.5407 C   0  0  0  0  0  0  0  0  0  0  0  0
    4.7131  -36.3689  -18.0918 C   0  0  2  0  0  0  0  0  0  0  0  0
    9.8639  -31.9587  -12.3809 C   0  0  2  0  0  0  0  0  0  0  0  0
    1.2702  -35.0497  -14.3523 N   0  0  0  0  0  0  0  0  0  0  0  0
    2.5987  -35.2513  -14.2766 C   0  0  0  0  0  0  0  0  0  0  0  0
    3.3646  -35.5901  -15.3300 N   0  0  0  0  0  0  0  0  0  0  0  0
    2.8223  -35.7505  -16.5609 C   0  0  0  0  0  0  0  0  0  0  0  0
    1.3744  -35.5470  -16.7253 C   0  0  0  0  0  0  0  0  0  0  0  0
    0.5980  -35.1761  -15.5184 C   0  0  0  0  0  0  0  0  0  0  0  0
   -0.7395  -34.9698  -15.5820 N   0  0  0  0  0  0  0  0  0  0  0  0
    1.1012  -35.7654  -18.0253 N   0  0  0  0  0  0  0  0  0  0  0  0
    2.2698  -36.0811  -18.6400 C   0  0  0  0  0  0  0  0  0  0  0  0
    3.2958  -36.0720  -17.7673 N   0  0  0  0  0  0  0  0  0  0  0  0
   10.3896  -28.7081  -16.4712 N   0  0  0  0  0  0  0  0  0  0  0  0
   10.7393  -30.0011  -16.3400 C   0  0  0  0  0  0  0  0  0  0  0  0
   10.5421  -30.7189  -15.2195 N   0  0  0  0  0  0  0  0  0  0  0  0
    9.9625  -30.1597  -14.1299 C   0  0  0  0  0  0  0  0  0  0  0  0
    9.5515  -28.7487  -14.1953 C   0  0  0  0  0  0  0  0  0  0  0  0
    9.8024  -28.0258  -15.4645 C   0  0  0  0  0  0  0  0  0  0  0  0
    9.4541  -26.7236  -15.6092 N   0  0  0  0  0  0  0  0  0  0  0  0
    9.0114  -28.4504  -12.9986 N   0  0  0  0  0  0  0  0  0  0  0  0
    9.0717  -29.5713  -12.2344 C   0  0  0  0  0  0  0  0  0  0  0  0
    9.6383  -30.5892  -12.9080 N   0  0  0  0  0  0  0  0  0  0  0  0
  1  3  1  1  0  0  0
  1  5  2  0  0  0  0
  1  9  1  0  0  0  0
  1 18  1  0  0  0  0
  2  4  1  1  0  0  0
  2  6  2  0  0  0  0
  2 10  1  0  0  0  0
  2 17  1  0  0  0  0
  7  9  1  0  0  0  0
  8 10  1  0  0  0  0
 11  7  1  1  0  0  0
 11 13  1  0  0  0  0
 11 15  1  0  0  0  0
 12  8  1  6  0  0  0
 12 14  1  0  0  0  0
 12 16  1  0  0  0  0
 13 21  1  0  0  0  0
 14 22  1  0  0  0  0
 15 17  1  6  0  0  0
 15 19  1  0  0  0  0
 16 18  1  1  0  0  0
 16 20  1  0  0  0  0
 19 21  1  0  0  0  0
 20 22  1  0  0  0  0
 21 32  1  1  0  0  0
 22 42  1  6  0  0  0
 23 24  2  0  0  0  0
 23 28  1  0  0  0  0
 24 25  1  0  0  0  0
 25 26  2  0  0  0  0
 26 27  1  0  0  0  0
 26 32  1  0  0  0  0
 27 28  2  0  0  0  0
 27 30  1  0  0  0  0
 28 29  1  0  0  0  0
 30 31  2  0  0  0  0
 31 32  1  0  0  0  0
 33 34  2  0  0  0  0
 33 38  1  0  0  0  0
 34 35  1  0  0  0  0
 35 36  2  0  0  0  0
 36 37  1  0  0  0  0
 36 42  1  0  0  0  0
 37 38  2  0  0  0  0
 37 40  1  0  0  0  0
 38 39  1  0  0  0  0
 40 41  2  0  0  0  0
 41 42  1  0  0  0  0
M  CHG  2   3  -1   4  -1
M  END
>  <CHROM.1>
47.35152066,22.14560542,7.05562777,-33.77793662,-15.21861693,-2.73349522
-0.55834864,-0.55208057

>  <Name>
ligand

>  <RI>
0

>  <Rbt.Current_Directory>
/home/itssahil/PROJECTS/Mol_Feturizer/New_Systems/rnas/4QLN

>  <Rbt.Executable>
rbdock ($Id: //depot/dev/client3/rdock/2013.1/src/exe/rbdock.cxx#4 $)

>  <Rbt.Library>
libRbt.so (2013.1, Build901 2013/11/27)

>  <Rbt.Parameter_File>
/export/apps/rDock/src/rDock_2013.1_src/data/scripts/dock_solv.prm

>  <Rbt.Receptor>
prm/pocket_docking_5.prm

>  <SCORE>
-11.2477

>  <SCORE.INTER>
-10.7991

>  <SCORE.INTER.CONST>
1

>  <SCORE.INTER.POLAR>
0

>  <SCORE.INTER.ROT>
2

>  <SCORE.INTER.SOLV>
29.1556

>  <SCORE.INTER.VDW>
-21.8513

>  <SCORE.INTER.norm>
-0.257121

>  <SCORE.INTRA>
-0.586307

>  <SCORE.INTRA.DIHEDRAL>
-0.000701057

>  <SCORE.INTRA.DIHEDRAL.0>
2.39985

>  <SCORE.INTRA.POLAR>
0

>  <SCORE.INTRA.POLAR.0>
0

>  <SCORE.INTRA.REPUL>
0

>  <SCORE.INTRA.REPUL.0>
0

>  <SCORE.INTRA.SOLV>
0.180174

>  <SCORE.INTRA.SOLV.lig_0>
-110.958

>  <SCORE.INTRA.VDW>
-0.676043

>  <SCORE.INTRA.VDW.0>
-2.34644

>  <SCORE.INTRA.norm>
-0.0139597

>  <SCORE.RESTR>
0.137687

>  <SCORE.RESTR.CAVITY>
0.137687

>  <SCORE.RESTR.norm>
0.00327826

>  <SCORE.SYSTEM>
0

>  <SCORE.SYSTEM.CONST>
0

>  <SCORE.SYSTEM.DIHEDRAL>
0

>  <SCORE.SYSTEM.SOLV>
0

>  <SCORE.SYSTEM.norm>
0

>  <SCORE.heavy>
42

>  <SCORE.norm>
-0.267803

>  <RMSD>
2.508

$$$$
ligand
 OpenBabel11021811513D
libRbt.so/2013.1/901 2013/11/27
 42 48  0  0  0  0  0  0  0  0999 V2000
    6.6124  -33.8134  -12.2590 P   0  0  2  0  0  0  0  0  0  0  0  0
    9.0630  -33.0941  -16.6168 P   0  0  1  0  0  0  0  0  0  0  0  0
    6.6227  -35.1910  -11.6384 O   0  5  0  0  0  0  0  0  0  0  0  0
    8.2258  -31.8402  -16.5325 O   0  5  0  0  0  0  0  0  0  0  0  0
    5.6197  -32.7803  -11.7823 O   0  0  0  0  0  0  0  0  0  0  0  0
   10.1777  -33.1897  -17.6307 O   0  0  0  0  0  0  0  0  0  0  0  0
    5.6654  -35.0490  -14.3881 C   0  0  0  0  0  0  0  0  0  0  0  0
   10.5323  -32.4321  -14.5296 C   0  0  0  0  0  0  0  0  0  0  0  0
    6.4418  -33.9796  -13.8509 O   0  0  0  0  0  0  0  0  0  0  0  0
    9.6808  -33.3869  -15.1590 O   0  0  0  0  0  0  0  0  0  0  0  0
    6.2253  -35.4496  -15.7478 C   0  0  1  0  0  0  0  0  0  0  0  0
   10.0517  -32.1799  -13.1061 C   0  0  1  0  0  0  0  0  0  0  0  0
    5.2104  -36.1059  -16.5127 O   0  0  0  0  0  0  0  0  0  0  0  0
   10.5118  -30.9016  -12.6610 O   0  0  0  0  0  0  0  0  0  0  0  0
    6.6867  -34.2338  -16.5334 C   0  0  1  0  0  0  0  0  0  0  0  0
    8.5333  -32.1801  -13.0279 C   0  0  1  0  0  0  0  0  0  0  0  0
    8.0738  -34.3458  -16.8373 O   0  0  0  0  0  0  0  0  0  0  0  0
    8.0909  -33.1909  -12.1269 O   0  0  0  0  0  0  0  0  0  0  0  0
    5.8736  -34.2163  -17.8145 C   0  0  0  0  0  0  0  0  0  0  0  0
    8.1295  -30.8119  -12.5135 C   0  0  0  0  0  0  0  0  0  0  0  0
    4.9528  -35.4255  -17.7439 C   0  0  2  0  0  0  0  0  0  0  0  0
    9.4261  -30.0435  -12.3016 C   0  0  2  0  0  0  0  0  0  0  0  0
    0.2589  -35.9733  -20.0341 N   0  0  0  0  0  0  0  0  0  0  0  0
    1.4235  -36.6008  -20.2813 C   0  0  0  0  0  0  0  0  0  0  0  0
    2.5623  -36.3562  -19.6071 N   0  0  0  0  0  0  0  0  0  0  0  0
    2.5976  -35.4374  -18.6124 C   0  0  0  0  0  0  0  0  0  0  0  0
    1.3630  -34.7085  -18.2818 C   0  0  0  0  0  0  0  0  0  0  0  0
    0.1498  -35.0329  -19.0692 C   0  0  0  0  0  0  0  0  0  0  0  0
   -1.0285  -34.4087  -18.8292 N   0  0  0  0  0  0  0  0  0  0  0  0
    1.6703  -33.8701  -17.2743 N   0  0  0  0  0  0  0  0  0  0  0  0
    2.9850  -34.0454  -16.9847 C   0  0  0  0  0  0  0  0  0  0  0  0
    3.5379  -34.9797  -17.7820 N   0  0  0  0  0  0  0  0  0  0  0  0
   10.3445  -28.0998  -17.0924 N   0  0  0  0  0  0  0  0  0  0  0  0
   10.4484  -29.3606  -16.6331 C   0  0  0  0  0  0  0  0  0  0  0  0
   10.1775  -29.7189  -15.3651 N   0  0  0  0  0  0  0  0  0  0  0  0
    9.7728  -28.7999  -14.4553 C   0  0  0  0  0  0  0  0  0  0  0  0
    9.6348  -27.3987  -14.8814 C   0  0  0  0  0  0  0  0  0  0  0  0
    9.9515  -27.0836  -16.2944 C   0  0  0  0  0  0  0  0  0  0  0  0
    9.8500  -25.8178  -16.7692 N   0  0  0  0  0  0  0  0  0  0  0  0
    9.2249  -26.7077  -13.8009 N   0  0  0  0  0  0  0  0  0  0  0  0
    9.1111  -27.5886  -12.7738 C   0  0  0  0  0  0  0  0  0  0  0  0
    9.4376  -28.8346  -13.1634 N   0  0  0  0  0  0  0  0  0  0  0  0
  1  3  1  1  0  0  0
  1  5  2  0  0  0  0
  1  9  1  0  0  0  0
  1 18  1  0  0  0  0
  2  4  1  6  0  0  0
  2  6  2  0  0  0  0
  2 10  1  0  0  0  0
  2 17  1  0  0  0  0
  7  9  1  0  0  0  0
  8 10  1  0  0  0  0
 11  7  1  1  0  0  0
 11 13  1  0  0  0  0
 11 15  1  0  0  0  0
 12  8  1  6  0  0  0
 12 14  1  0  0  0  0
 12 16  1  0  0  0  0
 13 21  1  0  0  0  0
 14 22  1  0  0  0  0
 15 17  1  6  0  0  0
 15 19  1  0  0  0  0
 16 18  1  1  0  0  0
 16 20  1  0  0  0  0
 19 21  1  0  0  0  0
 20 22  1  0  0  0  0
 21 32  1  1  0  0  0
 22 42  1  6  0  0  0
 23 24  2  0  0  0  0
 23 28  1  0  0  0  0
 24 25  1  0  0  0  0
 25 26  2  0  0  0  0
 26 27  1  0  0  0  0
 26 32  1  0  0  0  0
 27 28  2  0  0  0  0
 27 30  1  0  0  0  0
 28 29  1  0  0  0  0
 30 31  2  0  0  0  0
 31 32  1  0  0  0  0
 33 34  2  0  0  0  0
 33 38  1  0  0  0  0
 34 35  1  0  0  0  0
 35 36  2  0  0  0  0
 36 37  1  0  0  0  0
 36 42  1  0  0  0  0
 37 38  2  0  0  0  0
 37 40  1  0  0  0  0
 38 39  1  0  0  0  0
 40 41  2  0  0  0  0
 41 42  1  0  0  0  0
M  CHG  2   3  -1   4  -1
M  END
>  <CHROM.1>
-113.31514932,36.32737474,6.87867032,-32.59873977,-15.56115028,-0.04288250
0.76033167,2.22909362

>  <Name>
ligand

>  <RI>
0

>  <Rbt.Current_Directory>
/home/itssahil/PROJECTS/Mol_Feturizer/New_Systems/rnas/4QLN

>  <Rbt.Executable>
rbdock ($Id: //depot/dev/client3/rdock/2013.1/src/exe/rbdock.cxx#4 $)

>  <Rbt.Library>
libRbt.so (2013.1, Build901 2013/11/27)

>  <Rbt.Parameter_File>
/export/apps/rDock/src/rDock_2013.1_src/data/scripts/dock_solv.prm

>  <Rbt.Receptor>
prm/pocket_docking_6.prm

>  <SCORE>
-26.5888

>  <SCORE.INTER>
-27.1065

>  <SCORE.INTER.CONST>
1

>  <SCORE.INTER.POLAR>
0

>  <SCORE.INTER.ROT>
2

>  <SCORE.INTER.SOLV>
39.7723

>  <SCORE.INTER.VDW>
-36.2618

>  <SCORE.INTER.norm>
-0.645392

>  <SCORE.INTRA>
0.152915

>  <SCORE.INTRA.DIHEDRAL>
-0.000651964

>  <SCORE.INTRA.DIHEDRAL.0>
2.39985

>  <SCORE.INTRA.POLAR>
0

>  <SCORE.INTRA.POLAR.0>
0

>  <SCORE.INTRA.REPUL>
0

>  <SCORE.INTRA.REPUL.0>
0

>  <SCORE.INTRA.SOLV>
0.674804

>  <SCORE.INTRA.SOLV.lig_0>
-110.958

>  <SCORE.INTRA.VDW>
-0.184161

>  <SCORE.INTRA.VDW.0>
-2.34644

>  <SCORE.INTRA.norm>
0.00364083

>  <SCORE.RESTR>
0.364795

>  <SCORE.RESTR.CAVITY>
0.364795

>  <SCORE.RESTR.norm>
0.00868559

>  <SCORE.SYSTEM>
0

>  <SCORE.SYSTEM.CONST>
0

>  <SCORE.SYSTEM.DIHEDRAL>
0

>  <SCORE.SYSTEM.SOLV>
0

>  <SCORE.SYSTEM.norm>
0

>  <SCORE.heavy>
42

>  <SCORE.norm>
-0.633066

>  <RMSD>
2.620

$$$$
ligand
 OpenBabel11021811513D
libRbt.so/2013.1/901 2013/11/27
 42 48  0  0  0  0  0  0  0  0999 V2000
    7.1220  -34.0246  -12.3214 P   0  0  2  0  0  0  0  0  0  0  0  0
    9.8774  -33.1322  -16.4597 P   0  0  1  0  0  0  0  0  0  0  0  0
    7.2428  -35.3699  -11.6443 O   0  5  0  0  0  0  0  0  0  0  0  0
    8.8866  -31.9935  -16.5071 O   0  5  0  0  0  0  0  0  0  0  0  0
    5.9669  -33.1127  -11.9835 O   0  0  0  0  0  0  0  0  0  0  0  0
   11.0887  -33.1156  -17.3607 O   0  0  0  0  0  0  0  0  0  0  0  0
    6.5479  -35.4358  -14.4745 C   0  0  0  0  0  0  0  0  0  0  0  0
   11.0425  -32.2243  -14.2753 C   0  0  0  0  0  0  0  0  0  0  0  0
    7.1294  -34.2600  -13.9137 O   0  0  0  0  0  0  0  0  0  0  0  0
   10.3817  -33.2988  -14.9397 O   0  0  0  0  0  0  0  0  0  0  0  0
    7.2831  -35.8031  -15.7580 C   0  0  1  0  0  0  0  0  0  0  0  0
   10.3979  -31.9919  -12.9146 C   0  0  1  0  0  0  0  0  0  0  0  0
    6.4371  -36.6067  -16.5850 O   0  0  0  0  0  0  0  0  0  0  0  0
   10.6500  -30.6523  -12.4837 O   0  0  0  0  0  0  0  0  0  0  0  0
    7.6643  -34.5629  -16.5486 C   0  0  1  0  0  0  0  0  0  0  0  0
    8.8909  -32.1837  -12.9778 C   0  0  1  0  0  0  0  0  0  0  0  0
    9.0775  -34.5061  -16.7173 O   0  0  0  0  0  0  0  0  0  0  0  0
    8.4917  -33.2146  -12.0794 O   0  0  0  0  0  0  0  0  0  0  0  0
    6.9841  -34.6887  -17.8992 C   0  0  0  0  0  0  0  0  0  0  0  0
    8.2721  -30.8632  -12.5620 C   0  0  0  0  0  0  0  0  0  0  0  0
    6.2182  -36.0028  -17.8628 C   0  0  2  0  0  0  0  0  0  0  0  0
    9.4363  -29.9293  -12.2637 C   0  0  2  0  0  0  0  0  0  0  0  0
    2.0173  -33.2986  -16.2447 N   0  0  0  0  0  0  0  0  0  0  0  0
    3.2877  -33.2756  -15.8011 C   0  0  0  0  0  0  0  0  0  0  0  0
    4.2734  -34.0332  -16.3165 N   0  0  0  0  0  0  0  0  0  0  0  0
    4.0318  -34.8850  -17.3418 C   0  0  0  0  0  0  0  0  0  0  0  0
    2.6661  -34.9671  -17.8831 C   0  0  0  0  0  0  0  0  0  0  0  0
    1.6349  -34.1021  -17.2623 C   0  0  0  0  0  0  0  0  0  0  0  0
    0.3530  -34.1156  -17.7006 N   0  0  0  0  0  0  0  0  0  0  0  0
    2.7013  -35.8736  -18.8777 N   0  0  0  0  0  0  0  0  0  0  0  0
    3.9761  -36.3322  -18.9664 C   0  0  0  0  0  0  0  0  0  0  0  0
    4.7693  -35.7429  -18.0511 N   0  0  0  0  0  0  0  0  0  0  0  0
   10.2798  -28.1167  -17.1191 N   0  0  0  0  0  0  0  0  0  0  0  0
   10.4569  -29.3502  -16.6106 C   0  0  0  0  0  0  0  0  0  0  0  0
   10.1962  -29.6759  -15.3317 N   0  0  0  0  0  0  0  0  0  0  0  0
    9.7266  -28.7498  -14.4613 C   0  0  0  0  0  0  0  0  0  0  0  0
    9.5064  -27.3771  -14.9423 C   0  0  0  0  0  0  0  0  0  0  0  0
    9.8169  -27.0972  -16.3641 C   0  0  0  0  0  0  0  0  0  0  0  0
    9.6420  -25.8591  -16.8882 N   0  0  0  0  0  0  0  0  0  0  0  0
    9.0440  -26.6721  -13.8925 N   0  0  0  0  0  0  0  0  0  0  0  0
    8.9748  -27.5186  -12.8329 C   0  0  0  0  0  0  0  0  0  0  0  0
    9.3815  -28.7559  -13.1715 N   0  0  0  0  0  0  0  0  0  0  0  0
  1  3  1  1  0  0  0
  1  5  2  0  0  0  0
  1  9  1  0  0  0  0
  1 18  1  0  0  0  0
  2  4  1  6  0  0  0
  2  6  2  0  0  0  0
  2 10  1  0  0  0  0
  2 17  1  0  0  0  0
  7  9  1  0  0  0  0
  8 10  1  0  0  0  0
 11  7  1  1  0  0  0
 11 13  1  0  0  0  0
 11 15  1  0  0  0  0
 12  8  1  6  0  0  0
 12 14  1  0  0  0  0
 12 16  1  0  0  0  0
 13 21  1  0  0  0  0
 14 22  1  0  0  0  0
 15 17  1  6  0  0  0
 15 19  1  0  0  0  0
 16 18  1  1  0  0  0
 16 20  1  0  0  0  0
 19 21  1  0  0  0  0
 20 22  1  0  0  0  0
 21 32  1  1  0  0  0
 22 42  1  6  0  0  0
 23 24  2  0  0  0  0
 23 28  1  0  0  0  0
 24 25  1  0  0  0  0
 25 26  2  0  0  0  0
 26 27  1  0  0  0  0
 26 32  1  0  0  0  0
 27 28  2  0  0  0  0
 27 30  1  0  0  0  0
 28 29  1  0  0  0  0
 30 31  2  0  0  0  0
 31 32  1  0  0  0  0
 33 34  2  0  0  0  0
 33 38  1  0  0  0  0
 34 35  1  0  0  0  0
 35 36  2  0  0  0  0
 36 37  1  0  0  0  0
 36 42  1  0  0  0  0
 37 38  2  0  0  0  0
 37 40  1  0  0  0  0
 38 39  1  0  0  0  0
 40 41  2  0  0  0  0
 41 42  1  0  0  0  0
M  CHG  2   3  -1   4  -1
M  END
>  <CHROM.1>
65.60343491,42.52968562,7.54398401,-32.57277878,-15.28707020,-2.74511444
-0.75588578,-0.60666629

>  <Name>
ligand

>  <RI>
0

>  <Rbt.Current_Directory>
/home/itssahil/PROJECTS/Mol_Feturizer/New_Systems/rnas/4QLN

>  <Rbt.Executable>
rbdock ($Id: //depot/dev/client3/rdock/2013.1/src/exe/rbdock.cxx#4 $)

>  <Rbt.Library>
libRbt.so (2013.1, Build901 2013/11/27)

>  <Rbt.Parameter_File>
/export/apps/rDock/src/rDock_2013.1_src/data/scripts/dock_solv.prm

>  <Rbt.Receptor>
prm/pocket_docking_5.prm

>  <SCORE>
-20.0595

>  <SCORE.INTER>
-19.8262

>  <SCORE.INTER.CONST>
1

>  <SCORE.INTER.POLAR>
0

>  <SCORE.INTER.ROT>
2

>  <SCORE.INTER.SOLV>
35.3087

>  <SCORE.INTER.VDW>
-29.9204

>  <SCORE.INTER.norm>
-0.472053

>  <SCORE.INTRA>
-0.617374

>  <SCORE.INTRA.DIHEDRAL>
-0.00037154

>  <SCORE.INTRA.DIHEDRAL.0>
2.39985

>  <SCORE.INTRA.POLAR>
0

>  <SCORE.INTRA.POLAR.0>
0

>  <SCORE.INTRA.REPUL>
0

>  <SCORE.INTRA.REPUL.0>
0

>  <SCORE.INTRA.SOLV>
0.953023

>  <SCORE.INTRA.SOLV.lig_0>
-110.958

>  <SCORE.INTRA.VDW>
-1.0937

>  <SCORE.INTRA.VDW.0>
-2.34644

>  <SCORE.INTRA.norm>
-0.0146994

>  <SCORE.RESTR>
0.384095

>  <SCORE.RESTR.CAVITY>
0.384095

>  <SCORE.RESTR.norm>
0.00914513

>  <SCORE.SYSTEM>
0

>  <SCORE.SYSTEM.CONST>
0

>  <SCORE.SYSTEM.DIHEDRAL>
0

>  <SCORE.SYSTEM.SOLV>
0

>  <SCORE.SYSTEM.norm>
0

>  <SCORE.heavy>
42

>  <SCORE.norm>
-0.477607

>  <RMSD>
2.648

$$$$
ligand
 OpenBabel11021811513D
libRbt.so/2013.1/901 2013/11/27
 42 48  0  0  0  0  0  0  0  0999 V2000
    6.3974  -37.1112  -15.7202 P   0  0  2  0  0  0  0  0  0  0  0  0
    2.1564  -35.0499  -13.9093 P   0  0  1  0  0  0  0  0  0  0  0  0
    7.2600  -37.9330  -14.7910 O   0  5  0  0  0  0  0  0  0  0  0  0
    2.3176  -34.3078  -15.2145 O   0  5  0  0  0  0  0  0  0  0  0  0
    6.9556  -36.6319  -17.0388 O   0  0  0  0  0  0  0  0  0  0  0  0
    0.8574  -34.9584  -13.1454 O   0  0  0  0  0  0  0  0  0  0  0  0
    6.6623  -35.2235  -13.8971 C   0  0  0  0  0  0  0  0  0  0  0  0
    1.7080  -37.3571  -15.1047 C   0  0  0  0  0  0  0  0  0  0  0  0
    5.8579  -35.8316  -14.9062 O   0  0  0  0  0  0  0  0  0  0  0  0
    2.4794  -36.6055  -14.1705 O   0  0  0  0  0  0  0  0  0  0  0  0
    5.7620  -34.6133  -12.8295 C   0  0  1  0  0  0  0  0  0  0  0  0
    2.6390  -38.1000  -16.0547 C   0  0  1  0  0  0  0  0  0  0  0  0
    6.4713  -33.5872  -12.1297 O   0  0  0  0  0  0  0  0  0  0  0  0
    1.9495  -38.3981  -17.2710 O   0  0  0  0  0  0  0  0  0  0  0  0
    4.5238  -33.9850  -13.4464 C   0  0  1  0  0  0  0  0  0  0  0  0
    3.8561  -37.2587  -16.4049 C   0  0  1  0  0  0  0  0  0  0  0  0
    3.3510  -34.6032  -12.9257 O   0  0  0  0  0  0  0  0  0  0  0  0
    5.0468  -37.9360  -16.0141 O   0  0  0  0  0  0  0  0  0  0  0  0
    4.5513  -32.5169  -13.0639 C   0  0  0  0  0  0  0  0  0  0  0  0
    3.8326  -37.0751  -17.9101 C   0  0  0  0  0  0  0  0  0  0  0  0
    5.8103  -32.3231  -12.2320 C   0  0  2  0  0  0  0  0  0  0  0  0
    2.5990  -37.8171  -18.4044 C   0  0  2  0  0  0  0  0  0  0  0  0
    7.8920  -30.6877  -16.7674 N   0  0  0  0  0  0  0  0  0  0  0  0
    7.0422  -31.7010  -16.5181 C   0  0  0  0  0  0  0  0  0  0  0  0
    6.5862  -32.0094  -15.2901 N   0  0  0  0  0  0  0  0  0  0  0  0
    6.9697  -31.2934  -14.2060 C   0  0  0  0  0  0  0  0  0  0  0  0
    7.8982  -30.1681  -14.3969 C   0  0  0  0  0  0  0  0  0  0  0  0
    8.3565  -29.8910  -15.7789 C   0  0  0  0  0  0  0  0  0  0  0  0
    9.2112  -28.8733  -16.0426 N   0  0  0  0  0  0  0  0  0  0  0  0
    8.1122  -29.6362  -13.1788 N   0  0  0  0  0  0  0  0  0  0  0  0
    7.3858  -30.3564  -12.2862 C   0  0  0  0  0  0  0  0  0  0  0  0
    6.7046  -31.3441  -12.8983 N   0  0  0  0  0  0  0  0  0  0  0  0
    0.5003  -33.0039  -18.3658 N   0  0  0  0  0  0  0  0  0  0  0  0
    1.3812  -33.5731  -17.5222 C   0  0  0  0  0  0  0  0  0  0  0  0
    1.8379  -34.8314  -17.6555 N   0  0  0  0  0  0  0  0  0  0  0  0
    1.4217  -35.6162  -18.6786 C   0  0  0  0  0  0  0  0  0  0  0  0
    0.4582  -35.0650  -19.6440 C   0  0  0  0  0  0  0  0  0  0  0  0
    0.0027  -33.6712  -19.4292 C   0  0  0  0  0  0  0  0  0  0  0  0
   -0.8837  -33.0866  -20.2722 N   0  0  0  0  0  0  0  0  0  0  0  0
    0.2177  -36.0372  -20.5440 N   0  0  0  0  0  0  0  0  0  0  0  0
    0.9612  -37.1156  -20.1861 C   0  0  0  0  0  0  0  0  0  0  0  0
    1.6781  -36.8651  -19.0751 N   0  0  0  0  0  0  0  0  0  0  0  0
  1  3  1  1  0  0  0
  1  5  2  0  0  0  0
  1  9  1  0  0  0  0
  1 18  1  0  0  0  0
  2  4  1  6  0  0  0
  2  6  2  0  0  0  0
  2 10  1  0  0  0  0
  2 17  1  0  0  0  0
  7  9  1  0  0  0  0
  8 10  1  0  0  0  0
 11  7  1  6  0  0  0
 11 13  1  0  0  0  0
 11 15  1  0  0  0  0
 12  8  1  1  0  0  0
 12 14  1  0  0  0  0
 12 16  1  0  0  0  0
 13 21  1  0  0  0  0
 14 22  1  0  0  0  0
 15 17  1  1  0  0  0
 15 19  1  0  0  0  0
 16 18  1  6  0  0  0
 16 20  1  0  0  0  0
 19 21  1  0  0  0  0
 20 22  1  0  0  0  0
 21 32  1  6  0  0  0
 22 42  1  1  0  0  0
 23 24  2  0  0  0  0
 23 28  1  0  0  0  0
 24 25  1  0  0  0  0
 25 26  2  0  0  0  0
 26 27  1  0  0  0  0
 26 32  1  0  0  0  0
 27 28  2  0  0  0  0
 27 30  1  0  0  0  0
 28 29  1  0  0  0  0
 30 31  2  0  0  0  0
 31 32  1  0  0  0  0
 33 34  2  0  0  0  0
 33 38  1  0  0  0  0
 34 35  1  0  0  0  0
 35 36  2  0  0  0  0
 36 37  1  0  0  0  0
 36 42  1  0  0  0  0
 37 38  2  0  0  0  0
 37 40  1  0  0  0  0
 38 39  1  0  0  0  0
 40 41  2  0  0  0  0
 41 42  1  0  0  0  0
M  CHG  2   3  -1   4  -1
M  END
>  <CHROM.1>
75.98742339,79.47130645,4.21501858,-34.56792221,-15.72535251,-0.38545191
0.73829309,2.83820087

>  <Name>
ligand

>  <RI>
0

>  <Rbt.Current_Directory>
/home/itssahil/PROJECTS/Mol_Feturizer/New_Systems/rnas/4QLN

>  <Rbt.Executable>
rbdock ($Id: //depot/dev/client3/rdock/2013.1/src/exe/rbdock.cxx#4 $)

>  <Rbt.Library>
libRbt.so (2013.1, Build901 2013/11/27)

>  <Rbt.Parameter_File>
/export/apps/rDock/src/rDock_2013.1_src/data/scripts/dock_solv.prm

>  <Rbt.Receptor>
prm/pocket_docking_3.prm

>  <SCORE>
-19.5646

>  <SCORE.INTER>
-21.5578

>  <SCORE.INTER.CONST>
1

>  <SCORE.INTER.POLAR>
0

>  <SCORE.INTER.ROT>
2

>  <SCORE.INTER.SOLV>
31.3331

>  <SCORE.INTER.VDW>
-29.7496

>  <SCORE.INTER.norm>
-0.513282

>  <SCORE.INTRA>
1.47464

>  <SCORE.INTRA.DIHEDRAL>
0.000984455

>  <SCORE.INTRA.DIHEDRAL.0>
2.39985

>  <SCORE.INTRA.POLAR>
0

>  <SCORE.INTRA.POLAR.0>
0

>  <SCORE.INTRA.REPUL>
0

>  <SCORE.INTRA.REPUL.0>
0

>  <SCORE.INTRA.SOLV>
1.04212

>  <SCORE.INTRA.SOLV.lig_0>
-110.958

>  <SCORE.INTRA.VDW>
0.953094

>  <SCORE.INTRA.VDW.0>
-2.34644

>  <SCORE.INTRA.norm>
0.0351106

>  <SCORE.RESTR>
0.51855

>  <SCORE.RESTR.CAVITY>
0.51855

>  <SCORE.RESTR.norm>
0.0123464

>  <SCORE.SYSTEM>
0

>  <SCORE.SYSTEM.CONST>
0

>  <SCORE.SYSTEM.DIHEDRAL>
0

>  <SCORE.SYSTEM.SOLV>
0

>  <SCORE.SYSTEM.norm>
0

>  <SCORE.heavy>
42

>  <SCORE.norm>
-0.465825

>  <RMSD>
2.703

$$$$
ligand
 OpenBabel11021811513D
libRbt.so/2013.1/901 2013/11/27
 42 48  0  0  0  0  0  0  0  0999 V2000
    6.3996  -37.1151  -15.7236 P   0  0  2  0  0  0  0  0  0  0  0  0
    2.1609  -35.0539  -13.9072 P   0  0  1  0  0  0  0  0  0  0  0  0
    7.2635  -37.9368  -14.7955 O   0  5  0  0  0  0  0  0  0  0  0  0
    2.3203  -34.3119  -15.2128 O   0  5  0  0  0  0  0  0  0  0  0  0
    6.9560  -36.6358  -17.0430 O   0  0  0  0  0  0  0  0  0  0  0  0
    0.8628  -34.9625  -13.1416 O   0  0  0  0  0  0  0  0  0  0  0  0
    6.6667  -35.2273  -13.9010 C   0  0  0  0  0  0  0  0  0  0  0  0
    1.7110  -37.3612  -15.1020 C   0  0  0  0  0  0  0  0  0  0  0  0
    5.8610  -35.8355  -14.9090 O   0  0  0  0  0  0  0  0  0  0  0  0
    2.4836  -36.6095  -14.1689 O   0  0  0  0  0  0  0  0  0  0  0  0
    5.7678  -34.6171  -12.8322 C   0  0  1  0  0  0  0  0  0  0  0  0
    2.6408  -38.1041  -16.0532 C   0  0  1  0  0  0  0  0  0  0  0  0
    6.4780  -33.5910  -12.1334 O   0  0  0  0  0  0  0  0  0  0  0  0
    1.9497  -38.4023  -17.2686 O   0  0  0  0  0  0  0  0  0  0  0  0
    4.5288  -33.9889  -13.4476 C   0  0  1  0  0  0  0  0  0  0  0  0
    3.8574  -37.2628  -16.4050 C   0  0  1  0  0  0  0  0  0  0  0  0
    3.3567  -34.6071  -12.9253 O   0  0  0  0  0  0  0  0  0  0  0  0
    5.0486  -37.9400  -16.0157 O   0  0  0  0  0  0  0  0  0  0  0  0
    4.5567  -32.5207  -13.0652 C   0  0  0  0  0  0  0  0  0  0  0  0
    3.8319  -37.0792  -17.9102 C   0  0  0  0  0  0  0  0  0  0  0  0
    5.8168  -32.3269  -12.2349 C   0  0  2  0  0  0  0  0  0  0  0  0
    2.5977  -37.8213  -18.4028 C   0  0  2  0  0  0  0  0  0  0  0  0
    7.9888  -30.7667  -16.7544 N   0  0  0  0  0  0  0  0  0  0  0  0
    7.1518  -31.7898  -16.5016 C   0  0  0  0  0  0  0  0  0  0  0  0
    6.6688  -32.0758  -15.2785 N   0  0  0  0  0  0  0  0  0  0  0  0
    7.0094  -31.3252  -14.2035 C   0  0  0  0  0  0  0  0  0  0  0  0
    7.9213  -30.1872  -14.3988 C   0  0  0  0  0  0  0  0  0  0  0  0
    8.4115  -29.9363  -15.7750 C   0  0  0  0  0  0  0  0  0  0  0  0
    9.2536  -28.9092  -16.0422 N   0  0  0  0  0  0  0  0  0  0  0  0
    8.0924  -29.6205  -13.1897 N   0  0  0  0  0  0  0  0  0  0  0  0
    7.3560  -30.3318  -12.2982 C   0  0  0  0  0  0  0  0  0  0  0  0
    6.7102  -31.3478  -12.9024 N   0  0  0  0  0  0  0  0  0  0  0  0
    0.4912  -33.0116  -18.3560 N   0  0  0  0  0  0  0  0  0  0  0  0
    1.3723  -33.5811  -17.5129 C   0  0  0  0  0  0  0  0  0  0  0  0
    1.8311  -34.8384  -17.6484 N   0  0  0  0  0  0  0  0  0  0  0  0
    1.4171  -35.6217  -18.6735 C   0  0  0  0  0  0  0  0  0  0  0  0
    0.4536  -35.0701  -19.6386 C   0  0  0  0  0  0  0  0  0  0  0  0
   -0.0044  -33.6774  -19.4213 C   0  0  0  0  0  0  0  0  0  0  0  0
   -0.8909  -33.0925  -20.2639 N   0  0  0  0  0  0  0  0  0  0  0  0
    0.2155  -36.0408  -20.5408 N   0  0  0  0  0  0  0  0  0  0  0  0
    0.9604  -37.1188  -20.1845 C   0  0  0  0  0  0  0  0  0  0  0  0
    1.6759  -36.8694  -19.0724 N   0  0  0  0  0  0  0  0  0  0  0  0
  1  3  1  1  0  0  0
  1  5  2  0  0  0  0
  1  9  1  0  0  0  0
  1 18  1  0  0  0  0
  2  4  1  6  0  0  0
  2  6  2  0  0  0  0
  2 10  1  0  0  0  0
  2 17  1  0  0  0  0
  7  9  1  0  0  0  0
  8 10  1  0  0  0  0
 11  7  1  6  0  0  0
 11 13  1  0  0  0  0
 11 15  1  0  0  0  0
 12  8  1  1  0  0  0
 12 14  1  0  0  0  0
 12 16  1  0  0  0  0
 13 21  1  0  0  0  0
 14 22  1  0  0  0  0
 15 17  1  1  0  0  0
 15 19  1  0  0  0  0
 16 18  1  6  0  0  0
 16 20  1  0  0  0  0
 19 21  1  0  0  0  0
 20 22  1  0  0  0  0
 21 32  1  6  0  0  0
 22 42  1  1  0  0  0
 23 24  2  0  0  0  0
 23 28  1  0  0  0  0
 24 25  1  0  0  0  0
 25 26  2  0  0  0  0
 26 27  1  0  0  0  0
 26 32  1  0  0  0  0
 27 28  2  0  0  0  0
 27 30  1  0  0  0  0
 28 29  1  0  0  0  0
 30 31  2  0  0  0  0
 31 32  1  0  0  0  0
 33 34  2  0  0  0  0
 33 38  1  0  0  0  0
 34 35  1  0  0  0  0
 35 36  2  0  0  0  0
 36 37  1  0  0  0  0
 36 42  1  0  0  0  0
 37 38  2  0  0  0  0
 37 40  1  0  0  0  0
 38 39  1  0  0  0  0
 40 41  2  0  0  0  0
 41 42  1  0  0  0  0
M  CHG  2   3  -1   4  -1
M  END
>  <CHROM.1>
73.55434923,79.27472661,4.22433929,-34.57838390,-15.72406694,-0.38476844
0.73297544,2.84122238

>  <Name>
ligand

>  <RI>
0

>  <Rbt.Current_Directory>
/home/itssahil/PROJECTS/Mol_Feturizer/New_Systems/rnas/4QLN

>  <Rbt.Executable>
rbdock ($Id: //depot/dev/client3/rdock/2013.1/src/exe/rbdock.cxx#4 $)

>  <Rbt.Library>
libRbt.so (2013.1, Build901 2013/11/27)

>  <Rbt.Parameter_File>
/export/apps/rDock/src/rDock_2013.1_src/data/scripts/dock_solv.prm

>  <Rbt.Receptor>
prm/pocket_docking_3.prm

>  <SCORE>
-19.6042

>  <SCORE.INTER>
-21.5181

>  <SCORE.INTER.CONST>
1

>  <SCORE.INTER.POLAR>
0

>  <SCORE.INTER.ROT>
2

>  <SCORE.INTER.SOLV>
31.1819

>  <SCORE.INTER.VDW>
-29.6727

>  <SCORE.INTER.norm>
-0.512335

>  <SCORE.INTRA>
1.40203

>  <SCORE.INTRA.DIHEDRAL>
0.000956523

>  <SCORE.INTRA.DIHEDRAL.0>
2.39985

>  <SCORE.INTRA.POLAR>
0

>  <SCORE.INTRA.POLAR.0>
0

>  <SCORE.INTRA.REPUL>
0

>  <SCORE.INTRA.REPUL.0>
0

>  <SCORE.INTRA.SOLV>
1.0492

>  <SCORE.INTRA.SOLV.lig_0>
-110.958

>  <SCORE.INTRA.VDW>
0.876948

>  <SCORE.INTRA.VDW.0>
-2.34644

>  <SCORE.INTRA.norm>
0.0333816

>  <SCORE.RESTR>
0.511811

>  <SCORE.RESTR.CAVITY>
0.511811

>  <SCORE.RESTR.norm>
0.012186

>  <SCORE.SYSTEM>
0

>  <SCORE.SYSTEM.CONST>
0

>  <SCORE.SYSTEM.DIHEDRAL>
0

>  <SCORE.SYSTEM.SOLV>
0

>  <SCORE.SYSTEM.norm>
0

>  <SCORE.heavy>
42

>  <SCORE.norm>
-0.466767

>  <RMSD>
2.704

$$$$
ligand
 OpenBabel11021811513D
libRbt.so/2013.1/901 2013/11/27
 42 48  0  0  0  0  0  0  0  0999 V2000
    6.8014  -36.4331  -15.4275 P   0  0  2  0  0  0  0  0  0  0  0  0
    4.1748  -34.0944  -11.8018 P   0  0  1  0  0  0  0  0  0  0  0  0
    8.0530  -37.1885  -15.0456 O   0  5  0  0  0  0  0  0  0  0  0  0
    3.5790  -33.4820  -13.0470 O   0  5  0  0  0  0  0  0  0  0  0  0
    6.5384  -36.0947  -16.8753 O   0  0  0  0  0  0  0  0  0  0  0  0
    3.4989  -33.8958  -10.4664 O   0  0  0  0  0  0  0  0  0  0  0  0
    7.9639  -34.3918  -14.2281 C   0  0  0  0  0  0  0  0  0  0  0  0
    3.2115  -36.4896  -12.3390 C   0  0  0  0  0  0  0  0  0  0  0  0
    6.7570  -35.0687  -14.5747 O   0  0  0  0  0  0  0  0  0  0  0  0
    4.3461  -35.6760  -12.0502 O   0  0  0  0  0  0  0  0  0  0  0  0
    7.7735  -33.6598  -12.9050 C   0  0  1  0  0  0  0  0  0  0  0  0
    3.4954  -37.3435  -13.5683 C   0  0  1  0  0  0  0  0  0  0  0  0
    8.7208  -32.5931  -12.8035 O   0  0  0  0  0  0  0  0  0  0  0  0
    2.2634  -37.7344  -14.1791 O   0  0  0  0  0  0  0  0  0  0  0  0
    6.3823  -33.0575  -12.8040 C   0  0  1  0  0  0  0  0  0  0  0  0
    4.3021  -36.5729  -14.6013 C   0  0  1  0  0  0  0  0  0  0  0  0
    5.6994  -33.5914  -11.6738 O   0  0  0  0  0  0  0  0  0  0  0  0
    5.5317  -37.2437  -14.8603 O   0  0  0  0  0  0  0  0  0  0  0  0
    6.5731  -31.5614  -12.6372 C   0  0  0  0  0  0  0  0  0  0  0  0
    3.4580  -36.5298  -15.8604 C   0  0  0  0  0  0  0  0  0  0  0  0
    8.0763  -31.3261  -12.6470 C   0  0  2  0  0  0  0  0  0  0  0  0
    2.1750  -37.2800  -15.5318 C   0  0  2  0  0  0  0  0  0  0  0  0
    9.9558  -26.6445  -14.1058 N   0  0  0  0  0  0  0  0  0  0  0  0
    9.7473  -27.1511  -12.8765 C   0  0  0  0  0  0  0  0  0  0  0  0
    9.2533  -28.3821  -12.6492 N   0  0  0  0  0  0  0  0  0  0  0  0
    8.9304  -29.2025  -13.6776 C   0  0  0  0  0  0  0  0  0  0  0  0
    9.1302  -28.7206  -15.0533 C   0  0  0  0  0  0  0  0  0  0  0  0
    9.6775  -27.3536  -15.2227 C   0  0  0  0  0  0  0  0  0  0  0  0
    9.8926  -26.8328  -16.4549 N   0  0  0  0  0  0  0  0  0  0  0  0
    8.7362  -29.7158  -15.8698 N   0  0  0  0  0  0  0  0  0  0  0  0
    8.3205  -30.7445  -15.0874 C   0  0  0  0  0  0  0  0  0  0  0  0
    8.4364  -30.4388  -13.7807 N   0  0  0  0  0  0  0  0  0  0  0  0
   -2.3638  -35.6216  -13.4773 N   0  0  0  0  0  0  0  0  0  0  0  0
   -1.4947  -36.5460  -13.0284 C   0  0  0  0  0  0  0  0  0  0  0  0
   -0.3565  -36.8738  -13.6660 N   0  0  0  0  0  0  0  0  0  0  0  0
   -0.0147  -36.2709  -14.8304 C   0  0  0  0  0  0  0  0  0  0  0  0
   -0.9143  -35.2482  -15.3860 C   0  0  0  0  0  0  0  0  0  0  0  0
   -2.1486  -34.9427  -14.6247 C   0  0  0  0  0  0  0  0  0  0  0  0
   -3.0314  -34.0132  -15.0661 N   0  0  0  0  0  0  0  0  0  0  0  0
   -0.3462  -34.8168  -16.5280 N   0  0  0  0  0  0  0  0  0  0  0  0
    0.8143  -35.5032  -16.6894 C   0  0  0  0  0  0  0  0  0  0  0  0
    1.0117  -36.3694  -15.6786 N   0  0  0  0  0  0  0  0  0  0  0  0
  1  3  1  1  0  0  0
  1  5  2  0  0  0  0
  1  9  1  0  0  0  0
  1 18  1  0  0  0  0
  2  4  1  6  0  0  0
  2  6  2  0  0  0  0
  2 10  1  0  0  0  0
  2 17  1  0  0  0  0
  7  9  1  0  0  0  0
  8 10  1  0  0  0  0
 11  7  1  6  0  0  0
 11 13  1  0  0  0  0
 11 15  1  0  0  0  0
 12  8  1  1  0  0  0
 12 14  1  0  0  0  0
 12 16  1  0  0  0  0
 13 21  1  0  0  0  0
 14 22  1  0  0  0  0
 15 17  1  1  0  0  0
 15 19  1  0  0  0  0
 16 18  1  6  0  0  0
 16 20  1  0  0  0  0
 19 21  1  0  0  0  0
 20 22  1  0  0  0  0
 21 32  1  6  0  0  0
 22 42  1  1  0  0  0
 23 24  2  0  0  0  0
 23 28  1  0  0  0  0
 24 25  1  0  0  0  0
 25 26  2  0  0  0  0
 26 27  1  0  0  0  0
 26 32  1  0  0  0  0
 27 28  2  0  0  0  0
 27 30  1  0  0  0  0
 28 29  1  0  0  0  0
 30 31  2  0  0  0  0
 31 32  1  0  0  0  0
 33 34  2  0  0  0  0
 33 38  1  0  0  0  0
 34 35  1  0  0  0  0
 35 36  2  0  0  0  0
 36 37  1  0  0  0  0
 36 42  1  0  0  0  0
 37 38  2  0  0  0  0
 37 40  1  0  0  0  0
 38 39  1  0  0  0  0
 40 41  2  0  0  0  0
 41 42  1  0  0  0  0
M  CHG  2   3  -1   4  -1
M  END
>  <CHROM.1>
-127.50492122,-17.80978770,4.89733365,-33.81353546,-14.07566944,-2.47452070
0.03534765,0.09626200

>  <Name>
ligand

>  <RI>
0

>  <Rbt.Current_Directory>
/home/itssahil/PROJECTS/Mol_Feturizer/New_Systems/rnas/4QLN

>  <Rbt.Executable>
rbdock ($Id: //depot/dev/client3/rdock/2013.1/src/exe/rbdock.cxx#4 $)

>  <Rbt.Library>
libRbt.so (2013.1, Build901 2013/11/27)

>  <Rbt.Parameter_File>
/export/apps/rDock/src/rDock_2013.1_src/data/scripts/dock_solv.prm

>  <Rbt.Receptor>
prm/pocket_docking_6.prm

>  <SCORE>
-15.5569

>  <SCORE.INTER>
-16.5093

>  <SCORE.INTER.CONST>
1

>  <SCORE.INTER.POLAR>
0

>  <SCORE.INTER.ROT>
2

>  <SCORE.INTER.SOLV>
28.8331

>  <SCORE.INTER.VDW>
-25.5506

>  <SCORE.INTER.norm>
-0.393079

>  <SCORE.INTRA>
0.947498

>  <SCORE.INTRA.DIHEDRAL>
0.00085428

>  <SCORE.INTRA.DIHEDRAL.0>
2.39985

>  <SCORE.INTRA.POLAR>
0

>  <SCORE.INTRA.POLAR.0>
0

>  <SCORE.INTRA.REPUL>
0

>  <SCORE.INTRA.REPUL.0>
0

>  <SCORE.INTRA.SOLV>
-0.0754866

>  <SCORE.INTRA.SOLV.lig_0>
-110.958

>  <SCORE.INTRA.VDW>
0.984814

>  <SCORE.INTRA.VDW.0>
-2.34644

>  <SCORE.INTRA.norm>
0.0225595

>  <SCORE.RESTR>
0.00494461

>  <SCORE.RESTR.CAVITY>
0.00494461

>  <SCORE.RESTR.norm>
0.000117729

>  <SCORE.SYSTEM>
0

>  <SCORE.SYSTEM.CONST>
0

>  <SCORE.SYSTEM.DIHEDRAL>
0

>  <SCORE.SYSTEM.SOLV>
0

>  <SCORE.SYSTEM.norm>
0

>  <SCORE.heavy>
42

>  <SCORE.norm>
-0.370402

>  <RMSD>
2.770

$$$$
ligand
 OpenBabel11021811513D
libRbt.so/2013.1/901 2013/11/27
 42 48  0  0  0  0  0  0  0  0999 V2000
    6.0568  -37.2560  -15.4634 P   0  0  2  0  0  0  0  0  0  0  0  0
    1.8352  -34.8382  -14.1047 P   0  0  1  0  0  0  0  0  0  0  0  0
    6.7804  -38.0900  -14.4320 O   0  5  0  0  0  0  0  0  0  0  0  0
    2.1549  -34.1685  -15.4198 O   0  5  0  0  0  0  0  0  0  0  0  0
    6.7539  -36.8751  -16.7475 O   0  0  0  0  0  0  0  0  0  0  0  0
    0.4871  -34.6262  -13.4587 O   0  0  0  0  0  0  0  0  0  0  0  0
    6.3015  -35.3091  -13.7008 C   0  0  0  0  0  0  0  0  0  0  0  0
    1.3270  -37.1625  -15.2415 C   0  0  0  0  0  0  0  0  0  0  0  0
    5.5426  -35.9078  -14.7499 O   0  0  0  0  0  0  0  0  0  0  0  0
    2.0692  -36.4220  -14.2754 O   0  0  0  0  0  0  0  0  0  0  0  0
    5.3610  -34.5926  -12.7391 C   0  0  1  0  0  0  0  0  0  0  0  0
    2.2790  -38.0079  -16.0782 C   0  0  1  0  0  0  0  0  0  0  0  0
    6.0800  -33.5851  -12.0226 O   0  0  0  0  0  0  0  0  0  0  0  0
    1.6730  -38.3147  -17.3361 O   0  0  0  0  0  0  0  0  0  0  0  0
    4.2248  -33.9124  -13.4840 C   0  0  1  0  0  0  0  0  0  0  0  0
    3.5766  -37.2659  -16.3563 C   0  0  1  0  0  0  0  0  0  0  0  0
    2.9727  -34.4273  -13.0412 O   0  0  0  0  0  0  0  0  0  0  0  0
    4.6808  -38.0020  -15.8386 O   0  0  0  0  0  0  0  0  0  0  0  0
    4.3230  -32.4335  -13.1591 C   0  0  0  0  0  0  0  0  0  0  0  0
    3.6902  -37.1497  -17.8641 C   0  0  0  0  0  0  0  0  0  0  0  0
    5.5196  -32.2859  -12.2310 C   0  0  2  0  0  0  0  0  0  0  0  0
    2.4528  -37.8300  -18.4321 C   0  0  2  0  0  0  0  0  0  0  0  0
    7.9291  -30.8586  -16.6735 N   0  0  0  0  0  0  0  0  0  0  0  0
    6.9739  -31.7829  -16.4628 C   0  0  0  0  0  0  0  0  0  0  0  0
    6.4419  -32.0463  -15.2550 N   0  0  0  0  0  0  0  0  0  0  0  0
    6.8518  -31.3735  -14.1531 C   0  0  0  0  0  0  0  0  0  0  0  0
    7.8940  -30.3457  -14.3017 C   0  0  0  0  0  0  0  0  0  0  0  0
    8.4313  -30.1134  -15.6635 C   0  0  0  0  0  0  0  0  0  0  0  0
    9.3923  -29.1853  -15.8884 N   0  0  0  0  0  0  0  0  0  0  0  0
    8.1119  -29.8395  -13.0735 N   0  0  0  0  0  0  0  0  0  0  0  0
    7.2833  -30.4853  -12.2135 C   0  0  0  0  0  0  0  0  0  0  0  0
    6.5320  -31.3996  -12.8569 N   0  0  0  0  0  0  0  0  0  0  0  0
   -0.9216  -33.8102  -18.2707 N   0  0  0  0  0  0  0  0  0  0  0  0
   -0.3644  -34.5158  -17.2693 C   0  0  0  0  0  0  0  0  0  0  0  0
    0.4947  -35.5333  -17.4597 N   0  0  0  0  0  0  0  0  0  0  0  0
    0.8555  -35.9126  -18.7095 C   0  0  0  0  0  0  0  0  0  0  0  0
    0.2885  -35.1888  -19.8578 C   0  0  0  0  0  0  0  0  0  0  0  0
   -0.6504  -34.0799  -19.5659 C   0  0  0  0  0  0  0  0  0  0  0  0
   -1.2176  -33.3612  -20.5658 N   0  0  0  0  0  0  0  0  0  0  0  0
    0.8047  -35.7582  -20.9633 N   0  0  0  0  0  0  0  0  0  0  0  0
    1.6290  -36.7585  -20.5585 C   0  0  0  0  0  0  0  0  0  0  0  0
    1.6592  -36.8506  -19.2163 N   0  0  0  0  0  0  0  0  0  0  0  0
  1  3  1  1  0  0  0
  1  5  2  0  0  0  0
  1  9  1  0  0  0  0
  1 18  1  0  0  0  0
  2  4  1  6  0  0  0
  2  6  2  0  0  0  0
  2 10  1  0  0  0  0
  2 17  1  0  0  0  0
  7  9  1  0  0  0  0
  8 10  1  0  0  0  0
 11  7  1  6  0  0  0
 11 13  1  0  0  0  0
 11 15  1  0  0  0  0
 12  8  1  1  0  0  0
 12 14  1  0  0  0  0
 12 16  1  0  0  0  0
 13 21  1  0  0  0  0
 14 22  1  0  0  0  0
 15 17  1  1  0  0  0
 15 19  1  0  0  0  0
 16 18  1  6  0  0  0
 16 20  1  0  0  0  0
 19 21  1  0  0  0  0
 20 22  1  0  0  0  0
 21 32  1  6  0  0  0
 22 42  1  1  0  0  0
 23 24  2  0  0  0  0
 23 28  1  0  0  0  0
 24 25  1  0  0  0  0
 25 26  2  0  0  0  0
 26 27  1  0  0  0  0
 26 32  1  0  0  0  0
 27 28  2  0  0  0  0
 27 30  1  0  0  0  0
 28 29  1  0  0  0  0
 30 31  2  0  0  0  0
 31 32  1  0  0  0  0
 33 34  2  0  0  0  0
 33 38  1  0  0  0  0
 34 35  1  0  0  0  0
 35 36  2  0  0  0  0
 36 37  1  0  0  0  0
 36 42  1  0  0  0  0
 37 38  2  0  0  0  0
 37 40  1  0  0  0  0
 38 39  1  0  0  0  0
 40 41  2  0  0  0  0
 41 42  1  0  0  0  0
M  CHG  2   3  -1   4  -1
M  END
>  <CHROM.1>
80.09328004,40.80188610,3.91981570,-34.64047237,-15.71871788,-0.36873701
0.70442200,2.88642581

>  <Name>
ligand

>  <RI>
0

>  <Rbt.Current_Directory>
/home/itssahil/PROJECTS/Mol_Feturizer/New_Systems/rnas/4QLN

>  <Rbt.Executable>
rbdock ($Id: //depot/dev/client3/rdock/2013.1/src/exe/rbdock.cxx#4 $)

>  <Rbt.Library>
libRbt.so (2013.1, Build901 2013/11/27)

>  <Rbt.Parameter_File>
/export/apps/rDock/src/rDock_2013.1_src/data/scripts/dock_solv.prm

>  <Rbt.Receptor>
prm/pocket_docking_7.prm

>  <SCORE>
-21.8539

>  <SCORE.INTER>
-21.8085

>  <SCORE.INTER.CONST>
1

>  <SCORE.INTER.POLAR>
0

>  <SCORE.INTER.ROT>
2

>  <SCORE.INTER.SOLV>
30.7179

>  <SCORE.INTER.VDW>
-29.7116

>  <SCORE.INTER.norm>
-0.519251

>  <SCORE.INTRA>
-0.0454152

>  <SCORE.INTRA.DIHEDRAL>
-0.000258965

>  <SCORE.INTRA.DIHEDRAL.0>
2.39985

>  <SCORE.INTRA.POLAR>
0

>  <SCORE.INTRA.POLAR.0>
0

>  <SCORE.INTRA.REPUL>
0

>  <SCORE.INTRA.REPUL.0>
0

>  <SCORE.INTRA.SOLV>
0.878666

>  <SCORE.INTRA.SOLV.lig_0>
-110.958

>  <SCORE.INTRA.VDW>
-0.484619

>  <SCORE.INTRA.VDW.0>
-2.34644

>  <SCORE.INTRA.norm>
-0.00108131

>  <SCORE.RESTR>
0

>  <SCORE.RESTR.CAVITY>
0

>  <SCORE.RESTR.norm>
0

>  <SCORE.SYSTEM>
0

>  <SCORE.SYSTEM.CONST>
0

>  <SCORE.SYSTEM.DIHEDRAL>
0

>  <SCORE.SYSTEM.SOLV>
0

>  <SCORE.SYSTEM.norm>
0

>  <SCORE.heavy>
42

>  <SCORE.norm>
-0.520332

>  <RMSD>
2.948

$$$$
ligand
 OpenBabel11021811513D
libRbt.so/2013.1/901 2013/11/27
 42 48  0  0  0  0  0  0  0  0999 V2000
    5.9727  -37.2829  -15.3251 P   0  0  2  0  0  0  0  0  0  0  0  0
    1.7619  -34.7714  -14.1101 P   0  0  1  0  0  0  0  0  0  0  0  0
    6.6678  -38.0952  -14.2574 O   0  5  0  0  0  0  0  0  0  0  0  0
    2.1123  -34.1454  -15.4389 O   0  5  0  0  0  0  0  0  0  0  0  0
    6.6960  -36.9495  -16.6079 O   0  0  0  0  0  0  0  0  0  0  0  0
    0.4063  -34.5230  -13.4937 O   0  0  0  0  0  0  0  0  0  0  0  0
    6.2142  -35.2877  -13.6169 C   0  0  0  0  0  0  0  0  0  0  0  0
    1.2415  -37.1219  -15.1862 C   0  0  0  0  0  0  0  0  0  0  0  0
    5.4649  -35.9076  -14.6606 O   0  0  0  0  0  0  0  0  0  0  0  0
    1.9775  -36.3626  -14.2300 O   0  0  0  0  0  0  0  0  0  0  0  0
    5.2677  -34.5309  -12.6928 C   0  0  1  0  0  0  0  0  0  0  0  0
    2.1958  -38.0039  -15.9813 C   0  0  1  0  0  0  0  0  0  0  0  0
    5.9882  -33.5119  -11.9944 O   0  0  0  0  0  0  0  0  0  0  0  0
    1.6067  -38.3402  -17.2397 O   0  0  0  0  0  0  0  0  0  0  0  0
    4.1532  -33.8586  -13.4767 C   0  0  1  0  0  0  0  0  0  0  0  0
    3.5077  -37.2874  -16.2592 C   0  0  1  0  0  0  0  0  0  0  0  0
    2.8872  -34.3438  -13.0401 O   0  0  0  0  0  0  0  0  0  0  0  0
    4.5932  -38.0220  -15.7013 O   0  0  0  0  0  0  0  0  0  0  0  0
    4.2659  -32.3720  -13.1940 C   0  0  0  0  0  0  0  0  0  0  0  0
    3.6478  -37.2176  -17.7676 C   0  0  0  0  0  0  0  0  0  0  0  0
    5.4488  -32.2124  -12.2506 C   0  0  2  0  0  0  0  0  0  0  0  0
    2.4110  -37.8985  -18.3362 C   0  0  2  0  0  0  0  0  0  0  0  0
    7.9129  -30.9111  -16.7017 N   0  0  0  0  0  0  0  0  0  0  0  0
    6.9371  -31.8114  -16.4814 C   0  0  0  0  0  0  0  0  0  0  0  0
    6.3929  -32.0432  -15.2726 N   0  0  0  0  0  0  0  0  0  0  0  0
    6.8107  -31.3607  -14.1796 C   0  0  0  0  0  0  0  0  0  0  0  0
    7.8753  -30.3577  -14.3392 C   0  0  0  0  0  0  0  0  0  0  0  0
    8.4250  -30.1597  -15.7014 C   0  0  0  0  0  0  0  0  0  0  0  0
    9.4067  -29.2559  -15.9360 N   0  0  0  0  0  0  0  0  0  0  0  0
    8.0969  -29.8355  -13.1183 N   0  0  0  0  0  0  0  0  0  0  0  0
    7.2500  -30.4492  -12.2526 C   0  0  0  0  0  0  0  0  0  0  0  0
    6.4832  -31.3582  -12.8851 N   0  0  0  0  0  0  0  0  0  0  0  0
   -0.8647  -33.7946  -18.3501 N   0  0  0  0  0  0  0  0  0  0  0  0
   -0.3276  -34.4724  -17.3189 C   0  0  0  0  0  0  0  0  0  0  0  0
    0.5069  -35.5174  -17.4648 N   0  0  0  0  0  0  0  0  0  0  0  0
    0.8617  -35.9556  -18.6969 C   0  0  0  0  0  0  0  0  0  0  0  0
    0.3157  -35.2654  -19.8756 C   0  0  0  0  0  0  0  0  0  0  0  0
   -0.5967  -34.1231  -19.6323 C   0  0  0  0  0  0  0  0  0  0  0  0
   -1.1434  -33.4320  -20.6626 N   0  0  0  0  0  0  0  0  0  0  0  0
    0.8208  -35.8916  -20.9552 N   0  0  0  0  0  0  0  0  0  0  0  0
    1.6193  -36.8944  -20.5073 C   0  0  0  0  0  0  0  0  0  0  0  0
    1.6436  -36.9327  -19.1623 N   0  0  0  0  0  0  0  0  0  0  0  0
  1  3  1  1  0  0  0
  1  5  2  0  0  0  0
  1  9  1  0  0  0  0
  1 18  1  0  0  0  0
  2  4  1  6  0  0  0
  2  6  2  0  0  0  0
  2 10  1  0  0  0  0
  2 17  1  0  0  0  0
  7  9  1  0  0  0  0
  8 10  1  0  0  0  0
 11  7  1  6  0  0  0
 11 13  1  0  0  0  0
 11 15  1  0  0  0  0
 12  8  1  6  0  0  0
 12 14  1  0  0  0  0
 12 16  1  0  0  0  0
 13 21  1  0  0  0  0
 14 22  1  0  0  0  0
 15 17  1  1  0  0  0
 15 19  1  0  0  0  0
 16 18  1  1  0  0  0
 16 20  1  0  0  0  0
 19 21  1  0  0  0  0
 20 22  1  0  0  0  0
 21 32  1  6  0  0  0
 22 42  1  6  0  0  0
 23 24  2  0  0  0  0
 23 28  1  0  0  0  0
 24 25  1  0  0  0  0
 25 26  2  0  0  0  0
 26 27  1  0  0  0  0
 26 32  1  0  0  0  0
 27 28  2  0  0  0  0
 27 30  1  0  0  0  0
 28 29  1  0  0  0  0
 30 31  2  0  0  0  0
 31 32  1  0  0  0  0
 33 34  2  0  0  0  0
 33 38  1  0  0  0  0
 34 35  1  0  0  0  0
 35 36  2  0  0  0  0
 36 37  1  0  0  0  0
 36 42  1  0  0  0  0
 37 38  2  0  0  0  0
 37 40  1  0  0  0  0
 38 39  1  0  0  0  0
 40 41  2  0  0  0  0
 41 42  1  0  0  0  0
M  CHG  2   3  -1   4  -1
M  END
>  <CHROM.1>
81.16292588,41.98508928,3.87624932,-34.64258072,-15.69451446,-0.34467885
0.72074095,2.83694206

>  <Name>
ligand

>  <RI>
0

>  <Rbt.Current_Directory>
/home/itssahil/PROJECTS/Mol_Feturizer/New_Systems/rnas/4QLN

>  <Rbt.Executable>
rbdock ($Id: //depot/dev/client3/rdock/2013.1/src/exe/rbdock.cxx#4 $)

>  <Rbt.Library>
libRbt.so (2013.1, Build901 2013/11/27)

>  <Rbt.Parameter_File>
/export/apps/rDock/src/rDock_2013.1_src/data/scripts/dock_solv.prm

>  <Rbt.Receptor>
prm/pocket_docking_4.prm

>  <SCORE>
-21.763

>  <SCORE.INTER>
-21.772

>  <SCORE.INTER.CONST>
1

>  <SCORE.INTER.POLAR>
0

>  <SCORE.INTER.ROT>
2

>  <SCORE.INTER.SOLV>
30.9387

>  <SCORE.INTER.VDW>
-29.7609

>  <SCORE.INTER.norm>
-0.51838

>  <SCORE.INTRA>
0.00399882

>  <SCORE.INTRA.DIHEDRAL>
-0.000225896

>  <SCORE.INTRA.DIHEDRAL.0>
2.39985

>  <SCORE.INTRA.POLAR>
0

>  <SCORE.INTRA.POLAR.0>
0

>  <SCORE.INTRA.REPUL>
0

>  <SCORE.INTRA.REPUL.0>
0

>  <SCORE.INTRA.SOLV>
0.918485

>  <SCORE.INTRA.SOLV.lig_0>
-110.958

>  <SCORE.INTRA.VDW>
-0.455131

>  <SCORE.INTRA.VDW.0>
-2.34644

>  <SCORE.INTRA.norm>
9.521e-05

>  <SCORE.RESTR>
0.00496273

>  <SCORE.RESTR.CAVITY>
0.00496273

>  <SCORE.RESTR.norm>
0.00011816

>  <SCORE.SYSTEM>
0

>  <SCORE.SYSTEM.CONST>
0

>  <SCORE.SYSTEM.DIHEDRAL>
0

>  <SCORE.SYSTEM.SOLV>
0

>  <SCORE.SYSTEM.norm>
0

>  <SCORE.heavy>
42

>  <SCORE.norm>
-0.518167

>  <RMSD>
2.988

$$$$
ligand
 OpenBabel11021811513D
libRbt.so/2013.1/901 2013/11/27
 42 48  0  0  0  0  0  0  0  0999 V2000
    1.5855  -35.2360  -13.0194 P   0  0  2  0  0  0  0  0  0  0  0  0
    5.8428  -36.7738  -15.2609 P   0  0  1  0  0  0  0  0  0  0  0  0
    0.6861  -36.2691  -12.3817 O   0  5  0  0  0  0  0  0  0  0  0  0
    5.7238  -35.3606  -15.7796 O   0  5  0  0  0  0  0  0  0  0  0  0
    1.0634  -33.8443  -13.2853 O   0  0  0  0  0  0  0  0  0  0  0  0
    7.1297  -37.5405  -15.4499 O   0  0  0  0  0  0  0  0  0  0  0  0
    1.3346  -36.7156  -15.1885 C   0  0  0  0  0  0  0  0  0  0  0  0
    6.2554  -35.9864  -12.7784 C   0  0  0  0  0  0  0  0  0  0  0  0
    2.1418  -35.8389  -14.4043 O   0  0  0  0  0  0  0  0  0  0  0  0
    5.4862  -36.7664  -13.6908 O   0  0  0  0  0  0  0  0  0  0  0  0
    2.2303  -37.6871  -15.9478 C   0  0  1  0  0  0  0  0  0  0  0  0
    5.3237  -35.1521  -11.9084 C   0  0  1  0  0  0  0  0  0  0  0  0
    1.5341  -38.1918  -17.0907 O   0  0  0  0  0  0  0  0  0  0  0  0
    6.0275  -34.0173  -11.3980 O   0  0  0  0  0  0  0  0  0  0  0  0
    3.4946  -37.0021  -16.4384 C   0  0  1  0  0  0  0  0  0  0  0  0
    4.1343  -34.6410  -12.7059 C   0  0  1  0  0  0  0  0  0  0  0  0
    4.6421  -37.6436  -15.8901 O   0  0  0  0  0  0  0  0  0  0  0  0
    2.9204  -35.1122  -12.1285 O   0  0  0  0  0  0  0  0  0  0  0  0
    3.4967  -37.1359  -17.9499 C   0  0  0  0  0  0  0  0  0  0  0  0
    4.1897  -33.1271  -12.6369 C   0  0  0  0  0  0  0  0  0  0  0  0
    2.2280  -37.8966  -18.3058 C   0  0  2  0  0  0  0  0  0  0  0  0
    5.4132  -32.7895  -11.7969 C   0  0  2  0  0  0  0  0  0  0  0  0
   -0.3160  -33.3351  -18.8535 N   0  0  0  0  0  0  0  0  0  0  0  0
    0.4284  -33.7963  -17.8315 C   0  0  0  0  0  0  0  0  0  0  0  0
    1.0286  -35.0008  -17.8277 N   0  0  0  0  0  0  0  0  0  0  0  0
    0.9124  -35.8387  -18.8857 C   0  0  0  0  0  0  0  0  0  0  0  0
    0.1142  -35.4060  -20.0434 C   0  0  0  0  0  0  0  0  0  0  0  0
   -0.5164  -34.0664  -19.9727 C   0  0  0  0  0  0  0  0  0  0  0  0
   -1.2672  -33.5908  -20.9953 N   0  0  0  0  0  0  0  0  0  0  0  0
    0.1619  -36.4096  -20.9394 N   0  0  0  0  0  0  0  0  0  0  0  0
    0.9228  -37.3983  -20.4038 C   0  0  0  0  0  0  0  0  0  0  0  0
    1.3704  -37.0581  -19.1798 N   0  0  0  0  0  0  0  0  0  0  0  0
   10.4071  -32.1534  -13.2899 N   0  0  0  0  0  0  0  0  0  0  0  0
    9.8559  -33.0700  -12.4729 C   0  0  0  0  0  0  0  0  0  0  0  0
    8.5447  -33.1140  -12.1756 N   0  0  0  0  0  0  0  0  0  0  0  0
    7.6832  -32.2091  -12.7000 C   0  0  0  0  0  0  0  0  0  0  0  0
    8.2100  -31.1745  -13.6034 C   0  0  0  0  0  0  0  0  0  0  0  0
    9.6655  -31.1926  -13.8820 C   0  0  0  0  0  0  0  0  0  0  0  0
   10.2324  -30.2753  -14.7037 N   0  0  0  0  0  0  0  0  0  0  0  0
    7.1596  -30.4190  -13.9757 N   0  0  0  0  0  0  0  0  0  0  0  0
    6.0577  -30.9250  -13.3644 C   0  0  0  0  0  0  0  0  0  0  0  0
    6.3694  -31.9910  -12.6045 N   0  0  0  0  0  0  0  0  0  0  0  0
  1  3  1  1  0  0  0
  1  5  2  0  0  0  0
  1  9  1  0  0  0  0
  1 18  1  0  0  0  0
  2  4  1  6  0  0  0
  2  6  2  0  0  0  0
  2 10  1  0  0  0  0
  2 17  1  0  0  0  0
  7  9  1  0  0  0  0
  8 10  1  0  0  0  0
 11  7  1  6  0  0  0
 11 13  1  0  0  0  0
 11 15  1  0  0  0  0
 12  8  1  6  0  0  0
 12 14  1  0  0  0  0
 12 16  1  0  0  0  0
 13 21  1  0  0  0  0
 14 22  1  0  0  0  0
 15 17  1  1  0  0  0
 15 19  1  0  0  0  0
 16 18  1  1  0  0  0
 16 20  1  0  0  0  0
 19 21  1  0  0  0  0
 20 22  1  0  0  0  0
 21 32  1  6  0  0  0
 22 42  1  6  0  0  0
 23 24  2  0  0  0  0
 23 28  1  0  0  0  0
 24 25  1  0  0  0  0
 25 26  2  0  0  0  0
 26 27  1  0  0  0  0
 26 32  1  0  0  0  0
 27 28  2  0  0  0  0
 27 30  1  0  0  0  0
 28 29  1  0  0  0  0
 30 31  2  0  0  0  0
 31 32  1  0  0  0  0
 33 34  2  0  0  0  0
 33 38  1  0  0  0  0
 34 35  1  0  0  0  0
 35 36  2  0  0  0  0
 36 37  1  0  0  0  0
 36 42  1  0  0  0  0
 37 38  2  0  0  0  0
 37 40  1  0  0  0  0
 38 39  1  0  0  0  0
 40 41  2  0  0  0  0
 41 42  1  0  0  0  0
M  CHG  2   3  -1   4  -1
M  END
>  <CHROM.1>
61.73221901,-14.27842446,4.01014650,-34.88315960,-15.18578507,2.72244512
-0.63548712,-1.17421022

>  <Name>
ligand

>  <RI>
0

>  <Rbt.Current_Directory>
/home/itssahil/PROJECTS/Mol_Feturizer/New_Systems/rnas/4QLN

>  <Rbt.Executable>
rbdock ($Id: //depot/dev/client3/rdock/2013.1/src/exe/rbdock.cxx#4 $)

>  <Rbt.Library>
libRbt.so (2013.1, Build901 2013/11/27)

>  <Rbt.Parameter_File>
/export/apps/rDock/src/rDock_2013.1_src/data/scripts/dock_solv.prm

>  <Rbt.Receptor>
prm/pocket_docking_7.prm

>  <SCORE>
-17.4088

>  <SCORE.INTER>
-17.6086

>  <SCORE.INTER.CONST>
1

>  <SCORE.INTER.POLAR>
0

>  <SCORE.INTER.ROT>
2

>  <SCORE.INTER.SOLV>
26.1715

>  <SCORE.INTER.VDW>
-25.3962

>  <SCORE.INTER.norm>
-0.419252

>  <SCORE.INTRA>
0.199775

>  <SCORE.INTRA.DIHEDRAL>
0.000685022

>  <SCORE.INTRA.DIHEDRAL.0>
2.39985

>  <SCORE.INTRA.POLAR>
0

>  <SCORE.INTRA.POLAR.0>
0

>  <SCORE.INTRA.REPUL>
0

>  <SCORE.INTRA.REPUL.0>
0

>  <SCORE.INTRA.SOLV>
-0.0234982

>  <SCORE.INTRA.SOLV.lig_0>
-110.958

>  <SCORE.INTRA.VDW>
0.211182

>  <SCORE.INTRA.VDW.0>
-2.34644

>  <SCORE.INTRA.norm>
0.00475655

>  <SCORE.RESTR>
0

>  <SCORE.RESTR.CAVITY>
0

>  <SCORE.RESTR.norm>
0

>  <SCORE.SYSTEM>
0

>  <SCORE.SYSTEM.CONST>
0

>  <SCORE.SYSTEM.DIHEDRAL>
0

>  <SCORE.SYSTEM.SOLV>
0

>  <SCORE.SYSTEM.norm>
0

>  <SCORE.heavy>
42

>  <SCORE.norm>
-0.414495

>  <RMSD>
2.989

$$$$
ligand
 OpenBabel11021811513D
libRbt.so/2013.1/901 2013/11/27
 42 48  0  0  0  0  0  0  0  0999 V2000
    5.3168  -33.4371  -12.1498 P   0  0  2  0  0  0  0  0  0  0  0  0
    8.0877  -36.3827  -15.1764 P   0  0  1  0  0  0  0  0  0  0  0  0
    4.5415  -34.0786  -11.0227 O   0  5  0  0  0  0  0  0  0  0  0  0
    8.0487  -35.0949  -15.9640 O   0  5  0  0  0  0  0  0  0  0  0  0
    4.9996  -32.0225  -12.5723 O   0  0  0  0  0  0  0  0  0  0  0  0
    9.0496  -37.4780  -15.5694 O   0  0  0  0  0  0  0  0  0  0  0  0
    4.0168  -35.1426  -13.6855 C   0  0  0  0  0  0  0  0  0  0  0  0
    9.5229  -35.3248  -13.2336 C   0  0  0  0  0  0  0  0  0  0  0  0
    5.2027  -34.3873  -13.4440 O   0  0  0  0  0  0  0  0  0  0  0  0
    8.3422  -36.0194  -13.6285 O   0  0  0  0  0  0  0  0  0  0  0  0
    4.3743  -36.4267  -14.4243 C   0  0  1  0  0  0  0  0  0  0  0  0
    9.1479  -34.1433  -12.3480 C   0  0  1  0  0  0  0  0  0  0  0  0
    3.2261  -36.9173  -15.1217 O   0  0  0  0  0  0  0  0  0  0  0  0
   10.1864  -33.1616  -12.3880 O   0  0  0  0  0  0  0  0  0  0  0  0
    5.4722  -36.1865  -15.4468 C   0  0  1  0  0  0  0  0  0  0  0  0
    7.8646  -33.4816  -12.8246 C   0  0  1  0  0  0  0  0  0  0  0  0
    6.6016  -37.0029  -15.1522 O   0  0  0  0  0  0  0  0  0  0  0  0
    6.8841  -33.5172  -11.7920 O   0  0  0  0  0  0  0  0  0  0  0  0
    4.8928  -36.5678  -16.7964 C   0  0  0  0  0  0  0  0  0  0  0  0
    8.2195  -32.0449  -13.1556 C   0  0  0  0  0  0  0  0  0  0  0  0
    3.4654  -37.0208  -16.5279 C   0  0  2  0  0  0  0  0  0  0  0  0
    9.7060  -31.9012  -12.8619 C   0  0  2  0  0  0  0  0  0  0  0  0
    0.4083  -36.4759  -20.7629 N   0  0  0  0  0  0  0  0  0  0  0  0
    1.2009  -37.4979  -20.3905 C   0  0  0  0  0  0  0  0  0  0  0  0
    1.9379  -37.5005  -19.2645 N   0  0  0  0  0  0  0  0  0  0  0  0
    1.9199  -36.4420  -18.4194 C   0  0  0  0  0  0  0  0  0  0  0  0
    1.0766  -35.2846  -18.7571 C   0  0  0  0  0  0  0  0  0  0  0  0
    0.2947  -35.3561  -20.0143 C   0  0  0  0  0  0  0  0  0  0  0  0
   -0.5072  -34.3342  -20.3994 N   0  0  0  0  0  0  0  0  0  0  0  0
    1.2408  -34.3879  -17.7664 N   0  0  0  0  0  0  0  0  0  0  0  0
    2.1120  -34.9226  -16.8729 C   0  0  0  0  0  0  0  0  0  0  0  0
    2.5167  -36.1470  -17.2618 N   0  0  0  0  0  0  0  0  0  0  0  0
   13.8091  -32.8641  -15.9940 N   0  0  0  0  0  0  0  0  0  0  0  0
   13.4367  -33.4577  -14.8450 C   0  0  0  0  0  0  0  0  0  0  0  0
   12.3477  -33.1031  -14.1393 N   0  0  0  0  0  0  0  0  0  0  0  0
   11.5433  -32.0981  -14.5621 C   0  0  0  0  0  0  0  0  0  0  0  0
   11.8841  -31.3996  -15.8112 C   0  0  0  0  0  0  0  0  0  0  0  0
   13.0991  -31.8486  -16.5312 C   0  0  0  0  0  0  0  0  0  0  0  0
   13.4842  -31.2592  -17.6898 N   0  0  0  0  0  0  0  0  0  0  0  0
   10.9360  -30.4619  -15.9975 N   0  0  0  0  0  0  0  0  0  0  0  0
   10.0655  -30.5518  -14.9592 C   0  0  0  0  0  0  0  0  0  0  0  0
   10.4272  -31.5260  -14.1042 N   0  0  0  0  0  0  0  0  0  0  0  0
  1  3  1  1  0  0  0
  1  5  2  0  0  0  0
  1  9  1  0  0  0  0
  1 18  1  0  0  0  0
  2  4  1  6  0  0  0
  2  6  2  0  0  0  0
  2 10  1  0  0  0  0
  2 17  1  0  0  0  0
  7  9  1  0  0  0  0
  8 10  1  0  0  0  0
 11  7  1  6  0  0  0
 11 13  1  0  0  0  0
 11 15  1  0  0  0  0
 12  8  1  6  0  0  0
 12 14  1  0  0  0  0
 12 16  1  0  0  0  0
 13 21  1  0  0  0  0
 14 22  1  0  0  0  0
 15 17  1  1  0  0  0
 15 19  1  0  0  0  0
 16 18  1  1  0  0  0
 16 20  1  0  0  0  0
 19 21  1  0  0  0  0
 20 22  1  0  0  0  0
 21 32  1  6  0  0  0
 22 42  1  6  0  0  0
 23 24  2  0  0  0  0
 23 28  1  0  0  0  0
 24 25  1  0  0  0  0
 25 26  2  0  0  0  0
 26 27  1  0  0  0  0
 26 32  1  0  0  0  0
 27 28  2  0  0  0  0
 27 30  1  0  0  0  0
 28 29  1  0  0  0  0
 30 31  2  0  0  0  0
 31 32  1  0  0  0  0
 33 34  2  0  0  0  0
 33 38  1  0  0  0  0
 34 35  1  0  0  0  0
 35 36  2  0  0  0  0
 36 37  1  0  0  0  0
 36 42  1  0  0  0  0
 37 38  2  0  0  0  0
 37 40  1  0  0  0  0
 38 39  1  0  0  0  0
 40 41  2  0  0  0  0
 41 42  1  0  0  0  0
M  CHG  2   3  -1   4  -1
M  END
>  <CHROM.1>
-141.35312199,-13.72562371,6.67918576,-34.45549230,-15.27414634,0.39148521
0.30677091,1.45453573

>  <Name>
ligand

>  <RI>
0

>  <Rbt.Current_Directory>
/home/itssahil/PROJECTS/Mol_Feturizer/New_Systems/rnas/4QLN

>  <Rbt.Executable>
rbdock ($Id: //depot/dev/client3/rdock/2013.1/src/exe/rbdock.cxx#4 $)

>  <Rbt.Library>
libRbt.so (2013.1, Build901 2013/11/27)

>  <Rbt.Parameter_File>
/export/apps/rDock/src/rDock_2013.1_src/data/scripts/dock_solv.prm

>  <Rbt.Receptor>
prm/pocket_docking_6.prm

>  <SCORE>
-15.284

>  <SCORE.INTER>
-16.0533

>  <SCORE.INTER.CONST>
1

>  <SCORE.INTER.POLAR>
0

>  <SCORE.INTER.ROT>
2

>  <SCORE.INTER.SOLV>
30.352

>  <SCORE.INTER.VDW>
-25.7528

>  <SCORE.INTER.norm>
-0.38222

>  <SCORE.INTRA>
0.769247

>  <SCORE.INTRA.DIHEDRAL>
0.000880494

>  <SCORE.INTRA.DIHEDRAL.0>
2.39985

>  <SCORE.INTRA.POLAR>
0

>  <SCORE.INTRA.POLAR.0>
0

>  <SCORE.INTRA.REPUL>
0

>  <SCORE.INTRA.REPUL.0>
0

>  <SCORE.INTRA.SOLV>
-0.072098

>  <SCORE.INTRA.SOLV.lig_0>
-110.958

>  <SCORE.INTRA.VDW>
0.804856

>  <SCORE.INTRA.VDW.0>
-2.34644

>  <SCORE.INTRA.norm>
0.0183154

>  <SCORE.RESTR>
0

>  <SCORE.RESTR.CAVITY>
0

>  <SCORE.RESTR.norm>
0

>  <SCORE.SYSTEM>
0

>  <SCORE.SYSTEM.CONST>
0

>  <SCORE.SYSTEM.DIHEDRAL>
0

>  <SCORE.SYSTEM.SOLV>
0

>  <SCORE.SYSTEM.norm>
0

>  <SCORE.heavy>
42

>  <SCORE.norm>
-0.363905

>  <RMSD>
3.012

$$$$
ligand
 OpenBabel11021811513D
libRbt.so/2013.1/901 2013/11/27
 42 48  0  0  0  0  0  0  0  0999 V2000
    6.9861  -37.4330  -14.2715 P   0  0  2  0  0  0  0  0  0  0  0  0
    3.6447  -34.1189  -12.4366 P   0  0  1  0  0  0  0  0  0  0  0  0
    7.8195  -38.2373  -13.3012 O   0  5  0  0  0  0  0  0  0  0  0  0
    3.7129  -33.7049  -13.8873 O   0  5  0  0  0  0  0  0  0  0  0  0
    7.3813  -37.3652  -15.7273 O   0  0  0  0  0  0  0  0  0  0  0  0
    2.5505  -33.5771  -11.5485 O   0  0  0  0  0  0  0  0  0  0  0  0
    7.9500  -35.3424  -12.9842 C   0  0  0  0  0  0  0  0  0  0  0  0
    2.5332  -36.4433  -12.9980 C   0  0  0  0  0  0  0  0  0  0  0  0
    6.8709  -35.9289  -13.7098 O   0  0  0  0  0  0  0  0  0  0  0  0
    3.5958  -35.7271  -12.3731 O   0  0  0  0  0  0  0  0  0  0  0  0
    7.3990  -34.3413  -11.9759 C   0  0  1  0  0  0  0  0  0  0  0  0
    3.1084  -37.5551  -13.8664 C   0  0  1  0  0  0  0  0  0  0  0  0
    8.4146  -33.3948  -11.6319 O   0  0  0  0  0  0  0  0  0  0  0  0
    2.1647  -37.9139  -14.8785 O   0  0  0  0  0  0  0  0  0  0  0  0
    6.2216  -33.5720  -12.5506 C   0  0  1  0  0  0  0  0  0  0  0  0
    4.3859  -37.1089  -14.5597 C   0  0  1  0  0  0  0  0  0  0  0  0
    5.0624  -33.7829  -11.7502 O   0  0  0  0  0  0  0  0  0  0  0  0
    5.4668  -37.9577  -14.1852 O   0  0  0  0  0  0  0  0  0  0  0  0
    6.6122  -32.1060  -12.5237 C   0  0  0  0  0  0  0  0  0  0  0  0
    4.1280  -37.2221  -16.0497 C   0  0  0  0  0  0  0  0  0  0  0  0
    8.0138  -32.0556  -11.9338 C   0  0  2  0  0  0  0  0  0  0  0  0
    2.7018  -37.7346  -16.1913 C   0  0  2  0  0  0  0  0  0  0  0  0
   10.6736  -32.7666  -16.4057 N   0  0  0  0  0  0  0  0  0  0  0  0
    9.8445  -33.5977  -15.7477 C   0  0  0  0  0  0  0  0  0  0  0  0
    9.2243  -33.2785  -14.5968 N   0  0  0  0  0  0  0  0  0  0  0  0
    9.4068  -32.0655  -14.0221 C   0  0  0  0  0  0  0  0  0  0  0  0
   10.2995  -31.0998  -14.6819 C   0  0  0  0  0  0  0  0  0  0  0  0
   10.9466  -31.5250  -15.9459 C   0  0  0  0  0  0  0  0  0  0  0  0
   11.7824  -30.6970  -16.6178 N   0  0  0  0  0  0  0  0  0  0  0  0
   10.3030  -29.9938  -13.9145 N   0  0  0  0  0  0  0  0  0  0  0  0
    9.4855  -30.2291  -12.8564 C   0  0  0  0  0  0  0  0  0  0  0  0
    8.9510  -31.4638  -12.9205 N   0  0  0  0  0  0  0  0  0  0  0  0
    0.5482  -36.4169  -20.7954 N   0  0  0  0  0  0  0  0  0  0  0  0
    1.2910  -37.4879  -20.4600 C   0  0  0  0  0  0  0  0  0  0  0  0
    1.7832  -37.6994  -19.2260 N   0  0  0  0  0  0  0  0  0  0  0  0
    1.5489  -36.8172  -18.2246 C   0  0  0  0  0  0  0  0  0  0  0  0
    0.7439  -35.6201  -18.5128 C   0  0  0  0  0  0  0  0  0  0  0  0
    0.2374  -35.4586  -19.8961 C   0  0  0  0  0  0  0  0  0  0  0  0
   -0.5124  -34.3847  -20.2462 N   0  0  0  0  0  0  0  0  0  0  0  0
    0.6650  -34.9247  -17.3626 N   0  0  0  0  0  0  0  0  0  0  0  0
    1.3587  -35.6152  -16.4214 C   0  0  0  0  0  0  0  0  0  0  0  0
    1.8852  -36.7422  -16.9347 N   0  0  0  0  0  0  0  0  0  0  0  0
  1  3  1  1  0  0  0
  1  5  2  0  0  0  0
  1  9  1  0  0  0  0
  1 18  1  0  0  0  0
  2  4  1  6  0  0  0
  2  6  2  0  0  0  0
  2 10  1  0  0  0  0
  2 17  1  0  0  0  0
  7  9  1  0  0  0  0
  8 10  1  0  0  0  0
 11  7  1  6  0  0  0
 11 13  1  0  0  0  0
 11 15  1  0  0  0  0
 12  8  1  6  0  0  0
 12 14  1  0  0  0  0
 12 16  1  0  0  0  0
 13 21  1  0  0  0  0
 14 22  1  0  0  0  0
 15 17  1  1  0  0  0
 15 19  1  0  0  0  0
 16 18  1  1  0  0  0
 16 20  1  0  0  0  0
 19 21  1  0  0  0  0
 20 22  1  0  0  0  0
 21 32  1  6  0  0  0
 22 42  1  6  0  0  0
 23 24  2  0  0  0  0
 23 28  1  0  0  0  0
 24 25  1  0  0  0  0
 25 26  2  0  0  0  0
 26 27  1  0  0  0  0
 26 32  1  0  0  0  0
 27 28  2  0  0  0  0
 27 30  1  0  0  0  0
 28 29  1  0  0  0  0
 30 31  2  0  0  0  0
 31 32  1  0  0  0  0
 33 34  2  0  0  0  0
 33 38  1  0  0  0  0
 34 35  1  0  0  0  0
 35 36  2  0  0  0  0
 36 37  1  0  0  0  0
 36 42  1  0  0  0  0
 37 38  2  0  0  0  0
 37 40  1  0  0  0  0
 38 39  1  0  0  0  0
 40 41  2  0  0  0  0
 41 42  1  0  0  0  0
M  CHG  2   3  -1   4  -1
M  END
>  <CHROM.1>
45.00131790,-140.39049170,5.39824522,-34.88170919,-14.83974571,0.32509925
0.55467300,1.76545085

>  <Name>
ligand

>  <RI>
0

>  <Rbt.Current_Directory>
/home/itssahil/PROJECTS/Mol_Feturizer/New_Systems/rnas/4QLN

>  <Rbt.Executable>
rbdock ($Id: //depot/dev/client3/rdock/2013.1/src/exe/rbdock.cxx#4 $)

>  <Rbt.Library>
libRbt.so (2013.1, Build901 2013/11/27)

>  <Rbt.Parameter_File>
/export/apps/rDock/src/rDock_2013.1_src/data/scripts/dock_solv.prm

>  <Rbt.Receptor>
prm/pocket_docking_5.prm

>  <SCORE>
-13.7335

>  <SCORE.INTER>
-13.6092

>  <SCORE.INTER.CONST>
1

>  <SCORE.INTER.POLAR>
0

>  <SCORE.INTER.ROT>
2

>  <SCORE.INTER.SOLV>
28.0241

>  <SCORE.INTER.VDW>
-23.3475

>  <SCORE.INTER.norm>
-0.324029

>  <SCORE.INTRA>
-0.124333

>  <SCORE.INTRA.DIHEDRAL>
0.000623862

>  <SCORE.INTRA.DIHEDRAL.0>
2.39985

>  <SCORE.INTRA.POLAR>
0

>  <SCORE.INTRA.POLAR.0>
0

>  <SCORE.INTRA.REPUL>
0

>  <SCORE.INTRA.REPUL.0>
0

>  <SCORE.INTRA.SOLV>
-0.0304788

>  <SCORE.INTRA.SOLV.lig_0>
-110.958

>  <SCORE.INTRA.VDW>
-0.109405

>  <SCORE.INTRA.VDW.0>
-2.34644

>  <SCORE.INTRA.norm>
-0.00296031

>  <SCORE.RESTR>
0

>  <SCORE.RESTR.CAVITY>
0

>  <SCORE.RESTR.norm>
0

>  <SCORE.SYSTEM>
0

>  <SCORE.SYSTEM.CONST>
0

>  <SCORE.SYSTEM.DIHEDRAL>
0

>  <SCORE.SYSTEM.SOLV>
0

>  <SCORE.SYSTEM.norm>
0

>  <SCORE.heavy>
42

>  <SCORE.norm>
-0.326989

>  <RMSD>
3.035

$$$$
ligand
 OpenBabel11021811513D
libRbt.so/2013.1/901 2013/11/27
 42 48  0  0  0  0  0  0  0  0999 V2000
    7.0020  -37.4442  -14.2865 P   0  0  2  0  0  0  0  0  0  0  0  0
    3.6629  -34.1284  -12.4508 P   0  0  1  0  0  0  0  0  0  0  0  0
    7.8364  -38.2478  -13.3164 O   0  5  0  0  0  0  0  0  0  0  0  0
    3.7297  -33.7155  -13.9019 O   0  5  0  0  0  0  0  0  0  0  0  0
    7.3958  -37.3777  -15.7427 O   0  0  0  0  0  0  0  0  0  0  0  0
    2.5697  -33.5857  -11.5621 O   0  0  0  0  0  0  0  0  0  0  0  0
    7.9676  -35.3527  -13.0018 C   0  0  0  0  0  0  0  0  0  0  0  0
    2.5506  -36.4531  -13.0092 C   0  0  0  0  0  0  0  0  0  0  0  0
    6.8877  -35.9397  -13.7259 O   0  0  0  0  0  0  0  0  0  0  0  0
    3.6139  -35.7364  -12.3860 O   0  0  0  0  0  0  0  0  0  0  0  0
    7.4177  -34.3507  -11.9937 C   0  0  1  0  0  0  0  0  0  0  0  0
    3.1248  -37.5656  -13.8773 C   0  0  1  0  0  0  0  0  0  0  0  0
    8.4337  -33.4041  -11.6516 O   0  0  0  0  0  0  0  0  0  0  0  0
    2.1800  -37.9251  -14.8882 O   0  0  0  0  0  0  0  0  0  0  0  0
    6.2398  -33.5818  -12.5679 C   0  0  1  0  0  0  0  0  0  0  0  0
    4.4016  -37.1201  -14.5722 C   0  0  1  0  0  0  0  0  0  0  0  0
    5.0814  -33.7920  -11.7662 O   0  0  0  0  0  0  0  0  0  0  0  0
    5.4828  -37.9688  -14.1982 O   0  0  0  0  0  0  0  0  0  0  0  0
    6.6306  -32.1158  -12.5425 C   0  0  0  0  0  0  0  0  0  0  0  0
    4.1422  -37.2344  -16.0620 C   0  0  0  0  0  0  0  0  0  0  0  0
    8.0327  -32.0651  -11.9541 C   0  0  2  0  0  0  0  0  0  0  0  0
    2.7158  -37.7469  -16.2017 C   0  0  2  0  0  0  0  0  0  0  0  0
   10.7379  -32.8027  -16.3944 N   0  0  0  0  0  0  0  0  0  0  0  0
    9.9158  -33.6362  -15.7306 C   0  0  0  0  0  0  0  0  0  0  0  0
    9.2820  -33.3091  -14.5893 N   0  0  0  0  0  0  0  0  0  0  0  0
    9.4422  -32.0853  -14.0313 C   0  0  0  0  0  0  0  0  0  0  0  0
   10.3259  -31.1164  -14.6985 C   0  0  0  0  0  0  0  0  0  0  0  0
   10.9891  -31.5506  -15.9509 C   0  0  0  0  0  0  0  0  0  0  0  0
   11.8181  -30.7205  -16.6287 N   0  0  0  0  0  0  0  0  0  0  0  0
   10.3074  -29.9993  -13.9475 N   0  0  0  0  0  0  0  0  0  0  0  0
    9.4850  -30.2310  -12.8924 C   0  0  0  0  0  0  0  0  0  0  0  0
    8.9690  -31.4742  -12.9423 N   0  0  0  0  0  0  0  0  0  0  0  0
    0.5841  -36.4167  -20.8124 N   0  0  0  0  0  0  0  0  0  0  0  0
    1.3306  -37.4854  -20.4778 C   0  0  0  0  0  0  0  0  0  0  0  0
    1.8161  -37.7007  -19.2419 N   0  0  0  0  0  0  0  0  0  0  0  0
    1.5708  -36.8250  -18.2374 C   0  0  0  0  0  0  0  0  0  0  0  0
    0.7612  -35.6308  -18.5244 C   0  0  0  0  0  0  0  0  0  0  0  0
    0.2625  -35.4647  -19.9101 C   0  0  0  0  0  0  0  0  0  0  0  0
   -0.4909  -34.3930  -20.2592 N   0  0  0  0  0  0  0  0  0  0  0  0
    0.6713  -34.9418  -17.3711 N   0  0  0  0  0  0  0  0  0  0  0  0
    1.3627  -35.6336  -16.4291 C   0  0  0  0  0  0  0  0  0  0  0  0
    1.8986  -36.7551  -16.9450 N   0  0  0  0  0  0  0  0  0  0  0  0
  1  3  1  1  0  0  0
  1  5  2  0  0  0  0
  1  9  1  0  0  0  0
  1 18  1  0  0  0  0
  2  4  1  6  0  0  0
  2  6  2  0  0  0  0
  2 10  1  0  0  0  0
  2 17  1  0  0  0  0
  7  9  1  0  0  0  0
  8 10  1  0  0  0  0
 11  7  1  6  0  0  0
 11 13  1  0  0  0  0
 11 15  1  0  0  0  0
 12  8  1  6  0  0  0
 12 14  1  0  0  0  0
 12 16  1  0  0  0  0
 13 21  1  0  0  0  0
 14 22  1  0  0  0  0
 15 17  1  1  0  0  0
 15 19  1  0  0  0  0
 16 18  1  1  0  0  0
 16 20  1  0  0  0  0
 19 21  1  0  0  0  0
 20 22  1  0  0  0  0
 21 32  1  6  0  0  0
 22 42  1  6  0  0  0
 23 24  2  0  0  0  0
 23 28  1  0  0  0  0
 24 25  1  0  0  0  0
 25 26  2  0  0  0  0
 26 27  1  0  0  0  0
 26 32  1  0  0  0  0
 27 28  2  0  0  0  0
 27 30  1  0  0  0  0
 28 29  1  0  0  0  0
 30 31  2  0  0  0  0
 31 32  1  0  0  0  0
 33 34  2  0  0  0  0
 33 38  1  0  0  0  0
 34 35  1  0  0  0  0
 35 36  2  0  0  0  0
 36 37  1  0  0  0  0
 36 42  1  0  0  0  0
 37 38  2  0  0  0  0
 37 40  1  0  0  0  0
 38 39  1  0  0  0  0
 40 41  2  0  0  0  0
 41 42  1  0  0  0  0
M  CHG  2   3  -1   4  -1
M  END
>  <CHROM.1>
43.73398578,-141.01864301,5.42021892,-34.89380154,-14.85300214,0.32691530
0.55141183,1.75997209

>  <Name>
ligand

>  <RI>
0

>  <Rbt.Current_Directory>
/home/itssahil/PROJECTS/Mol_Feturizer/New_Systems/rnas/4QLN

>  <Rbt.Executable>
rbdock ($Id: //depot/dev/client3/rdock/2013.1/src/exe/rbdock.cxx#4 $)

>  <Rbt.Library>
libRbt.so (2013.1, Build901 2013/11/27)

>  <Rbt.Parameter_File>
/export/apps/rDock/src/rDock_2013.1_src/data/scripts/dock_solv.prm

>  <Rbt.Receptor>
prm/pocket_docking_4.prm

>  <SCORE>
-13.6994

>  <SCORE.INTER>
-13.598

>  <SCORE.INTER.CONST>
1

>  <SCORE.INTER.POLAR>
0

>  <SCORE.INTER.ROT>
2

>  <SCORE.INTER.SOLV>
27.9329

>  <SCORE.INTER.VDW>
-23.3096

>  <SCORE.INTER.norm>
-0.323763

>  <SCORE.INTRA>
-0.101325

>  <SCORE.INTRA.DIHEDRAL>
0.000623566

>  <SCORE.INTRA.DIHEDRAL.0>
2.39985

>  <SCORE.INTRA.POLAR>
0

>  <SCORE.INTRA.POLAR.0>
0

>  <SCORE.INTRA.REPUL>
0

>  <SCORE.INTRA.REPUL.0>
0

>  <SCORE.INTRA.SOLV>
-0.0313366

>  <SCORE.INTRA.SOLV.lig_0>
-110.958

>  <SCORE.INTRA.VDW>
-0.085968

>  <SCORE.INTRA.VDW.0>
-2.34644

>  <SCORE.INTRA.norm>
-0.00241249

>  <SCORE.RESTR>
0

>  <SCORE.RESTR.CAVITY>
0

>  <SCORE.RESTR.norm>
0

>  <SCORE.SYSTEM>
0

>  <SCORE.SYSTEM.CONST>
0

>  <SCORE.SYSTEM.DIHEDRAL>
0

>  <SCORE.SYSTEM.SOLV>
0

>  <SCORE.SYSTEM.norm>
0

>  <SCORE.heavy>
42

>  <SCORE.norm>
-0.326175

>  <RMSD>
3.036

$$$$
ligand
 OpenBabel11021811513D
libRbt.so/2013.1/901 2013/11/27
 42 48  0  0  0  0  0  0  0  0999 V2000
    4.9428  -33.4226  -12.0067 P   0  0  2  0  0  0  0  0  0  0  0  0
    7.6487  -36.5662  -14.8895 P   0  0  1  0  0  0  0  0  0  0  0  0
    4.1500  -33.9943  -10.8546 O   0  5  0  0  0  0  0  0  0  0  0  0
    7.6423  -35.3144  -15.7341 O   0  5  0  0  0  0  0  0  0  0  0  0
    4.6605  -32.0212  -12.4931 O   0  0  0  0  0  0  0  0  0  0  0  0
    8.5849  -37.7007  -15.2300 O   0  0  0  0  0  0  0  0  0  0  0  0
    3.6056  -35.1637  -13.4687 C   0  0  0  0  0  0  0  0  0  0  0  0
    9.1048  -35.4569  -12.9914 C   0  0  0  0  0  0  0  0  0  0  0  0
    4.8087  -34.4269  -13.2575 O   0  0  0  0  0  0  0  0  0  0  0  0
    7.9085  -36.1401  -13.3586 O   0  0  0  0  0  0  0  0  0  0  0  0
    3.9338  -36.4878  -14.1481 C   0  0  1  0  0  0  0  0  0  0  0  0
    8.7563  -34.2282  -12.1607 C   0  0  1  0  0  0  0  0  0  0  0  0
    2.7756  -36.9816  -14.8266 O   0  0  0  0  0  0  0  0  0  0  0  0
    9.8181  -33.2744  -12.2413 O   0  0  0  0  0  0  0  0  0  0  0  0
    5.0392  -36.3199  -15.1768 C   0  0  1  0  0  0  0  0  0  0  0  0
    7.4903  -33.5582  -12.6707 C   0  0  1  0  0  0  0  0  0  0  0  0
    6.1481  -37.1491  -14.8424 O   0  0  0  0  0  0  0  0  0  0  0  0
    6.5070  -33.5239  -11.6406 O   0  0  0  0  0  0  0  0  0  0  0  0
    4.4538  -36.7474  -16.5099 C   0  0  0  0  0  0  0  0  0  0  0  0
    7.8802  -32.1465  -13.0644 C   0  0  0  0  0  0  0  0  0  0  0  0
    3.0154  -37.1537  -16.2259 C   0  0  2  0  0  0  0  0  0  0  0  0
    9.3692  -32.0253  -12.7728 C   0  0  2  0  0  0  0  0  0  0  0  0
    0.4346  -36.4711  -20.7483 N   0  0  0  0  0  0  0  0  0  0  0  0
    1.2600  -37.4611  -20.3611 C   0  0  0  0  0  0  0  0  0  0  0  0
    1.8594  -37.5067  -19.1571 N   0  0  0  0  0  0  0  0  0  0  0  0
    1.6569  -36.5286  -18.2421 C   0  0  0  0  0  0  0  0  0  0  0  0
    0.7662  -35.4106  -18.5908 C   0  0  0  0  0  0  0  0  0  0  0  0
    0.1436  -35.4306  -19.9358 C   0  0  0  0  0  0  0  0  0  0  0  0
   -0.6896  -34.4403  -20.3368 N   0  0  0  0  0  0  0  0  0  0  0  0
    0.7404  -34.5925  -17.5220 N   0  0  0  0  0  0  0  0  0  0  0  0
    1.5433  -35.1372  -16.5723 C   0  0  0  0  0  0  0  0  0  0  0  0
    2.0895  -36.2913  -17.0013 N   0  0  0  0  0  0  0  0  0  0  0  0
   12.1760  -33.9580  -16.7676 N   0  0  0  0  0  0  0  0  0  0  0  0
   11.6219  -34.5848  -15.7134 C   0  0  0  0  0  0  0  0  0  0  0  0
   10.9204  -33.9553  -14.7535 N   0  0  0  0  0  0  0  0  0  0  0  0
   10.7290  -32.6147  -14.7997 C   0  0  0  0  0  0  0  0  0  0  0  0
   11.3042  -31.8581  -15.9225 C   0  0  0  0  0  0  0  0  0  0  0  0
   12.0634  -32.6232  -16.9396 C   0  0  0  0  0  0  0  0  0  0  0  0
   12.6255  -32.0035  -18.0064 N   0  0  0  0  0  0  0  0  0  0  0  0
   10.9700  -30.5685  -15.7276 N   0  0  0  0  0  0  0  0  0  0  0  0
   10.2452  -30.5050  -14.5810 C   0  0  0  0  0  0  0  0  0  0  0  0
   10.1018  -31.7236  -14.0283 N   0  0  0  0  0  0  0  0  0  0  0  0
  1  3  1  1  0  0  0
  1  5  2  0  0  0  0
  1  9  1  0  0  0  0
  1 18  1  0  0  0  0
  2  4  1  6  0  0  0
  2  6  2  0  0  0  0
  2 10  1  0  0  0  0
  2 17  1  0  0  0  0
  7  9  1  0  0  0  0
  8 10  1  0  0  0  0
 11  7  1  6  0  0  0
 11 13  1  0  0  0  0
 11 15  1  0  0  0  0
 12  8  1  6  0  0  0
 12 14  1  0  0  0  0
 12 16  1  0  0  0  0
 13 21  1  0  0  0  0
 14 22  1  0  0  0  0
 15 17  1  1  0  0  0
 15 19  1  0  0  0  0
 16 18  1  1  0  0  0
 16 20  1  0  0  0  0
 19 21  1  0  0  0  0
 20 22  1  0  0  0  0
 21 32  1  6  0  0  0
 22 42  1  6  0  0  0
 23 24  2  0  0  0  0
 23 28  1  0  0  0  0
 24 25  1  0  0  0  0
 25 26  2  0  0  0  0
 26 27  1  0  0  0  0
 26 32  1  0  0  0  0
 27 28  2  0  0  0  0
 27 30  1  0  0  0  0
 28 29  1  0  0  0  0
 30 31  2  0  0  0  0
 31 32  1  0  0  0  0
 33 34  2  0  0  0  0
 33 38  1  0  0  0  0
 34 35  1  0  0  0  0
 35 36  2  0  0  0  0
 36 37  1  0  0  0  0
 36 42  1  0  0  0  0
 37 38  2  0  0  0  0
 37 40  1  0  0  0  0
 38 39  1  0  0  0  0
 40 41  2  0  0  0  0
 41 42  1  0  0  0  0
M  CHG  2   3  -1   4  -1
M  END
>  <CHROM.1>
-152.79085776,21.02913919,6.21925680,-34.65143844,-15.17486159,0.42232009
0.27265133,1.39986724

>  <Name>
ligand

>  <RI>
0

>  <Rbt.Current_Directory>
/home/itssahil/PROJECTS/Mol_Feturizer/New_Systems/rnas/4QLN

>  <Rbt.Executable>
rbdock ($Id: //depot/dev/client3/rdock/2013.1/src/exe/rbdock.cxx#4 $)

>  <Rbt.Library>
libRbt.so (2013.1, Build901 2013/11/27)

>  <Rbt.Parameter_File>
/export/apps/rDock/src/rDock_2013.1_src/data/scripts/dock_solv.prm

>  <Rbt.Receptor>
prm/pocket_docking_5.prm

>  <SCORE>
-13.4325

>  <SCORE.INTER>
-13.4541

>  <SCORE.INTER.CONST>
1

>  <SCORE.INTER.POLAR>
0

>  <SCORE.INTER.ROT>
2

>  <SCORE.INTER.SOLV>
30.3935

>  <SCORE.INTER.VDW>
-24.0339

>  <SCORE.INTER.norm>
-0.320336

>  <SCORE.INTRA>
-0.00942403

>  <SCORE.INTRA.DIHEDRAL>
-0.000262537

>  <SCORE.INTRA.DIHEDRAL.0>
2.39985

>  <SCORE.INTRA.POLAR>
0

>  <SCORE.INTRA.POLAR.0>
0

>  <SCORE.INTRA.REPUL>
0

>  <SCORE.INTRA.REPUL.0>
0

>  <SCORE.INTRA.SOLV>
0.0785783

>  <SCORE.INTRA.SOLV.lig_0>
-110.958

>  <SCORE.INTRA.VDW>
-0.0485819

>  <SCORE.INTRA.VDW.0>
-2.34644

>  <SCORE.INTRA.norm>
-0.000224382

>  <SCORE.RESTR>
0.0309748

>  <SCORE.RESTR.CAVITY>
0.0309748

>  <SCORE.RESTR.norm>
0.000737494

>  <SCORE.SYSTEM>
0

>  <SCORE.SYSTEM.CONST>
0

>  <SCORE.SYSTEM.DIHEDRAL>
0

>  <SCORE.SYSTEM.SOLV>
0

>  <SCORE.SYSTEM.norm>
0

>  <SCORE.heavy>
42

>  <SCORE.norm>
-0.319823

>  <RMSD>
3.158

$$$$
ligand
 OpenBabel11021811513D
libRbt.so/2013.1/901 2013/11/27
 42 48  0  0  0  0  0  0  0  0999 V2000
    8.0468  -36.6656  -12.4370 P   0  0  2  0  0  0  0  0  0  0  0  0
    3.9691  -33.7086  -12.8149 P   0  0  1  0  0  0  0  0  0  0  0  0
    8.7716  -36.7379  -11.1132 O   0  5  0  0  0  0  0  0  0  0  0  0
    4.2704  -33.9919  -14.2672 O   0  5  0  0  0  0  0  0  0  0  0  0
    8.7149  -37.1785  -13.6902 O   0  0  0  0  0  0  0  0  0  0  0  0
    2.6525  -33.0799  -12.4267 O   0  0  0  0  0  0  0  0  0  0  0  0
    8.4249  -34.0642  -12.2216 C   0  0  0  0  0  0  0  0  0  0  0  0
    3.3341  -36.2162  -12.3031 C   0  0  0  0  0  0  0  0  0  0  0  0
    7.6090  -35.1372  -12.6883 O   0  0  0  0  0  0  0  0  0  0  0  0
    4.1361  -35.0803  -11.9884 O   0  0  0  0  0  0  0  0  0  0  0  0
    7.5454  -32.8644  -11.8905 C   0  0  1  0  0  0  0  0  0  0  0  0
    4.2244  -37.4429  -12.4566 C   0  0  1  0  0  0  0  0  0  0  0  0
    8.3262  -31.6670  -11.9362 O   0  0  0  0  0  0  0  0  0  0  0  0
    3.5654  -38.4189  -13.2671 O   0  0  0  0  0  0  0  0  0  0  0  0
    6.4121  -32.7192  -12.8920 C   0  0  1  0  0  0  0  0  0  0  0  0
    5.5397  -37.0893  -13.1324 C   0  0  1  0  0  0  0  0  0  0  0  0
    5.1565  -32.7951  -12.2236 O   0  0  0  0  0  0  0  0  0  0  0  0
    6.6312  -37.4151  -12.2772 O   0  0  0  0  0  0  0  0  0  0  0  0
    6.5780  -31.3541  -13.5334 C   0  0  0  0  0  0  0  0  0  0  0  0
    5.6073  -37.9180  -14.4006 C   0  0  0  0  0  0  0  0  0  0  0  0
    7.8096  -30.7346  -12.8897 C   0  0  2  0  0  0  0  0  0  0  0  0
    4.3264  -38.7394  -14.4343 C   0  0  2  0  0  0  0  0  0  0  0  0
   11.6568  -32.7249  -15.8590 N   0  0  0  0  0  0  0  0  0  0  0  0
   10.8716  -33.3205  -14.9425 C   0  0  0  0  0  0  0  0  0  0  0  0
    9.9140  -32.6786  -14.2481 N   0  0  0  0  0  0  0  0  0  0  0  0
    9.6818  -31.3582  -14.4414 C   0  0  0  0  0  0  0  0  0  0  0  0
   10.4997  -30.6356  -15.4282 C   0  0  0  0  0  0  0  0  0  0  0  0
   11.5348  -31.4109  -16.1525 C   0  0  0  0  0  0  0  0  0  0  0  0
   12.3308  -30.8229  -17.0778 N   0  0  0  0  0  0  0  0  0  0  0  0
   10.0697  -29.3599  -15.4229 N   0  0  0  0  0  0  0  0  0  0  0  0
    9.0655  -29.2720  -14.5135 C   0  0  0  0  0  0  0  0  0  0  0  0
    8.8340  -30.4630  -13.9286 N   0  0  0  0  0  0  0  0  0  0  0  0
    4.4316  -36.6687  -19.2586 N   0  0  0  0  0  0  0  0  0  0  0  0
    5.4219  -36.8285  -18.3612 C   0  0  0  0  0  0  0  0  0  0  0  0
    5.2487  -37.3821  -17.1475 N   0  0  0  0  0  0  0  0  0  0  0  0
    4.0295  -37.8220  -16.7528 C   0  0  0  0  0  0  0  0  0  0  0  0
    2.8951  -37.6825  -17.6790 C   0  0  0  0  0  0  0  0  0  0  0  0
    3.1666  -37.0627  -18.9975 C   0  0  0  0  0  0  0  0  0  0  0  0
    2.1777  -36.8970  -19.9101 N   0  0  0  0  0  0  0  0  0  0  0  0
    1.8198  -38.1913  -17.0483 N   0  0  0  0  0  0  0  0  0  0  0  0
    2.2295  -38.6183  -15.8261 C   0  0  0  0  0  0  0  0  0  0  0  0
    3.5454  -38.3982  -15.6499 N   0  0  0  0  0  0  0  0  0  0  0  0
  1  3  1  1  0  0  0
  1  5  2  0  0  0  0
  1  9  1  0  0  0  0
  1 18  1  0  0  0  0
  2  4  1  6  0  0  0
  2  6  2  0  0  0  0
  2 10  1  0  0  0  0
  2 17  1  0  0  0  0
  7  9  1  0  0  0  0
  8 10  1  0  0  0  0
 11  7  1  6  0  0  0
 11 13  1  0  0  0  0
 11 15  1  0  0  0  0
 12  8  1  6  0  0  0
 12 14  1  0  0  0  0
 12 16  1  0  0  0  0
 13 21  1  0  0  0  0
 14 22  1  0  0  0  0
 15 17  1  1  0  0  0
 15 19  1  0  0  0  0
 16 18  1  1  0  0  0
 16 20  1  0  0  0  0
 19 21  1  0  0  0  0
 20 22  1  0  0  0  0
 21 32  1  6  0  0  0
 22 42  1  6  0  0  0
 23 24  2  0  0  0  0
 23 28  1  0  0  0  0
 24 25  1  0  0  0  0
 25 26  2  0  0  0  0
 26 27  1  0  0  0  0
 26 32  1  0  0  0  0
 27 28  2  0  0  0  0
 27 30  1  0  0  0  0
 28 29  1  0  0  0  0
 30 31  2  0  0  0  0
 31 32  1  0  0  0  0
 33 34  2  0  0  0  0
 33 38  1  0  0  0  0
 34 35  1  0  0  0  0
 35 36  2  0  0  0  0
 36 37  1  0  0  0  0
 36 42  1  0  0  0  0
 37 38  2  0  0  0  0
 37 40  1  0  0  0  0
 38 39  1  0  0  0  0
 40 41  2  0  0  0  0
 41 42  1  0  0  0  0
M  CHG  2   3  -1   4  -1
M  END
>  <CHROM.1>
37.38705940,138.67019035,6.40321656,-34.77648567,-14.31226091,0.23586752
0.76111600,1.47809419

>  <Name>
ligand

>  <RI>
0

>  <Rbt.Current_Directory>
/home/itssahil/PROJECTS/Mol_Feturizer/New_Systems/rnas/4QLN

>  <Rbt.Executable>
rbdock ($Id: //depot/dev/client3/rdock/2013.1/src/exe/rbdock.cxx#4 $)

>  <Rbt.Library>
libRbt.so (2013.1, Build901 2013/11/27)

>  <Rbt.Parameter_File>
/export/apps/rDock/src/rDock_2013.1_src/data/scripts/dock_solv.prm

>  <Rbt.Receptor>
prm/pocket_docking_6.prm

>  <SCORE>
-14.4465

>  <SCORE.INTER>
-15.9134

>  <SCORE.INTER.CONST>
1

>  <SCORE.INTER.POLAR>
0

>  <SCORE.INTER.ROT>
2

>  <SCORE.INTER.SOLV>
25.6358

>  <SCORE.INTER.VDW>
-24.0875

>  <SCORE.INTER.norm>
-0.378891

>  <SCORE.INTRA>
1.46694

>  <SCORE.INTRA.DIHEDRAL>
-0.000716551

>  <SCORE.INTRA.DIHEDRAL.0>
2.39985

>  <SCORE.INTRA.POLAR>
0

>  <SCORE.INTRA.POLAR.0>
0

>  <SCORE.INTRA.REPUL>
0

>  <SCORE.INTRA.REPUL.0>
0

>  <SCORE.INTRA.SOLV>
-0.0781617

>  <SCORE.INTRA.SOLV.lig_0>
-110.958

>  <SCORE.INTRA.VDW>
1.50638

>  <SCORE.INTRA.VDW.0>
-2.34644

>  <SCORE.INTRA.norm>
0.0349271

>  <SCORE.RESTR>
0

>  <SCORE.RESTR.CAVITY>
0

>  <SCORE.RESTR.norm>
0

>  <SCORE.SYSTEM>
0

>  <SCORE.SYSTEM.CONST>
0

>  <SCORE.SYSTEM.DIHEDRAL>
0

>  <SCORE.SYSTEM.SOLV>
0

>  <SCORE.SYSTEM.norm>
0

>  <SCORE.heavy>
42

>  <SCORE.norm>
-0.343963

>  <RMSD>
3.440

$$$$
ligand
 OpenBabel11021811513D
libRbt.so/2013.1/901 2013/11/27
 42 48  0  0  0  0  0  0  0  0999 V2000
    8.4547  -37.5959  -12.7095 P   0  0  2  0  0  0  0  0  0  0  0  0
    4.8552  -34.0523  -12.7442 P   0  0  1  0  0  0  0  0  0  0  0  0
    9.2302  -37.8313  -11.4342 O   0  5  0  0  0  0  0  0  0  0  0  0
    5.0321  -34.3153  -14.2206 O   0  5  0  0  0  0  0  0  0  0  0  0
    8.9697  -38.1486  -14.0168 O   0  0  0  0  0  0  0  0  0  0  0  0
    3.6711  -33.2519  -12.2575 O   0  0  0  0  0  0  0  0  0  0  0  0
    9.2318  -35.0910  -12.4286 C   0  0  0  0  0  0  0  0  0  0  0  0
    3.8776  -36.4571  -12.2812 C   0  0  0  0  0  0  0  0  0  0  0  0
    8.2395  -36.0100  -12.8823 O   0  0  0  0  0  0  0  0  0  0  0  0
    4.8575  -35.4674  -11.9761 O   0  0  0  0  0  0  0  0  0  0  0  0
    8.5622  -33.7890  -12.0054 C   0  0  1  0  0  0  0  0  0  0  0  0
    4.5633  -37.7949  -12.5287 C   0  0  1  0  0  0  0  0  0  0  0  0
    9.5110  -32.7201  -12.0566 O   0  0  0  0  0  0  0  0  0  0  0  0
    3.7223  -38.6268  -13.3315 O   0  0  0  0  0  0  0  0  0  0  0  0
    7.4117  -33.4346  -12.9324 C   0  0  1  0  0  0  0  0  0  0  0  0
    5.8787  -37.6122  -13.2690 C   0  0  1  0  0  0  0  0  0  0  0  0
    6.1967  -33.3514  -12.1937 O   0  0  0  0  0  0  0  0  0  0  0  0
    6.9529  -38.1327  -12.4916 O   0  0  0  0  0  0  0  0  0  0  0  0
    7.7471  -32.0833  -13.5357 C   0  0  0  0  0  0  0  0  0  0  0  0
    5.7527  -38.3872  -14.5664 C   0  0  0  0  0  0  0  0  0  0  0  0
    9.0907  -31.6817  -12.9455 C   0  0  2  0  0  0  0  0  0  0  0  0
    4.3626  -39.0069  -14.5520 C   0  0  2  0  0  0  0  0  0  0  0  0
   13.9188  -32.8418  -14.6548 N   0  0  0  0  0  0  0  0  0  0  0  0
   13.2946  -33.1913  -13.5149 C   0  0  0  0  0  0  0  0  0  0  0  0
   12.0399  -32.8165  -13.2045 N   0  0  0  0  0  0  0  0  0  0  0  0
   11.3158  -32.0442  -14.0496 C   0  0  0  0  0  0  0  0  0  0  0  0
   11.9292  -31.6207  -15.3181 C   0  0  0  0  0  0  0  0  0  0  0  0
   13.3146  -32.0730  -15.5884 C   0  0  0  0  0  0  0  0  0  0  0  0
   13.9533  -31.7285  -16.7325 N   0  0  0  0  0  0  0  0  0  0  0  0
   11.0099  -30.8747  -15.9589 N   0  0  0  0  0  0  0  0  0  0  0  0
    9.9051  -30.8242  -15.1714 C   0  0  0  0  0  0  0  0  0  0  0  0
   10.0872  -31.5214  -14.0335 N   0  0  0  0  0  0  0  0  0  0  0  0
    4.5019  -36.5588  -19.1952 N   0  0  0  0  0  0  0  0  0  0  0  0
    5.5011  -36.8744  -18.3505 C   0  0  0  0  0  0  0  0  0  0  0  0
    5.3171  -37.5105  -17.1796 N   0  0  0  0  0  0  0  0  0  0  0  0
    4.0768  -37.8786  -16.7769 C   0  0  0  0  0  0  0  0  0  0  0  0
    2.9316  -37.5687  -17.6467 C   0  0  0  0  0  0  0  0  0  0  0  0
    3.2160  -36.8663  -18.9203 C   0  0  0  0  0  0  0  0  0  0  0  0
    2.2184  -36.5437  -19.7798 N   0  0  0  0  0  0  0  0  0  0  0  0
    1.8358  -38.0367  -17.0198 N   0  0  0  0  0  0  0  0  0  0  0  0
    2.2434  -38.5964  -15.8516 C   0  0  0  0  0  0  0  0  0  0  0  0
    3.5780  -38.5021  -15.7068 N   0  0  0  0  0  0  0  0  0  0  0  0
  1  3  1  1  0  0  0
  1  5  2  0  0  0  0
  1  9  1  0  0  0  0
  1 18  1  0  0  0  0
  2  4  1  6  0  0  0
  2  6  2  0  0  0  0
  2 10  1  0  0  0  0
  2 17  1  0  0  0  0
  7  9  1  0  0  0  0
  8 10  1  0  0  0  0
 11  7  1  6  0  0  0
 11 13  1  0  0  0  0
 11 15  1  0  0  0  0
 12  8  1  6  0  0  0
 12 14  1  0  0  0  0
 12 16  1  0  0  0  0
 13 21  1  0  0  0  0
 14 22  1  0  0  0  0
 15 17  1  1  0  0  0
 15 19  1  0  0  0  0
 16 18  1  1  0  0  0
 16 20  1  0  0  0  0
 19 21  1  0  0  0  0
 20 22  1  0  0  0  0
 21 32  1  6  0  0  0
 22 42  1  6  0  0  0
 23 24  2  0  0  0  0
 23 28  1  0  0  0  0
 24 25  1  0  0  0  0
 25 26  2  0  0  0  0
 26 27  1  0  0  0  0
 26 32  1  0  0  0  0
 27 28  2  0  0  0  0
 27 30  1  0  0  0  0
 28 29  1  0  0  0  0
 30 31  2  0  0  0  0
 31 32  1  0  0  0  0
 33 34  2  0  0  0  0
 33 38  1  0  0  0  0
 34 35  1  0  0  0  0
 35 36  2  0  0  0  0
 36 37  1  0  0  0  0
 36 42  1  0  0  0  0
 37 38  2  0  0  0  0
 37 40  1  0  0  0  0
 38 39  1  0  0  0  0
 40 41  2  0  0  0  0
 41 42  1  0  0  0  0
M  CHG  2   3  -1   4  -1
M  END
>  <CHROM.1>
-13.15917886,133.97355892,7.13763310,-35.28516102,-14.28274862,0.05355945
0.60970653,1.78455991

>  <Name>
ligand

>  <RI>
0

>  <Rbt.Current_Directory>
/home/itssahil/PROJECTS/Mol_Feturizer/New_Systems/rnas/4QLN

>  <Rbt.Executable>
rbdock ($Id: //depot/dev/client3/rdock/2013.1/src/exe/rbdock.cxx#4 $)

>  <Rbt.Library>
libRbt.so (2013.1, Build901 2013/11/27)

>  <Rbt.Parameter_File>
/export/apps/rDock/src/rDock_2013.1_src/data/scripts/dock_solv.prm

>  <Rbt.Receptor>
prm/pocket_docking_8.prm

>  <SCORE>
-14.0698

>  <SCORE.INTER>
-16.3815

>  <SCORE.INTER.CONST>
1

>  <SCORE.INTER.POLAR>
0

>  <SCORE.INTER.ROT>
2

>  <SCORE.INTER.SOLV>
15.789

>  <SCORE.INTER.VDW>
-21.1173

>  <SCORE.INTER.norm>
-0.390037

>  <SCORE.INTRA>
2.31173

>  <SCORE.INTRA.DIHEDRAL>
-0.000186592

>  <SCORE.INTRA.DIHEDRAL.0>
2.39985

>  <SCORE.INTRA.POLAR>
0

>  <SCORE.INTRA.POLAR.0>
0

>  <SCORE.INTRA.REPUL>
0

>  <SCORE.INTRA.REPUL.0>
0

>  <SCORE.INTRA.SOLV>
-0.0840372

>  <SCORE.INTRA.SOLV.lig_0>
-110.958

>  <SCORE.INTRA.VDW>
2.35384

>  <SCORE.INTRA.VDW.0>
-2.34644

>  <SCORE.INTRA.norm>
0.0550412

>  <SCORE.RESTR>
0

>  <SCORE.RESTR.CAVITY>
0

>  <SCORE.RESTR.norm>
0

>  <SCORE.SYSTEM>
0

>  <SCORE.SYSTEM.CONST>
0

>  <SCORE.SYSTEM.DIHEDRAL>
0

>  <SCORE.SYSTEM.SOLV>
0

>  <SCORE.SYSTEM.norm>
0

>  <SCORE.heavy>
42

>  <SCORE.norm>
-0.334995

>  <RMSD>
3.692

$$$$
ligand
 OpenBabel11021811513D
libRbt.so/2013.1/901 2013/11/27
 42 48  0  0  0  0  0  0  0  0999 V2000
    8.2426  -38.2064  -12.6546 P   0  0  2  0  0  0  0  0  0  0  0  0
    5.1002  -34.2531  -12.7594 P   0  0  1  0  0  0  0  0  0  0  0  0
    8.9810  -38.5138  -11.3727 O   0  5  0  0  0  0  0  0  0  0  0  0
    5.2471  -34.5592  -14.2308 O   0  5  0  0  0  0  0  0  0  0  0  0
    8.6896  -38.8384  -13.9511 O   0  0  0  0  0  0  0  0  0  0  0  0
    4.0211  -33.3072  -12.2901 O   0  0  0  0  0  0  0  0  0  0  0  0
    9.3175  -35.8103  -12.4097 C   0  0  0  0  0  0  0  0  0  0  0  0
    3.8368  -36.5137  -12.2629 C   0  0  0  0  0  0  0  0  0  0  0  0
    8.2220  -36.6092  -12.8531 O   0  0  0  0  0  0  0  0  0  0  0  0
    4.9289  -35.6456  -11.9694 O   0  0  0  0  0  0  0  0  0  0  0  0
    8.8101  -34.4300  -12.0097 C   0  0  1  0  0  0  0  0  0  0  0  0
    4.3555  -37.9286  -12.4868 C   0  0  1  0  0  0  0  0  0  0  0  0
    9.8819  -33.4852  -12.0737 O   0  0  0  0  0  0  0  0  0  0  0  0
    3.4214  -38.6650  -13.2798 O   0  0  0  0  0  0  0  0  0  0  0  0
    7.7132  -33.9535  -12.9468 C   0  0  1  0  0  0  0  0  0  0  0  0
    5.6850  -37.9189  -13.2244 C   0  0  1  0  0  0  0  0  0  0  0  0
    6.5157  -33.7115  -12.2145 O   0  0  0  0  0  0  0  0  0  0  0  0
    6.6863  -38.5534  -12.4345 O   0  0  0  0  0  0  0  0  0  0  0  0
    8.2115  -32.6626  -13.5697 C   0  0  0  0  0  0  0  0  0  0  0  0
    5.4685  -38.6935  -14.5100 C   0  0  0  0  0  0  0  0  0  0  0  0
    9.5927  -32.4177  -12.9805 C   0  0  2  0  0  0  0  0  0  0  0  0
    4.0134  -39.1396  -14.4916 C   0  0  2  0  0  0  0  0  0  0  0  0
   11.4370  -34.8040  -17.2796 N   0  0  0  0  0  0  0  0  0  0  0  0
   10.4108  -35.1370  -16.4750 C   0  0  0  0  0  0  0  0  0  0  0  0
   10.0467  -34.4235  -15.3936 N   0  0  0  0  0  0  0  0  0  0  0  0
   10.7140  -33.2967  -15.0473 C   0  0  0  0  0  0  0  0  0  0  0  0
   11.8491  -32.8660  -15.8783 C   0  0  0  0  0  0  0  0  0  0  0  0
   12.1898  -33.7044  -17.0522 C   0  0  0  0  0  0  0  0  0  0  0  0
   13.2199  -33.3792  -17.8700 N   0  0  0  0  0  0  0  0  0  0  0  0
   12.3261  -31.7370  -15.3214 N   0  0  0  0  0  0  0  0  0  0  0  0
   11.5647  -31.4676  -14.2301 C   0  0  0  0  0  0  0  0  0  0  0  0
   10.6036  -32.3970  -14.0667 N   0  0  0  0  0  0  0  0  0  0  0  0
    4.4566  -36.7003  -19.1204 N   0  0  0  0  0  0  0  0  0  0  0  0
    5.4079  -37.1083  -18.2602 C   0  0  0  0  0  0  0  0  0  0  0  0
    5.1462  -37.7286  -17.0955 N   0  0  0  0  0  0  0  0  0  0  0  0
    3.8707  -37.9832  -16.7159 C   0  0  0  0  0  0  0  0  0  0  0  0
    2.7739  -37.5674  -17.6038 C   0  0  0  0  0  0  0  0  0  0  0  0
    3.1434  -36.8901  -18.8691 C   0  0  0  0  0  0  0  0  0  0  0  0
    2.1945  -36.4752  -19.7440 N   0  0  0  0  0  0  0  0  0  0  0  0
    1.6292  -37.9354  -16.9979 N   0  0  0  0  0  0  0  0  0  0  0  0
    1.9635  -38.5335  -15.8255 C   0  0  0  0  0  0  0  0  0  0  0  0
    3.2984  -38.5618  -15.6574 N   0  0  0  0  0  0  0  0  0  0  0  0
  1  3  1  1  0  0  0
  1  5  2  0  0  0  0
  1  9  1  0  0  0  0
  1 18  1  0  0  0  0
  2  4  1  6  0  0  0
  2  6  2  0  0  0  0
  2 10  1  0  0  0  0
  2 17  1  0  0  0  0
  7  9  1  0  0  0  0
  8 10  1  0  0  0  0
 11  7  1  6  0  0  0
 11 13  1  0  0  0  0
 11 15  1  0  0  0  0
 12  8  1  6  0  0  0
 12 14  1  0  0  0  0
 12 16  1  0  0  0  0
 13 21  1  0  0  0  0
 14 22  1  0  0  0  0
 15 17  1  1  0  0  0
 15 19  1  0  0  0  0
 16 18  1  1  0  0  0
 16 20  1  0  0  0  0
 19 21  1  0  0  0  0
 20 22  1  0  0  0  0
 21 32  1  6  0  0  0
 22 42  1  6  0  0  0
 23 24  2  0  0  0  0
 23 28  1  0  0  0  0
 24 25  1  0  0  0  0
 25 26  2  0  0  0  0
 26 27  1  0  0  0  0
 26 32  1  0  0  0  0
 27 28  2  0  0  0  0
 27 30  1  0  0  0  0
 28 29  1  0  0  0  0
 30 31  2  0  0  0  0
 31 32  1  0  0  0  0
 33 34  2  0  0  0  0
 33 38  1  0  0  0  0
 34 35  1  0  0  0  0
 35 36  2  0  0  0  0
 36 37  1  0  0  0  0
 36 42  1  0  0  0  0
 37 38  2  0  0  0  0
 37 40  1  0  0  0  0
 38 39  1  0  0  0  0
 40 41  2  0  0  0  0
 41 42  1  0  0  0  0
M  CHG  2   3  -1   4  -1
M  END
>  <CHROM.1>
70.84241429,131.74633293,6.98820849,-35.82111489,-14.48088542,0.08549137
0.53810873,1.63299937

>  <Name>
ligand

>  <RI>
0

>  <Rbt.Current_Directory>
/home/itssahil/PROJECTS/Mol_Feturizer/New_Systems/rnas/4QLN

>  <Rbt.Executable>
rbdock ($Id: //depot/dev/client3/rdock/2013.1/src/exe/rbdock.cxx#4 $)

>  <Rbt.Library>
libRbt.so (2013.1, Build901 2013/11/27)

>  <Rbt.Parameter_File>
/export/apps/rDock/src/rDock_2013.1_src/data/scripts/dock_solv.prm

>  <Rbt.Receptor>
prm/pocket_docking_6.prm

>  <SCORE>
-11.9334

>  <SCORE.INTER>
-13.5969

>  <SCORE.INTER.CONST>
1

>  <SCORE.INTER.POLAR>
0

>  <SCORE.INTER.ROT>
2

>  <SCORE.INTER.SOLV>
13.3792

>  <SCORE.INTER.VDW>
-18.4577

>  <SCORE.INTER.norm>
-0.323737

>  <SCORE.INTRA>
1.66348

>  <SCORE.INTRA.DIHEDRAL>
-0.000143747

>  <SCORE.INTRA.DIHEDRAL.0>
2.39985

>  <SCORE.INTRA.POLAR>
0

>  <SCORE.INTRA.POLAR.0>
0

>  <SCORE.INTRA.REPUL>
0

>  <SCORE.INTRA.REPUL.0>
0

>  <SCORE.INTRA.SOLV>
-0.108302

>  <SCORE.INTRA.SOLV.lig_0>
-110.958

>  <SCORE.INTRA.VDW>
1.71771

>  <SCORE.INTRA.VDW.0>
-2.34644

>  <SCORE.INTRA.norm>
0.0396067

>  <SCORE.RESTR>
0

>  <SCORE.RESTR.CAVITY>
0

>  <SCORE.RESTR.norm>
0

>  <SCORE.SYSTEM>
0

>  <SCORE.SYSTEM.CONST>
0

>  <SCORE.SYSTEM.DIHEDRAL>
0

>  <SCORE.SYSTEM.SOLV>
0

>  <SCORE.SYSTEM.norm>
0

>  <SCORE.heavy>
42

>  <SCORE.norm>
-0.28413

>  <RMSD>
4.162

$$$$
ligand
 OpenBabel11021811513D
libRbt.so/2013.1/901 2013/11/27
 42 48  0  0  0  0  0  0  0  0999 V2000
    3.6677  -36.8560  -17.9567 P   0  0  2  0  0  0  0  0  0  0  0  0
    5.6225  -37.8991  -13.4174 P   0  0  1  0  0  0  0  0  0  0  0  0
    4.3153  -37.4575  -19.1822 O   0  5  0  0  0  0  0  0  0  0  0  0
    4.7150  -36.7363  -13.0938 O   0  5  0  0  0  0  0  0  0  0  0  0
    2.6950  -35.7106  -18.1045 O   0  0  0  0  0  0  0  0  0  0  0  0
    6.2129  -38.7280  -12.3022 O   0  0  0  0  0  0  0  0  0  0  0  0
    6.0801  -35.9210  -17.4437 C   0  0  0  0  0  0  0  0  0  0  0  0
    3.6111  -39.4930  -14.0232 C   0  0  0  0  0  0  0  0  0  0  0  0
    4.8329  -36.4004  -16.9440 O   0  0  0  0  0  0  0  0  0  0  0  0
    4.8391  -38.8865  -14.4193 O   0  0  0  0  0  0  0  0  0  0  0  0
    7.1886  -36.2645  -16.4559 C   0  0  1  0  0  0  0  0  0  0  0  0
    2.5650  -39.2854  -15.1111 C   0  0  1  0  0  0  0  0  0  0  0  0
    8.2958  -35.3795  -16.6469 O   0  0  0  0  0  0  0  0  0  0  0  0
    1.2554  -39.3852  -14.5465 O   0  0  0  0  0  0  0  0  0  0  0  0
    6.7140  -36.1126  -15.0206 C   0  0  1  0  0  0  0  0  0  0  0  0
    2.6938  -37.9096  -15.7453 C   0  0  1  0  0  0  0  0  0  0  0  0
    6.8304  -37.3548  -14.3333 O   0  0  0  0  0  0  0  0  0  0  0  0
    2.9366  -38.0369  -17.1432 O   0  0  0  0  0  0  0  0  0  0  0  0
    7.6163  -35.0760  -14.3773 C   0  0  0  0  0  0  0  0  0  0  0  0
    1.3732  -37.2025  -15.5092 C   0  0  0  0  0  0  0  0  0  0  0  0
    8.5975  -34.6453  -15.4573 C   0  0  2  0  0  0  0  0  0  0  0  0
    0.5016  -38.1861  -14.7415 C   0  0  2  0  0  0  0  0  0  0  0  0
   10.1871  -29.7996  -14.2039 N   0  0  0  0  0  0  0  0  0  0  0  0
   10.5760  -30.9931  -13.7186 C   0  0  0  0  0  0  0  0  0  0  0  0
   10.0758  -32.1698  -14.1385 N   0  0  0  0  0  0  0  0  0  0  0  0
    9.1253  -32.2169  -15.1024 C   0  0  0  0  0  0  0  0  0  0  0  0
    8.6477  -30.9525  -15.6839 C   0  0  0  0  0  0  0  0  0  0  0  0
    9.2460  -29.6979  -15.1691 C   0  0  0  0  0  0  0  0  0  0  0  0
    8.8634  -28.4905  -15.6502 N   0  0  0  0  0  0  0  0  0  0  0  0
    7.7201  -31.2790  -16.6034 N   0  0  0  0  0  0  0  0  0  0  0  0
    7.6123  -32.6323  -16.6109 C   0  0  0  0  0  0  0  0  0  0  0  0
    8.4499  -33.1915  -15.7165 N   0  0  0  0  0  0  0  0  0  0  0  0
   -3.3935  -36.9560  -11.4419 N   0  0  0  0  0  0  0  0  0  0  0  0
   -3.4365  -37.5221  -12.6622 C   0  0  0  0  0  0  0  0  0  0  0  0
   -2.3450  -37.7825  -13.4042 N   0  0  0  0  0  0  0  0  0  0  0  0
   -1.1062  -37.4790  -12.9470 C   0  0  0  0  0  0  0  0  0  0  0  0
   -0.9764  -36.8575  -11.6200 C   0  0  0  0  0  0  0  0  0  0  0  0
   -2.2253  -36.6026  -10.8639 C   0  0  0  0  0  0  0  0  0  0  0  0
   -2.1951  -36.0337   -9.6336 N   0  0  0  0  0  0  0  0  0  0  0  0
    0.3400  -36.6646  -11.4136 N   0  0  0  0  0  0  0  0  0  0  0  0
    0.9952  -37.1219  -12.5116 C   0  0  0  0  0  0  0  0  0  0  0  0
    0.1340  -37.6067  -13.4250 N   0  0  0  0  0  0  0  0  0  0  0  0
  1  3  1  6  0  0  0
  1  5  2  0  0  0  0
  1  9  1  0  0  0  0
  1 18  1  0  0  0  0
  2  4  1  1  0  0  0
  2  6  2  0  0  0  0
  2 10  1  0  0  0  0
  2 17  1  0  0  0  0
  7  9  1  0  0  0  0
  8 10  1  0  0  0  0
 11  7  1  6  0  0  0
 11 13  1  0  0  0  0
 11 15  1  0  0  0  0
 12  8  1  1  0  0  0
 12 14  1  0  0  0  0
 12 16  1  0  0  0  0
 13 21  1  0  0  0  0
 14 22  1  0  0  0  0
 15 17  1  1  0  0  0
 15 19  1  0  0  0  0
 16 18  1  6  0  0  0
 16 20  1  0  0  0  0
 19 21  1  0  0  0  0
 20 22  1  0  0  0  0
 21 32  1  6  0  0  0
 22 42  1  1  0  0  0
 23 24  2  0  0  0  0
 23 28  1  0  0  0  0
 24 25  1  0  0  0  0
 25 26  2  0  0  0  0
 26 27  1  0  0  0  0
 26 32  1  0  0  0  0
 27 28  2  0  0  0  0
 27 30  1  0  0  0  0
 28 29  1  0  0  0  0
 30 31  2  0  0  0  0
 31 32  1  0  0  0  0
 33 34  2  0  0  0  0
 33 38  1  0  0  0  0
 34 35  1  0  0  0  0
 35 36  2  0  0  0  0
 36 37  1  0  0  0  0
 36 42  1  0  0  0  0
 37 38  2  0  0  0  0
 37 40  1  0  0  0  0
 38 39  1  0  0  0  0
 40 41  2  0  0  0  0
 41 42  1  0  0  0  0
M  CHG  2   3  -1   4  -1
M  END
>  <CHROM.1>
-150.82985824,-115.10847584,4.31648717,-35.91874639,-14.74563571,-2.90330329
0.51811868,0.68594775

>  <Name>
ligand

>  <RI>
0

>  <Rbt.Current_Directory>
/home/itssahil/PROJECTS/Mol_Feturizer/New_Systems/rnas/4QLN

>  <Rbt.Executable>
rbdock ($Id: //depot/dev/client3/rdock/2013.1/src/exe/rbdock.cxx#4 $)

>  <Rbt.Library>
libRbt.so (2013.1, Build901 2013/11/27)

>  <Rbt.Parameter_File>
/export/apps/rDock/src/rDock_2013.1_src/data/scripts/dock_solv.prm

>  <Rbt.Receptor>
prm/pocket_docking_8.prm

>  <SCORE>
-11.3251

>  <SCORE.INTER>
-11.9507

>  <SCORE.INTER.CONST>
1

>  <SCORE.INTER.POLAR>
0

>  <SCORE.INTER.ROT>
2

>  <SCORE.INTER.SOLV>
20.0631

>  <SCORE.INTER.VDW>
-19.5882

>  <SCORE.INTER.norm>
-0.284542

>  <SCORE.INTRA>
0.625686

>  <SCORE.INTRA.DIHEDRAL>
0.000220622

>  <SCORE.INTRA.DIHEDRAL.0>
2.39985

>  <SCORE.INTRA.POLAR>
0

>  <SCORE.INTRA.POLAR.0>
0

>  <SCORE.INTRA.REPUL>
0

>  <SCORE.INTRA.REPUL.0>
0

>  <SCORE.INTRA.SOLV>
-0.0503655

>  <SCORE.INTRA.SOLV.lig_0>
-110.958

>  <SCORE.INTRA.VDW>
0.650759

>  <SCORE.INTRA.VDW.0>
-2.34644

>  <SCORE.INTRA.norm>
0.0148973

>  <SCORE.RESTR>
0

>  <SCORE.RESTR.CAVITY>
0

>  <SCORE.RESTR.norm>
0

>  <SCORE.SYSTEM>
0

>  <SCORE.SYSTEM.CONST>
0

>  <SCORE.SYSTEM.DIHEDRAL>
0

>  <SCORE.SYSTEM.SOLV>
0

>  <SCORE.SYSTEM.norm>
0

>  <SCORE.heavy>
42

>  <SCORE.norm>
-0.269644

>  <RMSD>
5.160

$$$$
ligand
 OpenBabel11021811513D
libRbt.so/2013.1/901 2013/11/27
 42 48  0  0  0  0  0  0  0  0999 V2000
    6.4913  -32.0044  -14.4195 P   0  0  2  0  0  0  0  0  0  0  0  0
    5.4098  -35.9383  -17.3976 P   0  0  1  0  0  0  0  0  0  0  0  0
    7.0759  -30.7592  -15.0445 O   0  5  0  0  0  0  0  0  0  0  0  0
    5.3402  -36.5703  -16.0279 O   0  5  0  0  0  0  0  0  0  0  0  0
    6.5552  -32.1971  -12.9233 O   0  0  0  0  0  0  0  0  0  0  0  0
    4.8798  -36.6829  -18.5994 O   0  0  0  0  0  0  0  0  0  0  0  0
    8.5214  -33.2359  -15.5680 C   0  0  0  0  0  0  0  0  0  0  0  0
    3.3038  -34.4119  -16.9638 C   0  0  0  0  0  0  0  0  0  0  0  0
    7.1672  -33.2852  -15.1221 O   0  0  0  0  0  0  0  0  0  0  0  0
    4.6786  -34.5054  -17.3294 O   0  0  0  0  0  0  0  0  0  0  0  0
    8.6923  -34.1514  -16.7744 C   0  0  1  0  0  0  0  0  0  0  0  0
    3.1357  -33.3600  -15.8747 C   0  0  1  0  0  0  0  0  0  0  0  0
   10.0665  -34.5256  -16.9048 O   0  0  0  0  0  0  0  0  0  0  0  0
    1.9379  -33.6162  -15.1373 O   0  0  0  0  0  0  0  0  0  0  0  0
    7.8763  -35.4237  -16.6204 C   0  0  1  0  0  0  0  0  0  0  0  0
    4.2988  -33.3882  -14.8959 C   0  0  1  0  0  0  0  0  0  0  0  0
    6.9421  -35.5376  -17.6896 O   0  0  0  0  0  0  0  0  0  0  0  0
    4.9529  -32.1229  -14.8781 O   0  0  0  0  0  0  0  0  0  0  0  0
    8.8634  -36.5752  -16.6674 C   0  0  0  0  0  0  0  0  0  0  0  0
    3.7055  -33.6860  -13.5324 C   0  0  0  0  0  0  0  0  0  0  0  0
   10.2363  -35.9444  -16.8463 C   0  0  2  0  0  0  0  0  0  0  0  0
    2.2051  -33.8237  -13.7482 C   0  0  2  0  0  0  0  0  0  0  0  0
   11.9042  -34.5852  -12.0558 N   0  0  0  0  0  0  0  0  0  0  0  0
   11.0358  -33.9696  -12.8793 C   0  0  0  0  0  0  0  0  0  0  0  0
   10.6979  -34.4381  -14.0948 N   0  0  0  0  0  0  0  0  0  0  0  0
   11.2298  -35.5904  -14.5683 C   0  0  0  0  0  0  0  0  0  0  0  0
   12.1881  -36.3230  -13.7258 C   0  0  0  0  0  0  0  0  0  0  0  0
   12.5104  -35.7434  -12.4002 C   0  0  0  0  0  0  0  0  0  0  0  0
   13.3823  -36.3540  -11.5620 N   0  0  0  0  0  0  0  0  0  0  0  0
   12.5567  -37.4139  -14.4232 N   0  0  0  0  0  0  0  0  0  0  0  0
   11.8940  -37.3836  -15.6077 C   0  0  0  0  0  0  0  0  0  0  0  0
   11.1028  -36.2969  -15.6943 N   0  0  0  0  0  0  0  0  0  0  0  0
    1.1986  -38.7260  -15.3376 N   0  0  0  0  0  0  0  0  0  0  0  0
    1.6184  -37.6560  -16.0377 C   0  0  0  0  0  0  0  0  0  0  0  0
    1.8378  -36.4456  -15.4932 N   0  0  0  0  0  0  0  0  0  0  0  0
    1.6415  -36.2341  -14.1693 C   0  0  0  0  0  0  0  0  0  0  0  0
    1.1826  -37.3561  -13.3359 C   0  0  0  0  0  0  0  0  0  0  0  0
    0.9637  -38.6579  -14.0094 C   0  0  0  0  0  0  0  0  0  0  0  0
    0.5418  -39.7432  -13.3151 N   0  0  0  0  0  0  0  0  0  0  0  0
    1.0707  -36.8813  -12.0810 N   0  0  0  0  0  0  0  0  0  0  0  0
    1.4260  -35.5710  -12.1086 C   0  0  0  0  0  0  0  0  0  0  0  0
    1.7658  -35.1854  -13.3523 N   0  0  0  0  0  0  0  0  0  0  0  0
  1  3  1  6  0  0  0
  1  5  2  0  0  0  0
  1  9  1  0  0  0  0
  1 18  1  0  0  0  0
  2  4  1  1  0  0  0
  2  6  2  0  0  0  0
  2 10  1  0  0  0  0
  2 17  1  0  0  0  0
  7  9  1  0  0  0  0
  8 10  1  0  0  0  0
 11  7  1  1  0  0  0
 11 13  1  0  0  0  0
 11 15  1  0  0  0  0
 12  8  1  6  0  0  0
 12 14  1  0  0  0  0
 12 16  1  0  0  0  0
 13 21  1  0  0  0  0
 14 22  1  0  0  0  0
 15 17  1  6  0  0  0
 15 19  1  0  0  0  0
 16 18  1  1  0  0  0
 16 20  1  0  0  0  0
 19 21  1  0  0  0  0
 20 22  1  0  0  0  0
 21 32  1  1  0  0  0
 22 42  1  6  0  0  0
 23 24  2  0  0  0  0
 23 28  1  0  0  0  0
 24 25  1  0  0  0  0
 25 26  2  0  0  0  0
 26 27  1  0  0  0  0
 26 32  1  0  0  0  0
 27 28  2  0  0  0  0
 27 30  1  0  0  0  0
 28 29  1  0  0  0  0
 30 31  2  0  0  0  0
 31 32  1  0  0  0  0
 33 34  2  0  0  0  0
 33 38  1  0  0  0  0
 34 35  1  0  0  0  0
 35 36  2  0  0  0  0
 36 37  1  0  0  0  0
 36 42  1  0  0  0  0
 37 38  2  0  0  0  0
 37 40  1  0  0  0  0
 38 39  1  0  0  0  0
 40 41  2  0  0  0  0
 41 42  1  0  0  0  0
M  CHG  2   3  -1   4  -1
M  END
>  <CHROM.1>
27.79131479,24.50357700,6.25147844,-35.14922062,-15.00113459,0.09444298,-0.00811610
0.11381019

>  <Name>
ligand

>  <RI>
0

>  <Rbt.Current_Directory>
/home/itssahil/PROJECTS/Mol_Feturizer/New_Systems/rnas/4QLN

>  <Rbt.Executable>
rbdock ($Id: //depot/dev/client3/rdock/2013.1/src/exe/rbdock.cxx#4 $)

>  <Rbt.Library>
libRbt.so (2013.1, Build901 2013/11/27)

>  <Rbt.Parameter_File>
/export/apps/rDock/src/rDock_2013.1_src/data/scripts/dock_solv.prm

>  <Rbt.Receptor>
prm/pocket_docking_7.prm

>  <SCORE>
-10.3757

>  <SCORE.INTER>
-10.0652

>  <SCORE.INTER.CONST>
1

>  <SCORE.INTER.POLAR>
0

>  <SCORE.INTER.ROT>
2

>  <SCORE.INTER.SOLV>
15.123

>  <SCORE.INTER.VDW>
-16.6844

>  <SCORE.INTER.norm>
-0.239647

>  <SCORE.INTRA>
-0.310482

>  <SCORE.INTRA.DIHEDRAL>
-0.000831855

>  <SCORE.INTRA.DIHEDRAL.0>
2.39985

>  <SCORE.INTRA.POLAR>
0

>  <SCORE.INTRA.POLAR.0>
0

>  <SCORE.INTRA.REPUL>
0

>  <SCORE.INTRA.REPUL.0>
0

>  <SCORE.INTRA.SOLV>
0.274339

>  <SCORE.INTRA.SOLV.lig_0>
-110.958

>  <SCORE.INTRA.VDW>
-0.447235

>  <SCORE.INTRA.VDW.0>
-2.34644

>  <SCORE.INTRA.norm>
-0.00739243

>  <SCORE.RESTR>
0

>  <SCORE.RESTR.CAVITY>
0

>  <SCORE.RESTR.norm>
0

>  <SCORE.SYSTEM>
0

>  <SCORE.SYSTEM.CONST>
0

>  <SCORE.SYSTEM.DIHEDRAL>
0

>  <SCORE.SYSTEM.SOLV>
0

>  <SCORE.SYSTEM.norm>
0

>  <SCORE.heavy>
42

>  <SCORE.norm>
-0.247039

>  <RMSD>
6.005

$$$$
ligand
 OpenBabel11021811513D
libRbt.so/2013.1/901 2013/11/27
 42 48  0  0  0  0  0  0  0  0999 V2000
    5.8360  -32.2165  -13.7897 P   0  0  2  0  0  0  0  0  0  0  0  0
    4.8457  -35.6921  -17.3186 P   0  0  1  0  0  0  0  0  0  0  0  0
    6.4107  -30.8871  -14.2203 O   0  5  0  0  0  0  0  0  0  0  0  0
    4.7684  -36.5160  -16.0554 O   0  5  0  0  0  0  0  0  0  0  0  0
    5.8845  -32.6223  -12.3361 O   0  0  0  0  0  0  0  0  0  0  0  0
    4.3408  -36.2618  -18.6224 O   0  0  0  0  0  0  0  0  0  0  0  0
    7.8969  -33.2447  -15.0752 C   0  0  0  0  0  0  0  0  0  0  0  0
    2.7135  -34.2699  -16.6988 C   0  0  0  0  0  0  0  0  0  0  0  0
    6.5382  -33.3742  -14.6600 O   0  0  0  0  0  0  0  0  0  0  0  0
    4.0939  -34.2930  -17.0548 O   0  0  0  0  0  0  0  0  0  0  0  0
    8.0952  -33.9743  -16.3984 C   0  0  1  0  0  0  0  0  0  0  0  0
    2.5175  -33.3883  -15.4719 C   0  0  1  0  0  0  0  0  0  0  0  0
    9.4759  -34.3091  -16.5621 O   0  0  0  0  0  0  0  0  0  0  0  0
    1.3147  -33.7626  -14.7960 O   0  0  0  0  0  0  0  0  0  0  0  0
    7.2952  -35.2653  -16.4408 C   0  0  1  0  0  0  0  0  0  0  0  0
    3.6690  -33.5434  -14.4912 C   0  0  1  0  0  0  0  0  0  0  0  0
    6.3758  -35.2350  -17.5283 O   0  0  0  0  0  0  0  0  0  0  0  0
    4.3051  -32.2861  -14.2820 O   0  0  0  0  0  0  0  0  0  0  0  0
    8.2988  -36.3859  -16.6396 C   0  0  0  0  0  0  0  0  0  0  0  0
    3.0635  -34.0420  -13.1933 C   0  0  0  0  0  0  0  0  0  0  0  0
    9.6648  -35.7194  -16.7064 C   0  0  2  0  0  0  0  0  0  0  0  0
    1.5679  -34.1652  -13.4477 C   0  0  2  0  0  0  0  0  0  0  0  0
   11.5409  -34.8491  -11.8793 N   0  0  0  0  0  0  0  0  0  0  0  0
   10.7108  -34.1063  -12.6345 C   0  0  0  0  0  0  0  0  0  0  0  0
   10.3093  -34.4571  -13.8702 N   0  0  0  0  0  0  0  0  0  0  0  0
   10.7319  -35.6127  -14.4367 C   0  0  0  0  0  0  0  0  0  0  0  0
   11.6420  -36.4805  -13.6730 C   0  0  0  0  0  0  0  0  0  0  0  0
   12.0398  -36.0259  -12.3195 C   0  0  0  0  0  0  0  0  0  0  0  0
   12.8741  -36.7651  -11.5493 N   0  0  0  0  0  0  0  0  0  0  0  0
   11.9025  -37.5456  -14.4541 N   0  0  0  0  0  0  0  0  0  0  0  0
   11.2202  -37.3759  -15.6155 C   0  0  0  0  0  0  0  0  0  0  0  0
   10.5222  -36.2240  -15.6052 N   0  0  0  0  0  0  0  0  0  0  0  0
    1.2593  -38.9593  -15.5677 N   0  0  0  0  0  0  0  0  0  0  0  0
    1.7513  -37.8151  -16.0778 C   0  0  0  0  0  0  0  0  0  0  0  0
    1.7657  -36.6457  -15.4131 N   0  0  0  0  0  0  0  0  0  0  0  0
    1.2702  -36.5560  -14.1552 C   0  0  0  0  0  0  0  0  0  0  0  0
    0.7144  -37.7651  -13.5280 C   0  0  0  0  0  0  0  0  0  0  0  0
    0.7347  -39.0146  -14.3245 C   0  0  0  0  0  0  0  0  0  0  0  0
    0.2429  -40.1736  -13.8215 N   0  0  0  0  0  0  0  0  0  0  0  0
    0.2987  -37.4035  -12.2994 N   0  0  0  0  0  0  0  0  0  0  0  0
    0.5645  -36.0799  -12.1532 C   0  0  0  0  0  0  0  0  0  0  0  0
    1.1429  -35.5751  -13.2584 N   0  0  0  0  0  0  0  0  0  0  0  0
  1  3  1  6  0  0  0
  1  5  2  0  0  0  0
  1  9  1  0  0  0  0
  1 18  1  0  0  0  0
  2  4  1  1  0  0  0
  2  6  2  0  0  0  0
  2 10  1  0  0  0  0
  2 17  1  0  0  0  0
  7  9  1  0  0  0  0
  8 10  1  0  0  0  0
 11  7  1  1  0  0  0
 11 13  1  0  0  0  0
 11 15  1  0  0  0  0
 12  8  1  6  0  0  0
 12 14  1  0  0  0  0
 12 16  1  0  0  0  0
 13 21  1  0  0  0  0
 14 22  1  0  0  0  0
 15 17  1  6  0  0  0
 15 19  1  0  0  0  0
 16 18  1  1  0  0  0
 16 20  1  0  0  0  0
 19 21  1  0  0  0  0
 20 22  1  0  0  0  0
 21 32  1  1  0  0  0
 22 42  1  6  0  0  0
 23 24  2  0  0  0  0
 23 28  1  0  0  0  0
 24 25  1  0  0  0  0
 25 26  2  0  0  0  0
 26 27  1  0  0  0  0
 26 32  1  0  0  0  0
 27 28  2  0  0  0  0
 27 30  1  0  0  0  0
 28 29  1  0  0  0  0
 30 31  2  0  0  0  0
 31 32  1  0  0  0  0
 33 34  2  0  0  0  0
 33 38  1  0  0  0  0
 34 35  1  0  0  0  0
 35 36  2  0  0  0  0
 36 37  1  0  0  0  0
 36 42  1  0  0  0  0
 37 38  2  0  0  0  0
 37 40  1  0  0  0  0
 38 39  1  0  0  0  0
 40 41  2  0  0  0  0
 41 42  1  0  0  0  0
M  CHG  2   3  -1   4  -1
M  END
>  <CHROM.1>
20.48726066,37.41003345,5.72081590,-35.24408644,-14.81844451,0.11030639,-0.01272615
0.22892974

>  <Name>
ligand

>  <RI>
0

>  <Rbt.Current_Directory>
/home/itssahil/PROJECTS/Mol_Feturizer/New_Systems/rnas/4QLN

>  <Rbt.Executable>
rbdock ($Id: //depot/dev/client3/rdock/2013.1/src/exe/rbdock.cxx#4 $)

>  <Rbt.Library>
libRbt.so (2013.1, Build901 2013/11/27)

>  <Rbt.Parameter_File>
/export/apps/rDock/src/rDock_2013.1_src/data/scripts/dock_solv.prm

>  <Rbt.Receptor>
prm/pocket_docking_6.prm

>  <SCORE>
-10.1853

>  <SCORE.INTER>
-9.87105

>  <SCORE.INTER.CONST>
1

>  <SCORE.INTER.POLAR>
0

>  <SCORE.INTER.ROT>
2

>  <SCORE.INTER.SOLV>
17.3906

>  <SCORE.INTER.VDW>
-17.3109

>  <SCORE.INTER.norm>
-0.235025

>  <SCORE.INTRA>
-0.314219

>  <SCORE.INTRA.DIHEDRAL>
-0.000777124

>  <SCORE.INTRA.DIHEDRAL.0>
2.39985

>  <SCORE.INTRA.POLAR>
0

>  <SCORE.INTRA.POLAR.0>
0

>  <SCORE.INTRA.REPUL>
0

>  <SCORE.INTRA.REPUL.0>
0

>  <SCORE.INTRA.SOLV>
0.801288

>  <SCORE.INTRA.SOLV.lig_0>
-110.958

>  <SCORE.INTRA.VDW>
-0.714474

>  <SCORE.INTRA.VDW.0>
-2.34644

>  <SCORE.INTRA.norm>
-0.00748139

>  <SCORE.RESTR>
0

>  <SCORE.RESTR.CAVITY>
0

>  <SCORE.RESTR.norm>
0

>  <SCORE.SYSTEM>
0

>  <SCORE.SYSTEM.CONST>
0

>  <SCORE.SYSTEM.DIHEDRAL>
0

>  <SCORE.SYSTEM.SOLV>
0

>  <SCORE.SYSTEM.norm>
0

>  <SCORE.heavy>
42

>  <SCORE.norm>
-0.242506

>  <RMSD>
6.015

$$$$
ligand
 OpenBabel11021811513D
libRbt.so/2013.1/901 2013/11/27
 42 48  0  0  0  0  0  0  0  0999 V2000
    7.7923  -30.8483  -12.8624 P   0  0  2  0  0  0  0  0  0  0  0  0
    6.7503  -33.4759  -17.0486 P   0  0  1  0  0  0  0  0  0  0  0  0
    8.2796  -29.4247  -13.0006 O   0  5  0  0  0  0  0  0  0  0  0  0
    6.7861  -34.5699  -16.0083 O   0  5  0  0  0  0  0  0  0  0  0  0
    7.9460  -31.5723  -11.5463 O   0  0  0  0  0  0  0  0  0  0  0  0
    6.1945  -33.7604  -18.4232 O   0  0  0  0  0  0  0  0  0  0  0  0
    9.8168  -31.4345  -14.4482 C   0  0  0  0  0  0  0  0  0  0  0  0
    4.5971  -32.3586  -16.0150 C   0  0  0  0  0  0  0  0  0  0  0  0
    8.4927  -31.7337  -14.0098 O   0  0  0  0  0  0  0  0  0  0  0  0
    5.9533  -32.2200  -16.4323 O   0  0  0  0  0  0  0  0  0  0  0  0
    9.9682  -31.8294  -15.9124 C   0  0  1  0  0  0  0  0  0  0  0  0
    4.4353  -31.7938  -14.6093 C   0  0  1  0  0  0  0  0  0  0  0  0
   11.3504  -32.0377  -16.2151 O   0  0  0  0  0  0  0  0  0  0  0  0
    3.2932  -32.3816  -13.9817 O   0  0  0  0  0  0  0  0  0  0  0  0
    9.2262  -33.1205  -16.2142 C   0  0  1  0  0  0  0  0  0  0  0  0
    5.6493  -32.1024  -13.7475 C   0  0  1  0  0  0  0  0  0  0  0  0
    8.2429  -32.8954  -17.2198 O   0  0  0  0  0  0  0  0  0  0  0  0
    6.2394  -30.8917  -13.2837 O   0  0  0  0  0  0  0  0  0  0  0  0
   10.2657  -34.1061  -16.7148 C   0  0  0  0  0  0  0  0  0  0  0  0
    5.1457  -32.9188  -12.5729 C   0  0  0  0  0  0  0  0  0  0  0  0
   11.5938  -33.3642  -16.6908 C   0  0  2  0  0  0  0  0  0  0  0  0
    3.6447  -33.0666  -12.7770 C   0  0  2  0  0  0  0  0  0  0  0  0
   12.8906  -34.3987  -11.7082 N   0  0  0  0  0  0  0  0  0  0  0  0
   11.8780  -33.6659  -12.2071 C   0  0  0  0  0  0  0  0  0  0  0  0
   11.6645  -33.4840  -13.5233 N   0  0  0  0  0  0  0  0  0  0  0  0
   12.4824  -34.0471  -14.4446 C   0  0  0  0  0  0  0  0  0  0  0  0
   13.6134  -34.8642  -13.9776 C   0  0  0  0  0  0  0  0  0  0  0  0
   13.7832  -35.0174  -12.5132 C   0  0  0  0  0  0  0  0  0  0  0  0
   14.7980  -35.7532  -11.9989 N   0  0  0  0  0  0  0  0  0  0  0  0
   14.2548  -35.2973  -15.0792 N   0  0  0  0  0  0  0  0  0  0  0  0
   13.5941  -34.8019  -16.1568 C   0  0  0  0  0  0  0  0  0  0  0  0
   12.5375  -34.0569  -15.7788 N   0  0  0  0  0  0  0  0  0  0  0  0
    1.6138  -36.8275  -15.8272 N   0  0  0  0  0  0  0  0  0  0  0  0
    1.7882  -35.5149  -16.0683 C   0  0  0  0  0  0  0  0  0  0  0  0
    2.3286  -34.6578  -15.1834 N   0  0  0  0  0  0  0  0  0  0  0  0
    2.7388  -35.0850  -13.9647 C   0  0  0  0  0  0  0  0  0  0  0  0
    2.5816  -36.5079  -13.6261 C   0  0  0  0  0  0  0  0  0  0  0  0
    1.9780  -37.3885  -14.6540 C   0  0  0  0  0  0  0  0  0  0  0  0
    1.7978  -38.7123  -14.4235 N   0  0  0  0  0  0  0  0  0  0  0  0
    3.0619  -36.6606  -12.3776 N   0  0  0  0  0  0  0  0  0  0  0  0
    3.4884  -35.4430  -11.9541 C   0  0  0  0  0  0  0  0  0  0  0  0
    3.2958  -34.5045  -12.8992 N   0  0  0  0  0  0  0  0  0  0  0  0
  1  3  1  1  0  0  0
  1  5  2  0  0  0  0
  1  9  1  0  0  0  0
  1 18  1  0  0  0  0
  2  4  1  1  0  0  0
  2  6  2  0  0  0  0
  2 10  1  0  0  0  0
  2 17  1  0  0  0  0
  7  9  1  0  0  0  0
  8 10  1  0  0  0  0
 11  7  1  1  0  0  0
 11 13  1  0  0  0  0
 11 15  1  0  0  0  0
 12  8  1  6  0  0  0
 12 14  1  0  0  0  0
 12 16  1  0  0  0  0
 13 21  1  0  0  0  0
 14 22  1  0  0  0  0
 15 17  1  6  0  0  0
 15 19  1  0  0  0  0
 16 18  1  1  0  0  0
 16 20  1  0  0  0  0
 19 21  1  0  0  0  0
 20 22  1  0  0  0  0
 21 32  1  1  0  0  0
 22 42  1  6  0  0  0
 23 24  2  0  0  0  0
 23 28  1  0  0  0  0
 24 25  1  0  0  0  0
 25 26  2  0  0  0  0
 26 27  1  0  0  0  0
 26 32  1  0  0  0  0
 27 28  2  0  0  0  0
 27 30  1  0  0  0  0
 28 29  1  0  0  0  0
 30 31  2  0  0  0  0
 31 32  1  0  0  0  0
 33 34  2  0  0  0  0
 33 38  1  0  0  0  0
 34 35  1  0  0  0  0
 35 36  2  0  0  0  0
 36 37  1  0  0  0  0
 36 42  1  0  0  0  0
 37 38  2  0  0  0  0
 37 40  1  0  0  0  0
 38 39  1  0  0  0  0
 40 41  2  0  0  0  0
 41 42  1  0  0  0  0
M  CHG  2   3  -1   4  -1
M  END
>  <CHROM.1>
44.70995147,0.01335503,7.53589235,-33.59907612,-14.53411121,0.12661265,0.02610163
0.31108620

>  <Name>
ligand

>  <RI>
0

>  <Rbt.Current_Directory>
/home/itssahil/PROJECTS/Mol_Feturizer/New_Systems/rnas/4QLN

>  <Rbt.Executable>
rbdock ($Id: //depot/dev/client3/rdock/2013.1/src/exe/rbdock.cxx#4 $)

>  <Rbt.Library>
libRbt.so (2013.1, Build901 2013/11/27)

>  <Rbt.Parameter_File>
/export/apps/rDock/src/rDock_2013.1_src/data/scripts/dock_solv.prm

>  <Rbt.Receptor>
prm/pocket_docking_8.prm

>  <SCORE>
-13.4883

>  <SCORE.INTER>
-13.4331

>  <SCORE.INTER.CONST>
1

>  <SCORE.INTER.POLAR>
0

>  <SCORE.INTER.ROT>
2

>  <SCORE.INTER.SOLV>
22.5773

>  <SCORE.INTER.VDW>
-21.4145

>  <SCORE.INTER.norm>
-0.319836

>  <SCORE.INTRA>
-0.0552089

>  <SCORE.INTRA.DIHEDRAL>
-3.84528e-05

>  <SCORE.INTRA.DIHEDRAL.0>
2.39985

>  <SCORE.INTRA.POLAR>
0

>  <SCORE.INTRA.POLAR.0>
0

>  <SCORE.INTRA.REPUL>
0

>  <SCORE.INTRA.REPUL.0>
0

>  <SCORE.INTRA.SOLV>
0.00184089

>  <SCORE.INTRA.SOLV.lig_0>
-110.958

>  <SCORE.INTRA.VDW>
-0.0561101

>  <SCORE.INTRA.VDW.0>
-2.34644

>  <SCORE.INTRA.norm>
-0.0013145

>  <SCORE.RESTR>
0

>  <SCORE.RESTR.CAVITY>
0

>  <SCORE.RESTR.norm>
0

>  <SCORE.SYSTEM>
0

>  <SCORE.SYSTEM.CONST>
0

>  <SCORE.SYSTEM.DIHEDRAL>
0

>  <SCORE.SYSTEM.SOLV>
0

>  <SCORE.SYSTEM.norm>
0

>  <SCORE.heavy>
42

>  <SCORE.norm>
-0.321151

>  <RMSD>
6.022

$$$$
ligand
 OpenBabel11021811513D
libRbt.so/2013.1/901 2013/11/27
 42 48  0  0  0  0  0  0  0  0999 V2000
    5.8447  -32.1326  -13.6945 P   0  0  2  0  0  0  0  0  0  0  0  0
    4.8960  -35.4639  -17.3710 P   0  0  1  0  0  0  0  0  0  0  0  0
    6.4133  -30.7830  -14.0660 O   0  5  0  0  0  0  0  0  0  0  0  0
    4.8169  -36.3403  -16.1438 O   0  5  0  0  0  0  0  0  0  0  0  0
    5.8878  -32.5985  -12.2588 O   0  0  0  0  0  0  0  0  0  0  0  0
    4.4019  -35.9817  -18.7004 O   0  0  0  0  0  0  0  0  0  0  0  0
    7.9192  -33.0937  -15.0098 C   0  0  0  0  0  0  0  0  0  0  0  0
    2.7514  -34.0818  -16.7047 C   0  0  0  0  0  0  0  0  0  0  0  0
    6.5591  -33.2487  -14.6083 O   0  0  0  0  0  0  0  0  0  0  0  0
    4.1338  -34.0816  -17.0534 O   0  0  0  0  0  0  0  0  0  0  0  0
    8.1293  -33.7661  -16.3612 C   0  0  1  0  0  0  0  0  0  0  0  0
    2.5431  -33.2534  -15.4432 C   0  0  1  0  0  0  0  0  0  0  0  0
    9.5131  -34.0854  -16.5308 O   0  0  0  0  0  0  0  0  0  0  0  0
    1.3389  -33.6630  -14.7905 O   0  0  0  0  0  0  0  0  0  0  0  0
    7.3378  -35.0591  -16.4621 C   0  0  1  0  0  0  0  0  0  0  0  0
    3.6901  -33.4423  -14.4632 C   0  0  1  0  0  0  0  0  0  0  0  0
    6.4242  -34.9890  -17.5526 O   0  0  0  0  0  0  0  0  0  0  0  0
    4.3170  -32.1910  -14.1981 O   0  0  0  0  0  0  0  0  0  0  0  0
    8.3496  -36.1643  -16.7016 C   0  0  0  0  0  0  0  0  0  0  0  0
    3.0806  -33.9984  -13.1908 C   0  0  0  0  0  0  0  0  0  0  0  0
    9.7117  -35.4872  -16.7327 C   0  0  2  0  0  0  0  0  0  0  0  0
    1.5873  -34.1201  -13.4587 C   0  0  2  0  0  0  0  0  0  0  0  0
   10.8336  -35.4231  -11.6028 N   0  0  0  0  0  0  0  0  0  0  0  0
    9.9100  -34.7337  -12.2978 C   0  0  0  0  0  0  0  0  0  0  0  0
    9.7323  -34.8518  -13.6265 N   0  0  0  0  0  0  0  0  0  0  0  0
   10.4969  -35.6978  -14.3577 C   0  0  0  0  0  0  0  0  0  0  0  0
   11.5297  -36.4880  -13.6695 C   0  0  0  0  0  0  0  0  0  0  0  0
   11.6653  -36.3023  -12.2052 C   0  0  0  0  0  0  0  0  0  0  0  0
   12.5906  -36.9911  -11.4945 N   0  0  0  0  0  0  0  0  0  0  0  0
   12.1346  -37.2339  -14.6129 N   0  0  0  0  0  0  0  0  0  0  0  0
   11.5425  -36.9475  -15.8006 C   0  0  0  0  0  0  0  0  0  0  0  0
   10.5662  -36.0321  -15.6486 N   0  0  0  0  0  0  0  0  0  0  0  0
    1.7262  -38.9239  -15.5743 N   0  0  0  0  0  0  0  0  0  0  0  0
    2.2660  -37.7695  -16.0070 C   0  0  0  0  0  0  0  0  0  0  0  0
    2.1488  -36.5988  -15.3548 N   0  0  0  0  0  0  0  0  0  0  0  0
    1.4595  -36.5185  -14.1910 C   0  0  0  0  0  0  0  0  0  0  0  0
    0.8397  -37.7391  -13.6524 C   0  0  0  0  0  0  0  0  0  0  0  0
    1.0138  -38.9893  -14.4289 C   0  0  0  0  0  0  0  0  0  0  0  0
    0.4757  -40.1585  -14.0032 N   0  0  0  0  0  0  0  0  0  0  0  0
    0.2277  -37.3852  -12.5065 N   0  0  0  0  0  0  0  0  0  0  0  0
    0.4367  -36.0554  -12.3276 C   0  0  0  0  0  0  0  0  0  0  0  0
    1.1702  -35.5391  -13.3309 N   0  0  0  0  0  0  0  0  0  0  0  0
  1  3  1  6  0  0  0
  1  5  2  0  0  0  0
  1  9  1  0  0  0  0
  1 18  1  0  0  0  0
  2  4  1  1  0  0  0
  2  6  2  0  0  0  0
  2 10  1  0  0  0  0
  2 17  1  0  0  0  0
  7  9  1  0  0  0  0
  8 10  1  0  0  0  0
 11  7  1  1  0  0  0
 11 13  1  0  0  0  0
 11 15  1  0  0  0  0
 12  8  1  6  0  0  0
 12 14  1  0  0  0  0
 12 16  1  0  0  0  0
 13 21  1  0  0  0  0
 14 22  1  0  0  0  0
 15 17  1  6  0  0  0
 15 19  1  0  0  0  0
 16 18  1  1  0  0  0
 16 20  1  0  0  0  0
 19 21  1  0  0  0  0
 20 22  1  0  0  0  0
 21 32  1  1  0  0  0
 22 42  1  6  0  0  0
 23 24  2  0  0  0  0
 23 28  1  0  0  0  0
 24 25  1  0  0  0  0
 25 26  2  0  0  0  0
 26 27  1  0  0  0  0
 26 32  1  0  0  0  0
 27 28  2  0  0  0  0
 27 30  1  0  0  0  0
 28 29  1  0  0  0  0
 30 31  2  0  0  0  0
 31 32  1  0  0  0  0
 33 34  2  0  0  0  0
 33 38  1  0  0  0  0
 34 35  1  0  0  0  0
 35 36  2  0  0  0  0
 36 37  1  0  0  0  0
 36 42  1  0  0  0  0
 37 38  2  0  0  0  0
 37 40  1  0  0  0  0
 38 39  1  0  0  0  0
 40 41  2  0  0  0  0
 41 42  1  0  0  0  0
M  CHG  2   3  -1   4  -1
M  END
>  <CHROM.1>
39.92970739,46.57510746,5.72842979,-35.17414165,-14.81119920,0.08794940,-0.02627254
0.12073556

>  <Name>
ligand

>  <RI>
0

>  <Rbt.Current_Directory>
/home/itssahil/PROJECTS/Mol_Feturizer/New_Systems/rnas/4QLN

>  <Rbt.Executable>
rbdock ($Id: //depot/dev/client3/rdock/2013.1/src/exe/rbdock.cxx#4 $)

>  <Rbt.Library>
libRbt.so (2013.1, Build901 2013/11/27)

>  <Rbt.Parameter_File>
/export/apps/rDock/src/rDock_2013.1_src/data/scripts/dock_solv.prm

>  <Rbt.Receptor>
prm/pocket_docking_5.prm

>  <SCORE>
-9.27711

>  <SCORE.INTER>
-8.87075

>  <SCORE.INTER.CONST>
1

>  <SCORE.INTER.POLAR>
0

>  <SCORE.INTER.ROT>
2

>  <SCORE.INTER.SOLV>
18.6143

>  <SCORE.INTER.VDW>
-17.0519

>  <SCORE.INTER.norm>
-0.211208

>  <SCORE.INTRA>
-0.484563

>  <SCORE.INTRA.DIHEDRAL>
-0.000564468

>  <SCORE.INTRA.DIHEDRAL.0>
2.39985

>  <SCORE.INTRA.POLAR>
0

>  <SCORE.INTRA.POLAR.0>
0

>  <SCORE.INTRA.REPUL>
0

>  <SCORE.INTRA.REPUL.0>
0

>  <SCORE.INTRA.SOLV>
1.10126

>  <SCORE.INTRA.SOLV.lig_0>
-110.958

>  <SCORE.INTRA.VDW>
-1.03491

>  <SCORE.INTRA.VDW.0>
-2.34644

>  <SCORE.INTRA.norm>
-0.0115372

>  <SCORE.RESTR>
0.0782058

>  <SCORE.RESTR.CAVITY>
0.0782058

>  <SCORE.RESTR.norm>
0.00186204

>  <SCORE.SYSTEM>
0

>  <SCORE.SYSTEM.CONST>
0

>  <SCORE.SYSTEM.DIHEDRAL>
0

>  <SCORE.SYSTEM.SOLV>
0

>  <SCORE.SYSTEM.norm>
0

>  <SCORE.heavy>
42

>  <SCORE.norm>
-0.220883

>  <RMSD>
6.039

$$$$
ligand
 OpenBabel11021811513D
libRbt.so/2013.1/901 2013/11/27
 42 48  0  0  0  0  0  0  0  0999 V2000
    7.8795  -30.9032  -12.8301 P   0  0  2  0  0  0  0  0  0  0  0  0
    6.7962  -33.4998  -17.0252 P   0  0  1  0  0  0  0  0  0  0  0  0
    8.3804  -29.4839  -12.9632 O   0  5  0  0  0  0  0  0  0  0  0  0
    6.8248  -34.5991  -15.9903 O   0  5  0  0  0  0  0  0  0  0  0  0
    8.0308  -31.6351  -11.5182 O   0  0  0  0  0  0  0  0  0  0  0  0
    6.2325  -33.7720  -18.3991 O   0  0  0  0  0  0  0  0  0  0  0  0
    9.8923  -31.5017  -14.4263 C   0  0  0  0  0  0  0  0  0  0  0  0
    4.6579  -32.3662  -15.9782 C   0  0  0  0  0  0  0  0  0  0  0  0
    8.5669  -31.7899  -13.9844 O   0  0  0  0  0  0  0  0  0  0  0  0
    6.0138  -32.2390  -16.3998 O   0  0  0  0  0  0  0  0  0  0  0  0
   10.0344  -31.8909  -15.8929 C   0  0  1  0  0  0  0  0  0  0  0  0
    4.5069  -31.8068  -14.5692 C   0  0  1  0  0  0  0  0  0  0  0  0
   11.4133  -32.1113  -16.2017 O   0  0  0  0  0  0  0  0  0  0  0  0
    3.3613  -32.3863  -13.9402 O   0  0  0  0  0  0  0  0  0  0  0  0
    9.2785  -33.1730  -16.1982 C   0  0  1  0  0  0  0  0  0  0  0  0
    5.7209  -32.1316  -13.7133 C   0  0  1  0  0  0  0  0  0  0  0  0
    8.2937  -32.9332  -17.1990 O   0  0  0  0  0  0  0  0  0  0  0  0
    6.3247  -30.9291  -13.2458 O   0  0  0  0  0  0  0  0  0  0  0  0
   10.3062  -34.1664  -16.7075 C   0  0  0  0  0  0  0  0  0  0  0  0
    5.2135  -32.9487  -12.5409 C   0  0  0  0  0  0  0  0  0  0  0  0
   11.6417  -33.4379  -16.6848 C   0  0  2  0  0  0  0  0  0  0  0  0
    3.7104  -33.0807  -12.7401 C   0  0  2  0  0  0  0  0  0  0  0  0
   13.0464  -34.3772  -11.7126 N   0  0  0  0  0  0  0  0  0  0  0  0
   12.0522  -33.6148  -12.2042 C   0  0  0  0  0  0  0  0  0  0  0  0
   11.8060  -33.4638  -13.5186 N   0  0  0  0  0  0  0  0  0  0  0  0
   12.5690  -34.0913  -14.4454 C   0  0  0  0  0  0  0  0  0  0  0  0
   13.6767  -34.9440  -13.9865 C   0  0  0  0  0  0  0  0  0  0  0  0
   13.8852  -35.0599  -12.5236 C   0  0  0  0  0  0  0  0  0  0  0  0
   14.8820  -35.8248  -12.0166 N   0  0  0  0  0  0  0  0  0  0  0  0
   14.2635  -35.4392  -15.0923 N   0  0  0  0  0  0  0  0  0  0  0  0
   13.5920  -34.9477  -16.1650 C   0  0  0  0  0  0  0  0  0  0  0  0
   12.5818  -34.1444  -15.7797 N   0  0  0  0  0  0  0  0  0  0  0  0
    2.1845  -36.9317  -15.9671 N   0  0  0  0  0  0  0  0  0  0  0  0
    2.4426  -35.6360  -16.2238 C   0  0  0  0  0  0  0  0  0  0  0  0
    2.8301  -34.7513  -15.2874 N   0  0  0  0  0  0  0  0  0  0  0  0
    2.9861  -35.1308  -13.9961 C   0  0  0  0  0  0  0  0  0  0  0  0
    2.7229  -36.5326  -13.6359 C   0  0  0  0  0  0  0  0  0  0  0  0
    2.3000  -37.4459  -14.7238 C   0  0  0  0  0  0  0  0  0  0  0  0
    2.0379  -38.7532  -14.4781 N   0  0  0  0  0  0  0  0  0  0  0  0
    2.9505  -36.6382  -12.3131 N   0  0  0  0  0  0  0  0  0  0  0  0
    3.3258  -35.4123  -11.8658 C   0  0  0  0  0  0  0  0  0  0  0  0
    3.3468  -34.5144  -12.8680 N   0  0  0  0  0  0  0  0  0  0  0  0
  1  3  1  1  0  0  0
  1  5  2  0  0  0  0
  1  9  1  0  0  0  0
  1 18  1  0  0  0  0
  2  4  1  1  0  0  0
  2  6  2  0  0  0  0
  2 10  1  0  0  0  0
  2 17  1  0  0  0  0
  7  9  1  0  0  0  0
  8 10  1  0  0  0  0
 11  7  1  1  0  0  0
 11 13  1  0  0  0  0
 11 15  1  0  0  0  0
 12  8  1  6  0  0  0
 12 14  1  0  0  0  0
 12 16  1  0  0  0  0
 13 21  1  0  0  0  0
 14 22  1  0  0  0  0
 15 17  1  6  0  0  0
 15 19  1  0  0  0  0
 16 18  1  1  0  0  0
 16 20  1  0  0  0  0
 19 21  1  0  0  0  0
 20 22  1  0  0  0  0
 21 32  1  1  0  0  0
 22 42  1  6  0  0  0
 23 24  2  0  0  0  0
 23 28  1  0  0  0  0
 24 25  1  0  0  0  0
 25 26  2  0  0  0  0
 26 27  1  0  0  0  0
 26 32  1  0  0  0  0
 27 28  2  0  0  0  0
 27 30  1  0  0  0  0
 28 29  1  0  0  0  0
 30 31  2  0  0  0  0
 31 32  1  0  0  0  0
 33 34  2  0  0  0  0
 33 38  1  0  0  0  0
 34 35  1  0  0  0  0
 35 36  2  0  0  0  0
 36 37  1  0  0  0  0
 36 42  1  0  0  0  0
 37 38  2  0  0  0  0
 37 40  1  0  0  0  0
 38 39  1  0  0  0  0
 40 41  2  0  0  0  0
 41 42  1  0  0  0  0
M  CHG  2   3  -1   4  -1
M  END
>  <CHROM.1>
41.44363523,11.67555963,7.64333015,-33.64249091,-14.52789322,0.11835893,0.03476402
0.40925088

>  <Name>
ligand

>  <RI>
0

>  <Rbt.Current_Directory>
/home/itssahil/PROJECTS/Mol_Feturizer/New_Systems/rnas/4QLN

>  <Rbt.Executable>
rbdock ($Id: //depot/dev/client3/rdock/2013.1/src/exe/rbdock.cxx#4 $)

>  <Rbt.Library>
libRbt.so (2013.1, Build901 2013/11/27)

>  <Rbt.Parameter_File>
/export/apps/rDock/src/rDock_2013.1_src/data/scripts/dock_solv.prm

>  <Rbt.Receptor>
prm/pocket_docking_8.prm

>  <SCORE>
-13.7647

>  <SCORE.INTER>
-13.4294

>  <SCORE.INTER.CONST>
1

>  <SCORE.INTER.POLAR>
0

>  <SCORE.INTER.ROT>
2

>  <SCORE.INTER.SOLV>
21.8926

>  <SCORE.INTER.VDW>
-21.1838

>  <SCORE.INTER.norm>
-0.319748

>  <SCORE.INTRA>
-0.335277

>  <SCORE.INTRA.DIHEDRAL>
-0.000498167

>  <SCORE.INTRA.DIHEDRAL.0>
2.39985

>  <SCORE.INTRA.POLAR>
0

>  <SCORE.INTRA.POLAR.0>
0

>  <SCORE.INTRA.REPUL>
0

>  <SCORE.INTRA.REPUL.0>
0

>  <SCORE.INTRA.SOLV>
0.0212805

>  <SCORE.INTRA.SOLV.lig_0>
-110.958

>  <SCORE.INTRA.VDW>
-0.345668

>  <SCORE.INTRA.VDW.0>
-2.34644

>  <SCORE.INTRA.norm>
-0.00798278

>  <SCORE.RESTR>
0

>  <SCORE.RESTR.CAVITY>
0

>  <SCORE.RESTR.norm>
0

>  <SCORE.SYSTEM>
0

>  <SCORE.SYSTEM.CONST>
0

>  <SCORE.SYSTEM.DIHEDRAL>
0

>  <SCORE.SYSTEM.SOLV>
0

>  <SCORE.SYSTEM.norm>
0

>  <SCORE.heavy>
42

>  <SCORE.norm>
-0.327731

>  <RMSD>
6.053

$$$$
ligand
 OpenBabel11021811513D
libRbt.so/2013.1/901 2013/11/27
 42 48  0  0  0  0  0  0  0  0999 V2000
    4.9974  -36.0536  -17.5518 P   0  0  2  0  0  0  0  0  0  0  0  0
    6.6738  -32.0962  -14.8978 P   0  0  1  0  0  0  0  0  0  0  0  0
    4.0042  -35.8137  -18.6649 O   0  5  0  0  0  0  0  0  0  0  0  0
    7.1185  -33.2497  -14.0306 O   0  5  0  0  0  0  0  0  0  0  0  0
    5.2122  -37.4513  -17.0226 O   0  0  0  0  0  0  0  0  0  0  0  0
    7.2052  -30.7075  -14.6361 O   0  0  0  0  0  0  0  0  0  0  0  0
    3.2418  -34.7863  -16.0455 C   0  0  0  0  0  0  0  0  0  0  0  0
    8.3136  -32.7442  -16.8586 C   0  0  0  0  0  0  0  0  0  0  0  0
    4.6070  -35.1006  -16.3147 O   0  0  0  0  0  0  0  0  0  0  0  0
    6.9803  -32.4724  -16.4331 O   0  0  0  0  0  0  0  0  0  0  0  0
    3.1546  -33.4027  -15.4126 C   0  0  1  0  0  0  0  0  0  0  0  0
    8.3429  -34.0499  -17.6431 C   0  0  1  0  0  0  0  0  0  0  0  0
    1.9347  -33.2859  -14.6752 O   0  0  0  0  0  0  0  0  0  0  0  0
    9.6602  -34.6041  -17.6083 O   0  0  0  0  0  0  0  0  0  0  0  0
    4.3051  -33.1642  -14.4493 C   0  0  1  0  0  0  0  0  0  0  0  0
    7.3919  -35.0744  -17.0451 C   0  0  1  0  0  0  0  0  0  0  0  0
    5.0648  -32.0336  -14.8657 O   0  0  0  0  0  0  0  0  0  0  0  0
    6.4225  -35.4644  -18.0133 O   0  0  0  0  0  0  0  0  0  0  0  0
    3.6807  -32.8997  -13.0918 C   0  0  0  0  0  0  0  0  0  0  0  0
    8.2399  -36.2675  -16.6486 C   0  0  0  0  0  0  0  0  0  0  0  0
    2.1760  -32.9927  -13.2964 C   0  0  2  0  0  0  0  0  0  0  0  0
    9.6703  -35.9103  -17.0270 C   0  0  2  0  0  0  0  0  0  0  0  0
    1.8671  -38.1715  -12.4822 N   0  0  0  0  0  0  0  0  0  0  0  0
    2.5194  -37.4803  -13.4350 C   0  0  0  0  0  0  0  0  0  0  0  0
    2.5100  -36.1375  -13.5233 N   0  0  0  0  0  0  0  0  0  0  0  0
    1.8226  -35.3869  -12.6294 C   0  0  0  0  0  0  0  0  0  0  0  0
    1.0832  -36.0697  -11.5562 C   0  0  0  0  0  0  0  0  0  0  0  0
    1.1411  -37.5505  -11.5257 C   0  0  0  0  0  0  0  0  0  0  0  0
    0.4895  -38.2574  -10.5711 N   0  0  0  0  0  0  0  0  0  0  0  0
    0.4983  -35.1064  -10.8199 N   0  0  0  0  0  0  0  0  0  0  0  0
    0.8326  -33.9119  -11.3719 C   0  0  0  0  0  0  0  0  0  0  0  0
    1.6222  -34.0789  -12.4503 N   0  0  0  0  0  0  0  0  0  0  0  0
   11.0903  -33.3261  -12.6822 N   0  0  0  0  0  0  0  0  0  0  0  0
   10.2059  -32.9922  -13.6402 C   0  0  0  0  0  0  0  0  0  0  0  0
    9.9388  -33.7607  -14.7115 N   0  0  0  0  0  0  0  0  0  0  0  0
   10.5661  -34.9488  -14.8874 C   0  0  0  0  0  0  0  0  0  0  0  0
   11.5477  -35.3841  -13.8819 C   0  0  0  0  0  0  0  0  0  0  0  0
   11.7865  -34.4823  -12.7303 C   0  0  0  0  0  0  0  0  0  0  0  0
   12.6742  -34.8077  -11.7586 N   0  0  0  0  0  0  0  0  0  0  0  0
   12.0133  -36.5789  -14.2922 N   0  0  0  0  0  0  0  0  0  0  0  0
   11.3857  -36.8815  -15.4578 C   0  0  0  0  0  0  0  0  0  0  0  0
   10.5239  -35.9107  -15.8124 N   0  0  0  0  0  0  0  0  0  0  0  0
  1  3  1  6  0  0  0
  1  5  2  0  0  0  0
  1  9  1  0  0  0  0
  1 18  1  0  0  0  0
  2  4  1  1  0  0  0
  2  6  2  0  0  0  0
  2 10  1  0  0  0  0
  2 17  1  0  0  0  0
  7  9  1  0  0  0  0
  8 10  1  0  0  0  0
 11  7  1  1  0  0  0
 11 13  1  0  0  0  0
 11 15  1  0  0  0  0
 12  8  1  1  0  0  0
 12 14  1  0  0  0  0
 12 16  1  0  0  0  0
 13 21  1  0  0  0  0
 14 22  1  0  0  0  0
 15 17  1  6  0  0  0
 15 19  1  0  0  0  0
 16 18  1  6  0  0  0
 16 20  1  0  0  0  0
 19 21  1  0  0  0  0
 20 22  1  0  0  0  0
 21 32  1  1  0  0  0
 22 42  1  1  0  0  0
 23 24  2  0  0  0  0
 23 28  1  0  0  0  0
 24 25  1  0  0  0  0
 25 26  2  0  0  0  0
 26 27  1  0  0  0  0
 26 32  1  0  0  0  0
 27 28  2  0  0  0  0
 27 30  1  0  0  0  0
 28 29  1  0  0  0  0
 30 31  2  0  0  0  0
 31 32  1  0  0  0  0
 33 34  2  0  0  0  0
 33 38  1  0  0  0  0
 34 35  1  0  0  0  0
 35 36  2  0  0  0  0
 36 37  1  0  0  0  0
 36 42  1  0  0  0  0
 37 38  2  0  0  0  0
 37 40  1  0  0  0  0
 38 39  1  0  0  0  0
 40 41  2  0  0  0  0
 41 42  1  0  0  0  0
M  CHG  2   3  -1   4  -1
M  END
>  <CHROM.1>
48.97096429,41.34876620,6.03450711,-34.70143601,-14.76171370,2.89976897,0.12634926
1.46774841

>  <Name>
ligand

>  <RI>
0

>  <Rbt.Current_Directory>
/home/itssahil/PROJECTS/Mol_Feturizer/New_Systems/rnas/4QLN

>  <Rbt.Executable>
rbdock ($Id: //depot/dev/client3/rdock/2013.1/src/exe/rbdock.cxx#4 $)

>  <Rbt.Library>
libRbt.so (2013.1, Build901 2013/11/27)

>  <Rbt.Parameter_File>
/export/apps/rDock/src/rDock_2013.1_src/data/scripts/dock_solv.prm

>  <Rbt.Receptor>
prm/pocket_docking_6.prm

>  <SCORE>
-10.8973

>  <SCORE.INTER>
-10.2194

>  <SCORE.INTER.CONST>
1

>  <SCORE.INTER.POLAR>
0

>  <SCORE.INTER.ROT>
2

>  <SCORE.INTER.SOLV>
20.5201

>  <SCORE.INTER.VDW>
-18.5863

>  <SCORE.INTER.norm>
-0.243318

>  <SCORE.INTRA>
-0.677891

>  <SCORE.INTRA.DIHEDRAL>
-0.000617217

>  <SCORE.INTRA.DIHEDRAL.0>
2.39985

>  <SCORE.INTRA.POLAR>
0

>  <SCORE.INTRA.POLAR.0>
0

>  <SCORE.INTRA.REPUL>
0

>  <SCORE.INTRA.REPUL.0>
0

>  <SCORE.INTRA.SOLV>
0.927749

>  <SCORE.INTRA.SOLV.lig_0>
-110.958

>  <SCORE.INTRA.VDW>
-1.14146

>  <SCORE.INTRA.VDW.0>
-2.34644

>  <SCORE.INTRA.norm>
-0.0161403

>  <SCORE.RESTR>
0

>  <SCORE.RESTR.CAVITY>
0

>  <SCORE.RESTR.norm>
0

>  <SCORE.SYSTEM>
0

>  <SCORE.SYSTEM.CONST>
0

>  <SCORE.SYSTEM.DIHEDRAL>
0

>  <SCORE.SYSTEM.SOLV>
0

>  <SCORE.SYSTEM.norm>
0

>  <SCORE.heavy>
42

>  <SCORE.norm>
-0.259458

>  <RMSD>
6.165

$$$$
ligand
 OpenBabel11021811513D
libRbt.so/2013.1/901 2013/11/27
 42 48  0  0  0  0  0  0  0  0999 V2000
    2.2517  -34.9470  -13.1327 P   0  0  2  0  0  0  0  0  0  0  0  0
    4.3064  -36.8169  -17.3512 P   0  0  1  0  0  0  0  0  0  0  0  0
    1.0754  -34.0064  -13.2527 O   0  5  0  0  0  0  0  0  0  0  0  0
    5.3638  -37.1539  -16.3271 O   0  5  0  0  0  0  0  0  0  0  0  0
    3.0052  -35.0477  -11.8281 O   0  0  0  0  0  0  0  0  0  0  0  0
    4.3648  -37.4362  -18.7270 O   0  0  0  0  0  0  0  0  0  0  0  0
    3.4644  -33.2405  -14.7372 C   0  0  0  0  0  0  0  0  0  0  0  0
    2.5420  -38.4646  -16.2905 C   0  0  0  0  0  0  0  0  0  0  0  0
    3.3042  -34.5878  -14.2964 O   0  0  0  0  0  0  0  0  0  0  0  0
    2.8644  -37.1416  -16.7127 O   0  0  0  0  0  0  0  0  0  0  0  0
    3.8647  -33.2317  -16.2077 C   0  0  1  0  0  0  0  0  0  0  0  0
    1.9775  -38.4256  -14.8760 C   0  0  1  0  0  0  0  0  0  0  0  0
    4.5240  -32.0017  -16.5205 O   0  0  0  0  0  0  0  0  0  0  0  0
    2.1534  -39.6994  -14.2511 O   0  0  0  0  0  0  0  0  0  0  0  0
    4.8234  -34.3670  -16.5244 C   0  0  1  0  0  0  0  0  0  0  0  0
    2.6922  -37.3880  -14.0249 C   0  0  1  0  0  0  0  0  0  0  0  0
    4.2631  -35.2160  -17.5216 O   0  0  0  0  0  0  0  0  0  0  0  0
    1.7602  -36.4228  -13.5466 O   0  0  0  0  0  0  0  0  0  0  0  0
    6.0949  -33.7228  -17.0446 C   0  0  0  0  0  0  0  0  0  0  0  0
    3.3078  -38.1384  -12.8597 C   0  0  0  0  0  0  0  0  0  0  0  0
    5.8471  -32.2219  -17.0167 C   0  0  2  0  0  0  0  0  0  0  0  0
    2.9354  -39.6008  -13.0583 C   0  0  2  0  0  0  0  0  0  0  0  0
    7.0498  -30.8842  -12.0829 N   0  0  0  0  0  0  0  0  0  0  0  0
    5.9730  -31.5284  -12.5693 C   0  0  0  0  0  0  0  0  0  0  0  0
    5.7946  -31.8069  -13.8738 N   0  0  0  0  0  0  0  0  0  0  0  0
    6.7185  -31.4430  -14.7951 C   0  0  0  0  0  0  0  0  0  0  0  0
    7.9255  -30.7344  -14.3413 C   0  0  0  0  0  0  0  0  0  0  0  0
    8.0498  -30.4632  -12.8894 C   0  0  0  0  0  0  0  0  0  0  0  0
    9.1294  -29.8164  -12.3876 N   0  0  0  0  0  0  0  0  0  0  0  0
    8.6653  -30.4938  -15.4399 N   0  0  0  0  0  0  0  0  0  0  0  0
    7.9927  -31.0026  -16.5038 C   0  0  0  0  0  0  0  0  0  0  0  0
    6.8324  -31.5687  -16.1196 N   0  0  0  0  0  0  0  0  0  0  0  0
    8.0278  -39.6382  -14.3386 N   0  0  0  0  0  0  0  0  0  0  0  0
    7.1436  -38.6236  -14.3269 C   0  0  0  0  0  0  0  0  0  0  0  0
    5.8533  -38.7606  -13.9720 N   0  0  0  0  0  0  0  0  0  0  0  0
    5.3610  -39.9656  -13.5955 C   0  0  0  0  0  0  0  0  0  0  0  0
    6.2666  -41.1248  -13.5821 C   0  0  0  0  0  0  0  0  0  0  0  0
    7.6735  -40.8928  -13.9862 C   0  0  0  0  0  0  0  0  0  0  0  0
    8.5737  -41.9064  -14.0013 N   0  0  0  0  0  0  0  0  0  0  0  0
    5.5345  -42.1791  -13.1756 N   0  0  0  0  0  0  0  0  0  0  0  0
    4.2716  -41.7342  -12.9493 C   0  0  0  0  0  0  0  0  0  0  0  0
    4.1682  -40.4160  -13.1995 N   0  0  0  0  0  0  0  0  0  0  0  0
  1  3  1  1  0  0  0
  1  5  2  0  0  0  0
  1  9  1  0  0  0  0
  1 18  1  0  0  0  0
  2  4  1  1  0  0  0
  2  6  2  0  0  0  0
  2 10  1  0  0  0  0
  2 17  1  0  0  0  0
  7  9  1  0  0  0  0
  8 10  1  0  0  0  0
 11  7  1  1  0  0  0
 11 13  1  0  0  0  0
 11 15  1  0  0  0  0
 12  8  1  6  0  0  0
 12 14  1  0  0  0  0
 12 16  1  0  0  0  0
 13 21  1  0  0  0  0
 14 22  1  0  0  0  0
 15 17  1  6  0  0  0
 15 19  1  0  0  0  0
 16 18  1  1  0  0  0
 16 20  1  0  0  0  0
 19 21  1  0  0  0  0
 20 22  1  0  0  0  0
 21 32  1  1  0  0  0
 22 42  1  6  0  0  0
 23 24  2  0  0  0  0
 23 28  1  0  0  0  0
 24 25  1  0  0  0  0
 25 26  2  0  0  0  0
 26 27  1  0  0  0  0
 26 32  1  0  0  0  0
 27 28  2  0  0  0  0
 27 30  1  0  0  0  0
 28 29  1  0  0  0  0
 30 31  2  0  0  0  0
 31 32  1  0  0  0  0
 33 34  2  0  0  0  0
 33 38  1  0  0  0  0
 34 35  1  0  0  0  0
 35 36  2  0  0  0  0
 36 37  1  0  0  0  0
 36 42  1  0  0  0  0
 37 38  2  0  0  0  0
 37 40  1  0  0  0  0
 38 39  1  0  0  0  0
 40 41  2  0  0  0  0
 41 42  1  0  0  0  0
M  CHG  2   3  -1   4  -1
M  END
>  <CHROM.1>
33.88009562,95.06331647,4.89156650,-35.82274748,-14.69592344,1.34665342,-0.08403117
-0.07827888

>  <Name>
ligand

>  <RI>
0

>  <Rbt.Current_Directory>
/home/itssahil/PROJECTS/Mol_Feturizer/New_Systems/rnas/4QLN

>  <Rbt.Executable>
rbdock ($Id: //depot/dev/client3/rdock/2013.1/src/exe/rbdock.cxx#4 $)

>  <Rbt.Library>
libRbt.so (2013.1, Build901 2013/11/27)

>  <Rbt.Parameter_File>
/export/apps/rDock/src/rDock_2013.1_src/data/scripts/dock_solv.prm

>  <Rbt.Receptor>
prm/pocket_docking_8.prm

>  <SCORE>
-16.0795

>  <SCORE.INTER>
-16.9366

>  <SCORE.INTER.CONST>
1

>  <SCORE.INTER.POLAR>
0

>  <SCORE.INTER.ROT>
2

>  <SCORE.INTER.SOLV>
24.5676

>  <SCORE.INTER.VDW>
-24.4136

>  <SCORE.INTER.norm>
-0.403254

>  <SCORE.INTRA>
0.857158

>  <SCORE.INTRA.DIHEDRAL>
0.000619497

>  <SCORE.INTRA.DIHEDRAL.0>
2.39985

>  <SCORE.INTRA.POLAR>
0

>  <SCORE.INTRA.POLAR.0>
0

>  <SCORE.INTRA.REPUL>
0

>  <SCORE.INTRA.REPUL.0>
0

>  <SCORE.INTRA.SOLV>
0.589016

>  <SCORE.INTRA.SOLV.lig_0>
-110.958

>  <SCORE.INTRA.VDW>
0.56234

>  <SCORE.INTRA.VDW.0>
-2.34644

>  <SCORE.INTRA.norm>
0.0204085

>  <SCORE.RESTR>
0

>  <SCORE.RESTR.CAVITY>
0

>  <SCORE.RESTR.norm>
0

>  <SCORE.SYSTEM>
0

>  <SCORE.SYSTEM.CONST>
0

>  <SCORE.SYSTEM.DIHEDRAL>
0

>  <SCORE.SYSTEM.SOLV>
0

>  <SCORE.SYSTEM.norm>
0

>  <SCORE.heavy>
42

>  <SCORE.norm>
-0.382845

>  <RMSD>
6.220

$$$$
ligand
 OpenBabel11021811513D
libRbt.so/2013.1/901 2013/11/27
 42 48  0  0  0  0  0  0  0  0999 V2000
    6.4893  -31.8625  -12.6192 P   0  0  2  0  0  0  0  0  0  0  0  0
    4.0896  -34.4035  -16.2659 P   0  0  1  0  0  0  0  0  0  0  0  0
    6.7845  -30.3956  -12.8292 O   0  5  0  0  0  0  0  0  0  0  0  0
    4.6023  -35.5307  -15.4017 O   0  5  0  0  0  0  0  0  0  0  0  0
    7.1918  -32.6219  -11.5192 O   0  0  0  0  0  0  0  0  0  0  0  0
    3.0650  -34.6823  -17.3392 O   0  0  0  0  0  0  0  0  0  0  0  0
    7.7750  -32.1945  -14.8982 C   0  0  0  0  0  0  0  0  0  0  0  0
    2.4343  -33.5327  -14.4071 C   0  0  0  0  0  0  0  0  0  0  0  0
    6.7492  -32.6323  -14.0087 O   0  0  0  0  0  0  0  0  0  0  0  0
    3.5090  -33.2526  -15.3011 O   0  0  0  0  0  0  0  0  0  0  0  0
    7.3733  -32.5141  -16.3331 C   0  0  1  0  0  0  0  0  0  0  0  0
    2.7921  -33.0426  -13.0096 C   0  0  1  0  0  0  0  0  0  0  0  0
    8.5404  -32.5814  -17.1569 O   0  0  0  0  0  0  0  0  0  0  0  0
    2.0270  -33.7583  -12.0369 O   0  0  0  0  0  0  0  0  0  0  0  0
    6.6640  -33.8549  -16.4208 C   0  0  1  0  0  0  0  0  0  0  0  0
    4.2636  -33.2724  -12.7041 C   0  0  1  0  0  0  0  0  0  0  0  0
    5.3544  -33.6812  -16.9532 O   0  0  0  0  0  0  0  0  0  0  0  0
    4.9018  -32.0321  -12.4148 O   0  0  0  0  0  0  0  0  0  0  0  0
    7.4934  -34.7193  -17.3523 C   0  0  0  0  0  0  0  0  0  0  0  0
    4.3136  -34.1786  -11.4892 C   0  0  0  0  0  0  0  0  0  0  0  0
    8.6716  -33.8594  -17.7851 C   0  0  2  0  0  0  0  0  0  0  0  0
    2.8652  -34.4561  -11.1125 C   0  0  2  0  0  0  0  0  0  0  0  0
   11.6028  -35.4800  -13.7404 N   0  0  0  0  0  0  0  0  0  0  0  0
   10.3934  -34.8899  -13.7540 C   0  0  0  0  0  0  0  0  0  0  0  0
    9.7529  -34.5237  -14.8796 N   0  0  0  0  0  0  0  0  0  0  0  0
   10.3085  -34.7372  -16.0964 C   0  0  0  0  0  0  0  0  0  0  0  0
   11.6307  -35.3790  -16.1649 C   0  0  0  0  0  0  0  0  0  0  0  0
   12.2729  -35.7526  -14.8824 C   0  0  0  0  0  0  0  0  0  0  0  0
   13.4897  -36.3479  -14.8556 N   0  0  0  0  0  0  0  0  0  0  0  0
   11.9457  -35.4708  -17.4705 N   0  0  0  0  0  0  0  0  0  0  0  0
   10.9171  -34.9354  -18.1767 C   0  0  0  0  0  0  0  0  0  0  0  0
    9.9411  -34.4984  -17.3578 N   0  0  0  0  0  0  0  0  0  0  0  0
    2.0510  -38.5763  -14.2643 N   0  0  0  0  0  0  0  0  0  0  0  0
    2.2814  -37.2851  -14.5663 C   0  0  0  0  0  0  0  0  0  0  0  0
    2.4747  -36.3248  -13.6443 N   0  0  0  0  0  0  0  0  0  0  0  0
    2.4469  -36.6168  -12.3215 C   0  0  0  0  0  0  0  0  0  0  0  0
    2.2006  -38.0078  -11.9110 C   0  0  0  0  0  0  0  0  0  0  0  0
    1.9974  -39.0077  -12.9857 C   0  0  0  0  0  0  0  0  0  0  0  0
    1.7653  -40.3113  -12.6943 N   0  0  0  0  0  0  0  0  0  0  0  0
    2.2251  -38.0207  -10.5648 N   0  0  0  0  0  0  0  0  0  0  0  0
    2.4653  -36.7502  -10.1502 C   0  0  0  0  0  0  0  0  0  0  0  0
    2.5972  -35.9140  -11.1962 N   0  0  0  0  0  0  0  0  0  0  0  0
  1  3  1  6  0  0  0
  1  5  2  0  0  0  0
  1  9  1  0  0  0  0
  1 18  1  0  0  0  0
  2  4  1  1  0  0  0
  2  6  2  0  0  0  0
  2 10  1  0  0  0  0
  2 17  1  0  0  0  0
  7  9  1  0  0  0  0
  8 10  1  0  0  0  0
 11  7  1  1  0  0  0
 11 13  1  0  0  0  0
 11 15  1  0  0  0  0
 12  8  1  6  0  0  0
 12 14  1  0  0  0  0
 12 16  1  0  0  0  0
 13 21  1  0  0  0  0
 14 22  1  0  0  0  0
 15 17  1  6  0  0  0
 15 19  1  0  0  0  0
 16 18  1  1  0  0  0
 16 20  1  0  0  0  0
 19 21  1  0  0  0  0
 20 22  1  0  0  0  0
 21 32  1  1  0  0  0
 22 42  1  6  0  0  0
 23 24  2  0  0  0  0
 23 28  1  0  0  0  0
 24 25  1  0  0  0  0
 25 26  2  0  0  0  0
 26 27  1  0  0  0  0
 26 32  1  0  0  0  0
 27 28  2  0  0  0  0
 27 30  1  0  0  0  0
 28 29  1  0  0  0  0
 30 31  2  0  0  0  0
 31 32  1  0  0  0  0
 33 34  2  0  0  0  0
 33 38  1  0  0  0  0
 34 35  1  0  0  0  0
 35 36  2  0  0  0  0
 36 37  1  0  0  0  0
 36 42  1  0  0  0  0
 37 38  2  0  0  0  0
 37 40  1  0  0  0  0
 38 39  1  0  0  0  0
 40 41  2  0  0  0  0
 41 42  1  0  0  0  0
M  CHG  2   3  -1   4  -1
M  END
>  <CHROM.1>
56.05537977,43.82397859,5.93645654,-34.62296446,-14.32803692,0.11274896,0.43531789
0.22129134

>  <Name>
ligand

>  <RI>
0

>  <Rbt.Current_Directory>
/home/itssahil/PROJECTS/Mol_Feturizer/New_Systems/rnas/4QLN

>  <Rbt.Executable>
rbdock ($Id: //depot/dev/client3/rdock/2013.1/src/exe/rbdock.cxx#4 $)

>  <Rbt.Library>
libRbt.so (2013.1, Build901 2013/11/27)

>  <Rbt.Parameter_File>
/export/apps/rDock/src/rDock_2013.1_src/data/scripts/dock_solv.prm

>  <Rbt.Receptor>
prm/pocket_docking_6.prm

>  <SCORE>
-10.6404

>  <SCORE.INTER>
-9.9325

>  <SCORE.INTER.CONST>
1

>  <SCORE.INTER.POLAR>
0

>  <SCORE.INTER.ROT>
2

>  <SCORE.INTER.SOLV>
17.2305

>  <SCORE.INTER.VDW>
-17.2985

>  <SCORE.INTER.norm>
-0.236488

>  <SCORE.INTRA>
-0.707935

>  <SCORE.INTRA.DIHEDRAL>
-0.000468427

>  <SCORE.INTRA.DIHEDRAL.0>
2.39985

>  <SCORE.INTRA.POLAR>
0

>  <SCORE.INTRA.POLAR.0>
0

>  <SCORE.INTRA.REPUL>
0

>  <SCORE.INTRA.REPUL.0>
0

>  <SCORE.INTRA.SOLV>
1.00315

>  <SCORE.INTRA.SOLV.lig_0>
-110.958

>  <SCORE.INTRA.VDW>
-1.20928

>  <SCORE.INTRA.VDW.0>
-2.34644

>  <SCORE.INTRA.norm>
-0.0168556

>  <SCORE.RESTR>
0

>  <SCORE.RESTR.CAVITY>
0

>  <SCORE.RESTR.norm>
0

>  <SCORE.SYSTEM>
0

>  <SCORE.SYSTEM.CONST>
0

>  <SCORE.SYSTEM.DIHEDRAL>
0

>  <SCORE.SYSTEM.SOLV>
0

>  <SCORE.SYSTEM.norm>
0

>  <SCORE.heavy>
42

>  <SCORE.norm>
-0.253344

>  <RMSD>
6.261

$$$$
ligand
 OpenBabel11021811513D
libRbt.so/2013.1/901 2013/11/27
 42 48  0  0  0  0  0  0  0  0999 V2000
    7.1559  -31.5362  -14.9305 P   0  0  2  0  0  0  0  0  0  0  0  0
    5.4778  -35.8362  -16.9818 P   0  0  1  0  0  0  0  0  0  0  0  0
    7.6203  -30.4274  -15.8458 O   0  5  0  0  0  0  0  0  0  0  0  0
    5.6693  -36.2454  -15.5409 O   0  5  0  0  0  0  0  0  0  0  0  0
    7.5073  -31.4976  -13.4625 O   0  0  0  0  0  0  0  0  0  0  0  0
    4.7171  -36.7356  -17.9263 O   0  0  0  0  0  0  0  0  0  0  0  0
    8.9120  -33.0118  -16.2326 C   0  0  0  0  0  0  0  0  0  0  0  0
    3.5113  -34.1769  -16.4046 C   0  0  0  0  0  0  0  0  0  0  0  0
    7.6698  -32.9366  -15.5352 O   0  0  0  0  0  0  0  0  0  0  0  0
    4.7880  -34.3815  -17.0053 O   0  0  0  0  0  0  0  0  0  0  0  0
    8.8363  -34.1090  -17.2877 C   0  0  1  0  0  0  0  0  0  0  0  0
    3.5683  -32.9633  -15.4855 C   0  0  1  0  0  0  0  0  0  0  0  0
   10.1552  -34.5543  -17.6156 O   0  0  0  0  0  0  0  0  0  0  0  0
    2.5342  -33.0535  -14.5025 O   0  0  0  0  0  0  0  0  0  0  0  0
    8.0532  -35.3081  -16.7802 C   0  0  1  0  0  0  0  0  0  0  0  0
    4.8991  -32.8869  -14.7540 C   0  0  1  0  0  0  0  0  0  0  0  0
    6.9281  -35.5480  -17.6200 O   0  0  0  0  0  0  0  0  0  0  0  0
    5.5567  -31.6617  -15.0632 O   0  0  0  0  0  0  0  0  0  0  0  0
    9.0009  -36.4921  -16.8297 C   0  0  0  0  0  0  0  0  0  0  0  0
    4.5791  -32.9459  -13.2729 C   0  0  0  0  0  0  0  0  0  0  0  0
   10.3191  -35.9527  -17.3648 C   0  0  2  0  0  0  0  0  0  0  0  0
    3.0640  -33.0544  -13.1746 C   0  0  2  0  0  0  0  0  0  0  0  0
   12.1153  -34.7235  -12.5856 N   0  0  0  0  0  0  0  0  0  0  0  0
   11.0087  -34.3091  -13.2298 C   0  0  0  0  0  0  0  0  0  0  0  0
   10.6697  -34.7118  -14.4683 N   0  0  0  0  0  0  0  0  0  0  0  0
   11.4480  -35.5835  -15.1533 C   0  0  0  0  0  0  0  0  0  0  0  0
   12.6762  -36.0835  -14.5157 C   0  0  0  0  0  0  0  0  0  0  0  0
   12.9822  -35.5933  -13.1508 C   0  0  0  0  0  0  0  0  0  0  0  0
   14.0925  -36.0038  -12.4917 N   0  0  0  0  0  0  0  0  0  0  0  0
   13.2534  -36.9206  -15.3980 N   0  0  0  0  0  0  0  0  0  0  0  0
   12.4657  -36.9544  -16.5032 C   0  0  0  0  0  0  0  0  0  0  0  0
   11.3894  -36.1577  -16.3575 N   0  0  0  0  0  0  0  0  0  0  0  0
    1.5178  -38.0404  -13.7411 N   0  0  0  0  0  0  0  0  0  0  0  0
    1.7781  -37.1019  -14.6700 C   0  0  0  0  0  0  0  0  0  0  0  0
    2.1710  -35.8491  -14.3772 N   0  0  0  0  0  0  0  0  0  0  0  0
    2.3305  -35.4544  -13.0909 C   0  0  0  0  0  0  0  0  0  0  0  0
    2.0651  -36.4242  -12.0171 C   0  0  0  0  0  0  0  0  0  0  0  0
    1.6363  -37.7843  -12.4204 C   0  0  0  0  0  0  0  0  0  0  0  0
    1.3719  -38.7384  -11.4943 N   0  0  0  0  0  0  0  0  0  0  0  0
    2.2970  -35.7839  -10.8556 N   0  0  0  0  0  0  0  0  0  0  0  0
    2.6768  -34.5159  -11.1590 C   0  0  0  0  0  0  0  0  0  0  0  0
    2.6966  -34.3195  -12.4902 N   0  0  0  0  0  0  0  0  0  0  0  0
  1  3  1  6  0  0  0
  1  5  2  0  0  0  0
  1  9  1  0  0  0  0
  1 18  1  0  0  0  0
  2  4  1  1  0  0  0
  2  6  2  0  0  0  0
  2 10  1  0  0  0  0
  2 17  1  0  0  0  0
  7  9  1  0  0  0  0
  8 10  1  0  0  0  0
 11  7  1  1  0  0  0
 11 13  1  0  0  0  0
 11 15  1  0  0  0  0
 12  8  1  6  0  0  0
 12 14  1  0  0  0  0
 12 16  1  0  0  0  0
 13 21  1  0  0  0  0
 14 22  1  0  0  0  0
 15 17  1  6  0  0  0
 15 19  1  0  0  0  0
 16 18  1  1  0  0  0
 16 20  1  0  0  0  0
 19 21  1  0  0  0  0
 20 22  1  0  0  0  0
 21 32  1  1  0  0  0
 22 42  1  6  0  0  0
 23 24  2  0  0  0  0
 23 28  1  0  0  0  0
 24 25  1  0  0  0  0
 25 26  2  0  0  0  0
 26 27  1  0  0  0  0
 26 32  1  0  0  0  0
 27 28  2  0  0  0  0
 27 30  1  0  0  0  0
 28 29  1  0  0  0  0
 30 31  2  0  0  0  0
 31 32  1  0  0  0  0
 33 34  2  0  0  0  0
 33 38  1  0  0  0  0
 34 35  1  0  0  0  0
 35 36  2  0  0  0  0
 36 37  1  0  0  0  0
 36 42  1  0  0  0  0
 37 38  2  0  0  0  0
 37 40  1  0  0  0  0
 38 39  1  0  0  0  0
 40 41  2  0  0  0  0
 41 42  1  0  0  0  0
M  CHG  2   3  -1   4  -1
M  END
>  <CHROM.1>
53.53956732,20.36704623,6.69569820,-34.78055936,-14.89118103,0.07616569,0.16953551
-0.28828291

>  <Name>
ligand

>  <RI>
0

>  <Rbt.Current_Directory>
/home/itssahil/PROJECTS/Mol_Feturizer/New_Systems/rnas/4QLN

>  <Rbt.Executable>
rbdock ($Id: //depot/dev/client3/rdock/2013.1/src/exe/rbdock.cxx#4 $)

>  <Rbt.Library>
libRbt.so (2013.1, Build901 2013/11/27)

>  <Rbt.Parameter_File>
/export/apps/rDock/src/rDock_2013.1_src/data/scripts/dock_solv.prm

>  <Rbt.Receptor>
prm/pocket_docking_6.prm

>  <SCORE>
-10.1325

>  <SCORE.INTER>
-9.47131

>  <SCORE.INTER.CONST>
1

>  <SCORE.INTER.POLAR>
0

>  <SCORE.INTER.ROT>
2

>  <SCORE.INTER.SOLV>
13.5143

>  <SCORE.INTER.VDW>
-15.7523

>  <SCORE.INTER.norm>
-0.225507

>  <SCORE.INTRA>
-0.664452

>  <SCORE.INTRA.DIHEDRAL>
-0.000596011

>  <SCORE.INTRA.DIHEDRAL.0>
2.39985

>  <SCORE.INTRA.POLAR>
0

>  <SCORE.INTRA.POLAR.0>
0

>  <SCORE.INTRA.REPUL>
0

>  <SCORE.INTRA.REPUL.0>
0

>  <SCORE.INTRA.SOLV>
0.116312

>  <SCORE.INTRA.SOLV.lig_0>
-110.958

>  <SCORE.INTRA.VDW>
-0.72231

>  <SCORE.INTRA.VDW.0>
-2.34644

>  <SCORE.INTRA.norm>
-0.0158203

>  <SCORE.RESTR>
0.00329172

>  <SCORE.RESTR.CAVITY>
0.00329172

>  <SCORE.RESTR.norm>
7.83742e-05

>  <SCORE.SYSTEM>
0

>  <SCORE.SYSTEM.CONST>
0

>  <SCORE.SYSTEM.DIHEDRAL>
0

>  <SCORE.SYSTEM.SOLV>
0

>  <SCORE.SYSTEM.norm>
0

>  <SCORE.heavy>
42

>  <SCORE.norm>
-0.241249

>  <RMSD>
6.282

$$$$
ligand
 OpenBabel11021811513D
libRbt.so/2013.1/901 2013/11/27
 42 48  0  0  0  0  0  0  0  0999 V2000
    3.5453  -34.0535  -16.2839 P   0  0  2  0  0  0  0  0  0  0  0  0
    6.5063  -32.5405  -12.4815 P   0  0  1  0  0  0  0  0  0  0  0  0
    2.2450  -33.3235  -16.5269 O   0  5  0  0  0  0  0  0  0  0  0  0
    7.1091  -33.8843  -12.8154 O   0  5  0  0  0  0  0  0  0  0  0  0
    3.7845  -35.3994  -16.9253 O   0  0  0  0  0  0  0  0  0  0  0  0
    7.2463  -31.5865  -11.5751 O   0  0  0  0  0  0  0  0  0  0  0  0
    2.6189  -34.3806  -13.8361 C   0  0  0  0  0  0  0  0  0  0  0  0
    7.2266  -31.4784  -14.7851 C   0  0  0  0  0  0  0  0  0  0  0  0
    3.7455  -34.2099  -14.6944 O   0  0  0  0  0  0  0  0  0  0  0  0
    6.1824  -31.7764  -13.8613 O   0  0  0  0  0  0  0  0  0  0  0  0
    2.9240  -33.7748  -12.4713 C   0  0  1  0  0  0  0  0  0  0  0  0
    6.8209  -31.9381  -16.1798 C   0  0  1  0  0  0  0  0  0  0  0  0
    2.0822  -34.3706  -11.4804 O   0  0  0  0  0  0  0  0  0  0  0  0
    7.9887  -32.1504  -16.9766 O   0  0  0  0  0  0  0  0  0  0  0  0
    4.3671  -34.0255  -12.0676 C   0  0  1  0  0  0  0  0  0  0  0  0
    6.0503  -33.2477  -16.1269 C   0  0  1  0  0  0  0  0  0  0  0  0
    5.0396  -32.7866  -11.8632 O   0  0  0  0  0  0  0  0  0  0  0  0
    4.7558  -33.0760  -16.6962 O   0  0  0  0  0  0  0  0  0  0  0  0
    4.3197  -34.8115  -10.7705 C   0  0  0  0  0  0  0  0  0  0  0  0
    6.8477  -34.2484  -16.9407 C   0  0  0  0  0  0  0  0  0  0  0  0
    2.8450  -35.0028  -10.4490 C   0  0  2  0  0  0  0  0  0  0  0  0
    8.0682  -33.4963  -17.4521 C   0  0  2  0  0  0  0  0  0  0  0  0
    2.5421  -39.4894  -13.1614 N   0  0  0  0  0  0  0  0  0  0  0  0
    2.9021  -38.2560  -13.5618 C   0  0  0  0  0  0  0  0  0  0  0  0
    2.9336  -37.1851  -12.7473 N   0  0  0  0  0  0  0  0  0  0  0  0
    2.5948  -37.2954  -11.4404 C   0  0  0  0  0  0  0  0  0  0  0  0
    2.1896  -38.6129  -10.9260 C   0  0  0  0  0  0  0  0  0  0  0  0
    2.1794  -39.7438  -11.8842 C   0  0  0  0  0  0  0  0  0  0  0  0
    1.8197  -40.9901  -11.4930 N   0  0  0  0  0  0  0  0  0  0  0  0
    1.9101  -38.4457   -9.6198 N   0  0  0  0  0  0  0  0  0  0  0  0
    2.1173  -37.1372   -9.3229 C   0  0  0  0  0  0  0  0  0  0  0  0
    2.5257  -36.4514  -10.4079 N   0  0  0  0  0  0  0  0  0  0  0  0
   12.2446  -33.0317  -14.3034 N   0  0  0  0  0  0  0  0  0  0  0  0
   11.2386  -32.1703  -14.5431 C   0  0  0  0  0  0  0  0  0  0  0  0
   10.2213  -32.4248  -15.3856 N   0  0  0  0  0  0  0  0  0  0  0  0
   10.1540  -33.5993  -16.0579 C   0  0  0  0  0  0  0  0  0  0  0  0
   11.2175  -34.5939  -15.8488 C   0  0  0  0  0  0  0  0  0  0  0  0
   12.3037  -34.2393  -14.9050 C   0  0  0  0  0  0  0  0  0  0  0  0
   13.3219  -35.0988  -14.6547 N   0  0  0  0  0  0  0  0  0  0  0  0
   10.9115  -35.6516  -16.6238 N   0  0  0  0  0  0  0  0  0  0  0  0
    9.7546  -35.3597  -17.2721 C   0  0  0  0  0  0  0  0  0  0  0  0
    9.3035  -34.1374  -16.9353 N   0  0  0  0  0  0  0  0  0  0  0  0
  1  3  1  6  0  0  0
  1  5  2  0  0  0  0
  1  9  1  0  0  0  0
  1 18  1  0  0  0  0
  2  4  1  6  0  0  0
  2  6  2  0  0  0  0
  2 10  1  0  0  0  0
  2 17  1  0  0  0  0
  7  9  1  0  0  0  0
  8 10  1  0  0  0  0
 11  7  1  6  0  0  0
 11 13  1  0  0  0  0
 11 15  1  0  0  0  0
 12  8  1  1  0  0  0
 12 14  1  0  0  0  0
 12 16  1  0  0  0  0
 13 21  1  0  0  0  0
 14 22  1  0  0  0  0
 15 17  1  1  0  0  0
 15 19  1  0  0  0  0
 16 18  1  6  0  0  0
 16 20  1  0  0  0  0
 19 21  1  0  0  0  0
 20 22  1  0  0  0  0
 21 32  1  6  0  0  0
 22 42  1  1  0  0  0
 23 24  2  0  0  0  0
 23 28  1  0  0  0  0
 24 25  1  0  0  0  0
 25 26  2  0  0  0  0
 26 27  1  0  0  0  0
 26 32  1  0  0  0  0
 27 28  2  0  0  0  0
 27 30  1  0  0  0  0
 28 29  1  0  0  0  0
 30 31  2  0  0  0  0
 31 32  1  0  0  0  0
 33 34  2  0  0  0  0
 33 38  1  0  0  0  0
 34 35  1  0  0  0  0
 35 36  2  0  0  0  0
 36 37  1  0  0  0  0
 36 42  1  0  0  0  0
 37 38  2  0  0  0  0
 37 40  1  0  0  0  0
 38 39  1  0  0  0  0
 40 41  2  0  0  0  0
 41 42  1  0  0  0  0
M  CHG  2   3  -1   4  -1
M  END
>  <CHROM.1>
54.15407558,5.96401952,5.78051787,-34.58850970,-13.96177824,2.51262736,0.01764852
2.30743632

>  <Name>
ligand

>  <RI>
0

>  <Rbt.Current_Directory>
/home/itssahil/PROJECTS/Mol_Feturizer/New_Systems/rnas/4QLN

>  <Rbt.Executable>
rbdock ($Id: //depot/dev/client3/rdock/2013.1/src/exe/rbdock.cxx#4 $)

>  <Rbt.Library>
libRbt.so (2013.1, Build901 2013/11/27)

>  <Rbt.Parameter_File>
/export/apps/rDock/src/rDock_2013.1_src/data/scripts/dock_solv.prm

>  <Rbt.Receptor>
prm/pocket_docking_8.prm

>  <SCORE>
-11.709

>  <SCORE.INTER>
-11.3397

>  <SCORE.INTER.CONST>
1

>  <SCORE.INTER.POLAR>
0

>  <SCORE.INTER.ROT>
2

>  <SCORE.INTER.SOLV>
16.5581

>  <SCORE.INTER.VDW>
-18.0125

>  <SCORE.INTER.norm>
-0.269993

>  <SCORE.INTRA>
-0.36928

>  <SCORE.INTRA.DIHEDRAL>
-0.000160202

>  <SCORE.INTRA.DIHEDRAL.0>
2.39985

>  <SCORE.INTRA.POLAR>
0

>  <SCORE.INTRA.POLAR.0>
0

>  <SCORE.INTRA.REPUL>
0

>  <SCORE.INTRA.REPUL.0>
0

>  <SCORE.INTRA.SOLV>
-0.00367001

>  <SCORE.INTRA.SOLV.lig_0>
-110.958

>  <SCORE.INTRA.VDW>
-0.367365

>  <SCORE.INTRA.VDW.0>
-2.34644

>  <SCORE.INTRA.norm>
-0.00879239

>  <SCORE.RESTR>
0

>  <SCORE.RESTR.CAVITY>
0

>  <SCORE.RESTR.norm>
0

>  <SCORE.SYSTEM>
0

>  <SCORE.SYSTEM.CONST>
0

>  <SCORE.SYSTEM.DIHEDRAL>
0

>  <SCORE.SYSTEM.SOLV>
0

>  <SCORE.SYSTEM.norm>
0

>  <SCORE.heavy>
42

>  <SCORE.norm>
-0.278785

>  <RMSD>
6.293

$$$$
ligand
 OpenBabel11021811513D
libRbt.so/2013.1/901 2013/11/27
 42 48  0  0  0  0  0  0  0  0999 V2000
    3.4445  -35.8312  -17.5469 P   0  0  2  0  0  0  0  0  0  0  0  0
    4.9574  -32.2999  -14.2674 P   0  0  1  0  0  0  0  0  0  0  0  0
    2.3685  -35.4800  -18.5477 O   0  5  0  0  0  0  0  0  0  0  0  0
    5.5462  -33.5491  -13.6566 O   0  5  0  0  0  0  0  0  0  0  0  0
    3.8034  -37.2776  -17.3037 O   0  0  0  0  0  0  0  0  0  0  0  0
    5.3904  -30.9415  -13.7706 O   0  0  0  0  0  0  0  0  0  0  0  0
    1.6889  -35.0302  -15.7489 C   0  0  0  0  0  0  0  0  0  0  0  0
    6.5199  -32.4211  -16.3882 C   0  0  0  0  0  0  0  0  0  0  0  0
    3.0557  -35.1639  -16.1347 O   0  0  0  0  0  0  0  0  0  0  0  0
    5.1978  -32.3551  -15.8586 O   0  0  0  0  0  0  0  0  0  0  0  0
    1.5298  -33.8019  -14.8609 C   0  0  1  0  0  0  0  0  0  0  0  0
    6.6057  -33.5503  -17.4072 C   0  0  1  0  0  0  0  0  0  0  0  0
    0.3523  -33.9351  -14.0601 O   0  0  0  0  0  0  0  0  0  0  0  0
    7.9630  -33.9796  -17.5385 O   0  0  0  0  0  0  0  0  0  0  0  0
    2.7146  -33.6430  -13.9231 C   0  0  1  0  0  0  0  0  0  0  0  0
    5.7791  -34.7501  -16.9726 C   0  0  1  0  0  0  0  0  0  0  0  0
    3.3536  -32.3905  -14.1509 O   0  0  0  0  0  0  0  0  0  0  0  0
    4.7863  -35.0398  -17.9522 O   0  0  0  0  0  0  0  0  0  0  0  0
    2.1560  -33.6929  -12.5132 C   0  0  0  0  0  0  0  0  0  0  0  0
    6.7433  -35.9140  -16.8493 C   0  0  0  0  0  0  0  0  0  0  0  0
    0.6538  -33.8824  -12.6631 C   0  0  2  0  0  0  0  0  0  0  0  0
    8.1141  -35.3645  -17.2174 C   0  0  2  0  0  0  0  0  0  0  0  0
   -0.5596  -38.9456  -13.3488 N   0  0  0  0  0  0  0  0  0  0  0  0
   -0.2018  -38.0096  -14.2473 C   0  0  0  0  0  0  0  0  0  0  0  0
    0.0838  -36.7346  -13.9251 N   0  0  0  0  0  0  0  0  0  0  0  0
    0.0253  -36.3126  -12.6393 C   0  0  0  0  0  0  0  0  0  0  0  0
   -0.3583  -37.2779  -11.5973 C   0  0  0  0  0  0  0  0  0  0  0  0
   -0.6585  -38.6633  -12.0305 C   0  0  0  0  0  0  0  0  0  0  0  0
   -1.0189  -39.6145  -11.1354 N   0  0  0  0  0  0  0  0  0  0  0  0
   -0.3383  -36.6097  -10.4288 N   0  0  0  0  0  0  0  0  0  0  0  0
    0.0256  -35.3296  -10.6974 C   0  0  0  0  0  0  0  0  0  0  0  0
    0.2426  -35.1524  -12.0149 N   0  0  0  0  0  0  0  0  0  0  0  0
    9.4854  -33.6136  -12.4607 N   0  0  0  0  0  0  0  0  0  0  0  0
    8.5064  -33.2022  -13.2876 C   0  0  0  0  0  0  0  0  0  0  0  0
    8.2666  -33.7498  -14.4928 N   0  0  0  0  0  0  0  0  0  0  0  0
    9.0221  -34.7768  -14.9514 C   0  0  0  0  0  0  0  0  0  0  0  0
   10.1129  -35.2836  -14.1042 C   0  0  0  0  0  0  0  0  0  0  0  0
   10.3135  -34.6282  -12.7903 C   0  0  0  0  0  0  0  0  0  0  0  0
   11.2955  -35.0339  -11.9482 N   0  0  0  0  0  0  0  0  0  0  0  0
   10.6940  -36.2881  -14.7869 N   0  0  0  0  0  0  0  0  0  0  0  0
   10.0339  -36.4131  -15.9670 C   0  0  0  0  0  0  0  0  0  0  0  0
    9.0384  -35.5130  -16.0651 N   0  0  0  0  0  0  0  0  0  0  0  0
  1  3  1  6  0  0  0
  1  5  2  0  0  0  0
  1  9  1  0  0  0  0
  1 18  1  0  0  0  0
  2  4  1  1  0  0  0
  2  6  2  0  0  0  0
  2 10  1  0  0  0  0
  2 17  1  0  0  0  0
  7  9  1  0  0  0  0
  8 10  1  0  0  0  0
 11  7  1  1  0  0  0
 11 13  1  0  0  0  0
 11 15  1  0  0  0  0
 12  8  1  1  0  0  0
 12 14  1  0  0  0  0
 12 16  1  0  0  0  0
 13 21  1  0  0  0  0
 14 22  1  0  0  0  0
 15 17  1  6  0  0  0
 15 19  1  0  0  0  0
 16 18  1  6  0  0  0
 16 20  1  0  0  0  0
 19 21  1  0  0  0  0
 20 22  1  0  0  0  0
 21 32  1  1  0  0  0
 22 42  1  1  0  0  0
 23 24  2  0  0  0  0
 23 28  1  0  0  0  0
 24 25  1  0  0  0  0
 25 26  2  0  0  0  0
 26 27  1  0  0  0  0
 26 32  1  0  0  0  0
 27 28  2  0  0  0  0
 27 30  1  0  0  0  0
 28 29  1  0  0  0  0
 30 31  2  0  0  0  0
 31 32  1  0  0  0  0
 33 34  2  0  0  0  0
 33 38  1  0  0  0  0
 34 35  1  0  0  0  0
 35 36  2  0  0  0  0
 36 37  1  0  0  0  0
 36 42  1  0  0  0  0
 37 38  2  0  0  0  0
 37 40  1  0  0  0  0
 38 39  1  0  0  0  0
 40 41  2  0  0  0  0
 41 42  1  0  0  0  0
M  CHG  2   3  -1   4  -1
M  END
>  <CHROM.1>
19.58672999,44.46038825,4.41841054,-34.92532109,-14.63715167,2.91737621,0.25623663
1.49594492

>  <Name>
ligand

>  <RI>
0

>  <Rbt.Current_Directory>
/home/itssahil/PROJECTS/Mol_Feturizer/New_Systems/rnas/4QLN

>  <Rbt.Executable>
rbdock ($Id: //depot/dev/client3/rdock/2013.1/src/exe/rbdock.cxx#4 $)

>  <Rbt.Library>
libRbt.so (2013.1, Build901 2013/11/27)

>  <Rbt.Parameter_File>
/export/apps/rDock/src/rDock_2013.1_src/data/scripts/dock_solv.prm

>  <Rbt.Receptor>
prm/pocket_docking_7.prm

>  <SCORE>
-11.8099

>  <SCORE.INTER>
-11.5187

>  <SCORE.INTER.CONST>
1

>  <SCORE.INTER.POLAR>
0

>  <SCORE.INTER.ROT>
2

>  <SCORE.INTER.SOLV>
19.5725

>  <SCORE.INTER.VDW>
-19.1366

>  <SCORE.INTER.norm>
-0.274254

>  <SCORE.INTRA>
-0.291225

>  <SCORE.INTRA.DIHEDRAL>
-0.000621472

>  <SCORE.INTRA.DIHEDRAL.0>
2.39985

>  <SCORE.INTRA.POLAR>
0

>  <SCORE.INTRA.POLAR.0>
0

>  <SCORE.INTRA.REPUL>
0

>  <SCORE.INTRA.REPUL.0>
0

>  <SCORE.INTRA.SOLV>
1.04837

>  <SCORE.INTRA.SOLV.lig_0>
-110.958

>  <SCORE.INTRA.VDW>
-0.815101

>  <SCORE.INTRA.VDW.0>
-2.34644

>  <SCORE.INTRA.norm>
-0.00693394

>  <SCORE.RESTR>
0

>  <SCORE.RESTR.CAVITY>
0

>  <SCORE.RESTR.norm>
0

>  <SCORE.SYSTEM>
0

>  <SCORE.SYSTEM.CONST>
0

>  <SCORE.SYSTEM.DIHEDRAL>
0

>  <SCORE.SYSTEM.SOLV>
0

>  <SCORE.SYSTEM.norm>
0

>  <SCORE.heavy>
42

>  <SCORE.norm>
-0.281188

>  <RMSD>
6.309

$$$$
ligand
 OpenBabel11021811513D
libRbt.so/2013.1/901 2013/11/27
 42 48  0  0  0  0  0  0  0  0999 V2000
    4.1436  -34.7882  -16.6648 P   0  0  2  0  0  0  0  0  0  0  0  0
    6.3157  -31.9957  -13.0595 P   0  0  1  0  0  0  0  0  0  0  0  0
    2.8382  -34.3163  -17.2617 O   0  5  0  0  0  0  0  0  0  0  0  0
    7.0817  -33.2915  -12.9383 O   0  5  0  0  0  0  0  0  0  0  0  0
    4.6010  -36.2104  -16.8837 O   0  0  0  0  0  0  0  0  0  0  0  0
    6.8139  -30.7566  -12.3553 O   0  0  0  0  0  0  0  0  0  0  0  0
    2.8732  -34.6012  -14.3608 C   0  0  0  0  0  0  0  0  0  0  0  0
    7.2946  -31.4678  -15.4504 C   0  0  0  0  0  0  0  0  0  0  0  0
    4.1019  -34.5103  -15.0799 O   0  0  0  0  0  0  0  0  0  0  0  0
    6.1479  -31.6537  -14.6239 O   0  0  0  0  0  0  0  0  0  0  0  0
    2.9023  -33.6359  -13.1819 C   0  0  1  0  0  0  0  0  0  0  0  0
    7.1583  -32.3135  -16.7102 C   0  0  1  0  0  0  0  0  0  0  0  0
    1.9706  -34.0643  -12.1849 O   0  0  0  0  0  0  0  0  0  0  0  0
    8.4521  -32.5690  -17.2621 O   0  0  0  0  0  0  0  0  0  0  0  0
    4.2795  -33.5891  -12.5421 C   0  0  1  0  0  0  0  0  0  0  0  0
    6.5095  -33.6547  -16.4071 C   0  0  1  0  0  0  0  0  0  0  0  0
    4.7975  -32.2632  -12.5933 O   0  0  0  0  0  0  0  0  0  0  0  0
    5.3118  -33.8000  -17.1645 O   0  0  0  0  0  0  0  0  0  0  0  0
    4.0973  -34.0207  -11.0988 C   0  0  0  0  0  0  0  0  0  0  0  0
    7.5123  -34.7180  -16.8111 C   0  0  0  0  0  0  0  0  0  0  0  0
    2.6134  -34.3118  -10.9316 C   0  0  2  0  0  0  0  0  0  0  0  0
    8.7262  -33.9698  -17.3434 C   0  0  2  0  0  0  0  0  0  0  0  0
    0.4925  -38.9432  -12.2085 N   0  0  0  0  0  0  0  0  0  0  0  0
    0.4580  -37.7646  -12.8573 C   0  0  0  0  0  0  0  0  0  0  0  0
    1.0538  -36.6453  -12.4064 N   0  0  0  0  0  0  0  0  0  0  0  0
    1.7421  -36.6458  -11.2397 C   0  0  0  0  0  0  0  0  0  0  0  0
    1.8260  -37.8977  -10.4713 C   0  0  0  0  0  0  0  0  0  0  0  0
    1.1434  -39.0876  -11.0325 C   0  0  0  0  0  0  0  0  0  0  0  0
    1.1716  -40.2797  -10.3892 N   0  0  0  0  0  0  0  0  0  0  0  0
    2.5546  -37.6255   -9.3724 N   0  0  0  0  0  0  0  0  0  0  0  0
    2.9065  -36.3156   -9.4308 C   0  0  0  0  0  0  0  0  0  0  0  0
    2.4225  -35.7315  -10.5439 N   0  0  0  0  0  0  0  0  0  0  0  0
   11.3601  -33.0101  -12.9033 N   0  0  0  0  0  0  0  0  0  0  0  0
   10.2119  -32.4793  -13.3629 C   0  0  0  0  0  0  0  0  0  0  0  0
    9.6449  -32.8238  -14.5332 N   0  0  0  0  0  0  0  0  0  0  0  0
   10.2185  -33.7528  -15.3356 C   0  0  0  0  0  0  0  0  0  0  0  0
   11.4766  -34.3797  -14.9019 C   0  0  0  0  0  0  0  0  0  0  0  0
   12.0381  -33.9472  -13.6004 C   0  0  0  0  0  0  0  0  0  0  0  0
   13.1935  -34.4749  -13.1263 N   0  0  0  0  0  0  0  0  0  0  0  0
   11.8237  -35.2517  -15.8674 N   0  0  0  0  0  0  0  0  0  0  0  0
   10.8721  -35.1882  -16.8340 C   0  0  0  0  0  0  0  0  0  0  0  0
    9.9162  -34.2954  -16.5175 N   0  0  0  0  0  0  0  0  0  0  0  0
  1  3  1  6  0  0  0
  1  5  2  0  0  0  0
  1  9  1  0  0  0  0
  1 18  1  0  0  0  0
  2  4  1  1  0  0  0
  2  6  2  0  0  0  0
  2 10  1  0  0  0  0
  2 17  1  0  0  0  0
  7  9  1  0  0  0  0
  8 10  1  0  0  0  0
 11  7  1  6  0  0  0
 11 13  1  0  0  0  0
 11 15  1  0  0  0  0
 12  8  1  1  0  0  0
 12 14  1  0  0  0  0
 12 16  1  0  0  0  0
 13 21  1  0  0  0  0
 14 22  1  0  0  0  0
 15 17  1  1  0  0  0
 15 19  1  0  0  0  0
 16 18  1  6  0  0  0
 16 20  1  0  0  0  0
 19 21  1  0  0  0  0
 20 22  1  0  0  0  0
 21 32  1  6  0  0  0
 22 42  1  1  0  0  0
 23 24  2  0  0  0  0
 23 28  1  0  0  0  0
 24 25  1  0  0  0  0
 25 26  2  0  0  0  0
 26 27  1  0  0  0  0
 26 32  1  0  0  0  0
 27 28  2  0  0  0  0
 27 30  1  0  0  0  0
 28 29  1  0  0  0  0
 30 31  2  0  0  0  0
 31 32  1  0  0  0  0
 33 34  2  0  0  0  0
 33 38  1  0  0  0  0
 34 35  1  0  0  0  0
 35 36  2  0  0  0  0
 36 37  1  0  0  0  0
 36 42  1  0  0  0  0
 37 38  2  0  0  0  0
 37 40  1  0  0  0  0
 38 39  1  0  0  0  0
 40 41  2  0  0  0  0
 41 42  1  0  0  0  0
M  CHG  2   3  -1   4  -1
M  END
>  <CHROM.1>
-0.82193301,37.96102908,5.72580567,-34.46185151,-13.91956928,2.67370941,0.30711176
1.78914211

>  <Name>
ligand

>  <RI>
0

>  <Rbt.Current_Directory>
/home/itssahil/PROJECTS/Mol_Feturizer/New_Systems/rnas/4QLN

>  <Rbt.Executable>
rbdock ($Id: //depot/dev/client3/rdock/2013.1/src/exe/rbdock.cxx#4 $)

>  <Rbt.Library>
libRbt.so (2013.1, Build901 2013/11/27)

>  <Rbt.Parameter_File>
/export/apps/rDock/src/rDock_2013.1_src/data/scripts/dock_solv.prm

>  <Rbt.Receptor>
prm/pocket_docking_7.prm

>  <SCORE>
-11.9507

>  <SCORE.INTER>
-11.9286

>  <SCORE.INTER.CONST>
1

>  <SCORE.INTER.POLAR>
0

>  <SCORE.INTER.ROT>
2

>  <SCORE.INTER.SOLV>
13.6757

>  <SCORE.INTER.VDW>
-17.4443

>  <SCORE.INTER.norm>
-0.284015

>  <SCORE.INTRA>
-0.0220832

>  <SCORE.INTRA.DIHEDRAL>
-0.000527516

>  <SCORE.INTRA.DIHEDRAL.0>
2.39985

>  <SCORE.INTRA.POLAR>
0

>  <SCORE.INTRA.POLAR.0>
0

>  <SCORE.INTRA.REPUL>
0

>  <SCORE.INTRA.REPUL.0>
0

>  <SCORE.INTRA.SOLV>
0.815471

>  <SCORE.INTRA.SOLV.lig_0>
-110.958

>  <SCORE.INTRA.VDW>
-0.429555

>  <SCORE.INTRA.VDW.0>
-2.34644

>  <SCORE.INTRA.norm>
-0.000525792

>  <SCORE.RESTR>
0

>  <SCORE.RESTR.CAVITY>
0

>  <SCORE.RESTR.norm>
0

>  <SCORE.SYSTEM>
0

>  <SCORE.SYSTEM.CONST>
0

>  <SCORE.SYSTEM.DIHEDRAL>
0

>  <SCORE.SYSTEM.SOLV>
0

>  <SCORE.SYSTEM.norm>
0

>  <SCORE.heavy>
42

>  <SCORE.norm>
-0.28454

>  <RMSD>
6.326

$$$$
ligand
 OpenBabel11021811513D
libRbt.so/2013.1/901 2013/11/27
 42 48  0  0  0  0  0  0  0  0999 V2000
    3.5847  -34.0328  -16.3197 P   0  0  2  0  0  0  0  0  0  0  0  0
    6.5170  -32.5404  -12.4872 P   0  0  1  0  0  0  0  0  0  0  0  0
    2.2979  -33.2860  -16.5835 O   0  5  0  0  0  0  0  0  0  0  0  0
    7.1052  -33.8942  -12.8060 O   0  5  0  0  0  0  0  0  0  0  0  0
    3.8133  -35.3853  -16.9508 O   0  0  0  0  0  0  0  0  0  0  0  0
    7.2585  -31.5917  -11.5762 O   0  0  0  0  0  0  0  0  0  0  0  0
    2.6221  -34.3335  -13.8825 C   0  0  0  0  0  0  0  0  0  0  0  0
    7.2819  -31.5010  -14.7867 C   0  0  0  0  0  0  0  0  0  0  0  0
    3.7620  -34.1832  -14.7270 O   0  0  0  0  0  0  0  0  0  0  0  0
    6.2217  -31.7794  -13.8751 O   0  0  0  0  0  0  0  0  0  0  0  0
    2.9180  -33.7246  -12.5171 C   0  0  1  0  0  0  0  0  0  0  0  0
    6.8879  -31.9626  -16.1841 C   0  0  1  0  0  0  0  0  0  0  0  0
    2.0552  -34.3031  -11.5341 O   0  0  0  0  0  0  0  0  0  0  0  0
    8.0629  -32.1955  -16.9645 O   0  0  0  0  0  0  0  0  0  0  0  0
    4.3521  -33.9931  -12.0933 C   0  0  1  0  0  0  0  0  0  0  0  0
    6.0984  -33.2610  -16.1343 C   0  0  1  0  0  0  0  0  0  0  0  0
    5.0392  -32.7626  -11.8867 O   0  0  0  0  0  0  0  0  0  0  0  0
    4.8140  -33.0745  -16.7214 O   0  0  0  0  0  0  0  0  0  0  0  0
    4.2769  -34.7713  -10.7928 C   0  0  0  0  0  0  0  0  0  0  0  0
    6.8923  -34.2772  -16.9324 C   0  0  0  0  0  0  0  0  0  0  0  0
    2.7956  -34.9402  -10.4895 C   0  0  2  0  0  0  0  0  0  0  0  0
    8.1297  -33.5450  -17.4318 C   0  0  2  0  0  0  0  0  0  0  0  0
    2.1335  -39.3608  -13.2460 N   0  0  0  0  0  0  0  0  0  0  0  0
    2.4733  -38.1250  -13.6564 C   0  0  0  0  0  0  0  0  0  0  0  0
    2.6078  -37.0728  -12.8282 N   0  0  0  0  0  0  0  0  0  0  0  0
    2.4028  -37.2062  -11.4958 C   0  0  0  0  0  0  0  0  0  0  0  0
    2.0284  -38.5279  -10.9690 C   0  0  0  0  0  0  0  0  0  0  0  0
    1.8991  -39.6372  -11.9436 C   0  0  0  0  0  0  0  0  0  0  0  0
    1.5585  -40.8857  -11.5426 N   0  0  0  0  0  0  0  0  0  0  0  0
    1.8874  -38.3848   -9.6379 N   0  0  0  0  0  0  0  0  0  0  0  0
    2.1480  -37.0867   -9.3376 C   0  0  0  0  0  0  0  0  0  0  0  0
    2.4555  -36.3841  -10.4449 N   0  0  0  0  0  0  0  0  0  0  0  0
   11.4214  -33.9934  -13.3654 N   0  0  0  0  0  0  0  0  0  0  0  0
   10.3212  -33.2320  -13.5111 C   0  0  0  0  0  0  0  0  0  0  0  0
    9.5640  -33.2177  -14.6229 N   0  0  0  0  0  0  0  0  0  0  0  0
    9.8794  -33.9939  -15.6877 C   0  0  0  0  0  0  0  0  0  0  0  0
   11.0691  -34.8554  -15.6052 C   0  0  0  0  0  0  0  0  0  0  0  0
   11.8513  -34.8152  -14.3471 C   0  0  0  0  0  0  0  0  0  0  0  0
   12.9608  -35.5779  -14.1879 N   0  0  0  0  0  0  0  0  0  0  0  0
   11.1509  -35.5102  -16.7788 N   0  0  0  0  0  0  0  0  0  0  0  0
   10.1062  -35.1035  -17.5452 C   0  0  0  0  0  0  0  0  0  0  0  0
    9.3491  -34.2004  -16.8955 N   0  0  0  0  0  0  0  0  0  0  0  0
  1  3  1  6  0  0  0
  1  5  2  0  0  0  0
  1  9  1  0  0  0  0
  1 18  1  0  0  0  0
  2  4  1  6  0  0  0
  2  6  2  0  0  0  0
  2 10  1  0  0  0  0
  2 17  1  0  0  0  0
  7  9  1  0  0  0  0
  8 10  1  0  0  0  0
 11  7  1  6  0  0  0
 11 13  1  0  0  0  0
 11 15  1  0  0  0  0
 12  8  1  1  0  0  0
 12 14  1  0  0  0  0
 12 16  1  0  0  0  0
 13 21  1  0  0  0  0
 14 22  1  0  0  0  0
 15 17  1  1  0  0  0
 15 19  1  0  0  0  0
 16 18  1  6  0  0  0
 16 20  1  0  0  0  0
 19 21  1  0  0  0  0
 20 22  1  0  0  0  0
 21 32  1  6  0  0  0
 22 42  1  1  0  0  0
 23 24  2  0  0  0  0
 23 28  1  0  0  0  0
 24 25  1  0  0  0  0
 25 26  2  0  0  0  0
 26 27  1  0  0  0  0
 26 32  1  0  0  0  0
 27 28  2  0  0  0  0
 27 30  1  0  0  0  0
 28 29  1  0  0  0  0
 30 31  2  0  0  0  0
 31 32  1  0  0  0  0
 33 34  2  0  0  0  0
 33 38  1  0  0  0  0
 34 35  1  0  0  0  0
 35 36  2  0  0  0  0
 36 37  1  0  0  0  0
 36 42  1  0  0  0  0
 37 38  2  0  0  0  0
 37 40  1  0  0  0  0
 38 39  1  0  0  0  0
 40 41  2  0  0  0  0
 41 42  1  0  0  0  0
M  CHG  2   3  -1   4  -1
M  END
>  <CHROM.1>
47.33898120,35.71086455,5.68487235,-34.65152240,-13.90001517,2.53821984,0.07282901
2.20661584

>  <Name>
ligand

>  <RI>
0

>  <Rbt.Current_Directory>
/home/itssahil/PROJECTS/Mol_Feturizer/New_Systems/rnas/4QLN

>  <Rbt.Executable>
rbdock ($Id: //depot/dev/client3/rdock/2013.1/src/exe/rbdock.cxx#4 $)

>  <Rbt.Library>
libRbt.so (2013.1, Build901 2013/11/27)

>  <Rbt.Parameter_File>
/export/apps/rDock/src/rDock_2013.1_src/data/scripts/dock_solv.prm

>  <Rbt.Receptor>
prm/pocket_docking_7.prm

>  <SCORE>
-11.6528

>  <SCORE.INTER>
-11.0228

>  <SCORE.INTER.CONST>
1

>  <SCORE.INTER.POLAR>
0

>  <SCORE.INTER.ROT>
2

>  <SCORE.INTER.SOLV>
16.5366

>  <SCORE.INTER.VDW>
-17.7941

>  <SCORE.INTER.norm>
-0.262448

>  <SCORE.INTRA>
-0.629973

>  <SCORE.INTRA.DIHEDRAL>
-0.000730872

>  <SCORE.INTRA.DIHEDRAL.0>
2.39985

>  <SCORE.INTRA.POLAR>
0

>  <SCORE.INTRA.POLAR.0>
0

>  <SCORE.INTRA.REPUL>
0

>  <SCORE.INTRA.REPUL.0>
0

>  <SCORE.INTRA.SOLV>
0.711835

>  <SCORE.INTRA.SOLV.lig_0>
-110.958

>  <SCORE.INTRA.VDW>
-0.985525

>  <SCORE.INTRA.VDW.0>
-2.34644

>  <SCORE.INTRA.norm>
-0.0149994

>  <SCORE.RESTR>
0

>  <SCORE.RESTR.CAVITY>
0

>  <SCORE.RESTR.norm>
0

>  <SCORE.SYSTEM>
0

>  <SCORE.SYSTEM.CONST>
0

>  <SCORE.SYSTEM.DIHEDRAL>
0

>  <SCORE.SYSTEM.SOLV>
0

>  <SCORE.SYSTEM.norm>
0

>  <SCORE.heavy>
42

>  <SCORE.norm>
-0.277447

>  <RMSD>
6.330

$$$$
ligand
 OpenBabel11021811513D
libRbt.so/2013.1/901 2013/11/27
 42 48  0  0  0  0  0  0  0  0999 V2000
    4.8725  -36.3867  -17.8040 P   0  0  2  0  0  0  0  0  0  0  0  0
    3.6229  -35.0604  -13.0930 P   0  0  1  0  0  0  0  0  0  0  0  0
    3.8327  -37.0597  -18.6693 O   0  5  0  0  0  0  0  0  0  0  0  0
    5.1274  -34.9377  -13.0505 O   0  5  0  0  0  0  0  0  0  0  0  0
    6.3273  -36.4263  -18.2066 O   0  0  0  0  0  0  0  0  0  0  0  0
    2.7879  -34.4896  -11.9720 O   0  0  0  0  0  0  0  0  0  0  0  0
    4.3614  -38.3362  -16.1024 C   0  0  0  0  0  0  0  0  0  0  0  0
    3.3587  -33.0607  -14.7914 C   0  0  0  0  0  0  0  0  0  0  0  0
    4.7459  -36.9786  -16.3125 O   0  0  0  0  0  0  0  0  0  0  0  0
    3.1044  -34.4286  -14.4802 O   0  0  0  0  0  0  0  0  0  0  0  0
    3.6120  -38.4529  -14.7805 C   0  0  1  0  0  0  0  0  0  0  0  0
    3.9472  -32.9570  -16.1928 C   0  0  1  0  0  0  0  0  0  0  0  0
    3.6833  -39.7992  -14.3032 O   0  0  0  0  0  0  0  0  0  0  0  0
    4.6857  -31.7391  -16.3170 O   0  0  0  0  0  0  0  0  0  0  0  0
    4.2210  -37.5506  -13.7206 C   0  0  1  0  0  0  0  0  0  0  0  0
    4.8984  -34.1082  -16.4786 C   0  0  1  0  0  0  0  0  0  0  0  0
    3.2495  -36.6187  -13.2551 O   0  0  0  0  0  0  0  0  0  0  0  0
    4.4449  -34.8472  -17.6088 O   0  0  0  0  0  0  0  0  0  0  0  0
    4.6582  -38.4569  -12.5848 C   0  0  0  0  0  0  0  0  0  0  0  0
    6.2498  -33.4860  -16.7723 C   0  0  0  0  0  0  0  0  0  0  0  0
    4.2942  -39.8710  -13.0121 C   0  0  2  0  0  0  0  0  0  0  0  0
    6.0544  -31.9813  -16.6519 C   0  0  2  0  0  0  0  0  0  0  0  0
    9.3573  -40.0790  -14.3906 N   0  0  0  0  0  0  0  0  0  0  0  0
    8.4755  -39.0660  -14.4766 C   0  0  0  0  0  0  0  0  0  0  0  0
    7.1925  -39.1559  -14.0802 N   0  0  0  0  0  0  0  0  0  0  0  0
    6.7058  -40.3065  -13.5565 C   0  0  0  0  0  0  0  0  0  0  0  0
    7.6092  -41.4607  -13.4291 C   0  0  0  0  0  0  0  0  0  0  0  0
    9.0075  -41.2842  -13.8881 C   0  0  0  0  0  0  0  0  0  0  0  0
    9.9047  -42.2962  -13.8059 N   0  0  0  0  0  0  0  0  0  0  0  0
    6.8841  -42.4579  -12.8886 N   0  0  0  0  0  0  0  0  0  0  0  0
    5.6274  -41.9854  -12.6874 C   0  0  0  0  0  0  0  0  0  0  0  0
    5.5209  -40.7030  -13.0853 N   0  0  0  0  0  0  0  0  0  0  0  0
    9.6331  -28.3733  -15.3302 N   0  0  0  0  0  0  0  0  0  0  0  0
    8.9955  -28.5756  -16.4981 C   0  0  0  0  0  0  0  0  0  0  0  0
    8.0911  -29.5514  -16.6967 N   0  0  0  0  0  0  0  0  0  0  0  0
    7.7645  -30.4086  -15.6994 C   0  0  0  0  0  0  0  0  0  0  0  0
    8.4192  -30.2517  -14.3914 C   0  0  0  0  0  0  0  0  0  0  0  0
    9.4037  -29.1529  -14.2516 C   0  0  0  0  0  0  0  0  0  0  0  0
   10.0519  -28.9385  -13.0803 N   0  0  0  0  0  0  0  0  0  0  0  0
    7.9208  -31.2160  -13.5947 N   0  0  0  0  0  0  0  0  0  0  0  0
    7.0265  -31.9276  -14.3280 C   0  0  0  0  0  0  0  0  0  0  0  0
    6.9334  -31.4469  -15.5815 N   0  0  0  0  0  0  0  0  0  0  0  0
  1  3  1  6  0  0  0
  1  5  2  0  0  0  0
  1  9  1  0  0  0  0
  1 18  1  0  0  0  0
  2  4  1  1  0  0  0
  2  6  2  0  0  0  0
  2 10  1  0  0  0  0
  2 17  1  0  0  0  0
  7  9  1  0  0  0  0
  8 10  1  0  0  0  0
 11  7  1  6  0  0  0
 11 13  1  0  0  0  0
 11 15  1  0  0  0  0
 12  8  1  1  0  0  0
 12 14  1  0  0  0  0
 12 16  1  0  0  0  0
 13 21  1  0  0  0  0
 14 22  1  0  0  0  0
 15 17  1  1  0  0  0
 15 19  1  0  0  0  0
 16 18  1  6  0  0  0
 16 20  1  0  0  0  0
 19 21  1  0  0  0  0
 20 22  1  0  0  0  0
 21 32  1  6  0  0  0
 22 42  1  1  0  0  0
 23 24  2  0  0  0  0
 23 28  1  0  0  0  0
 24 25  1  0  0  0  0
 25 26  2  0  0  0  0
 26 27  1  0  0  0  0
 26 32  1  0  0  0  0
 27 28  2  0  0  0  0
 27 30  1  0  0  0  0
 28 29  1  0  0  0  0
 30 31  2  0  0  0  0
 31 32  1  0  0  0  0
 33 34  2  0  0  0  0
 33 38  1  0  0  0  0
 34 35  1  0  0  0  0
 35 36  2  0  0  0  0
 36 37  1  0  0  0  0
 36 42  1  0  0  0  0
 37 38  2  0  0  0  0
 37 40  1  0  0  0  0
 38 39  1  0  0  0  0
 40 41  2  0  0  0  0
 41 42  1  0  0  0  0
M  CHG  2   3  -1   4  -1
M  END
>  <CHROM.1>
78.57671308,-112.13737694,5.90385061,-35.62479528,-14.87476947,1.70776733
0.23411552,2.96272083

>  <Name>
ligand

>  <RI>
0

>  <Rbt.Current_Directory>
/home/itssahil/PROJECTS/Mol_Feturizer/New_Systems/rnas/4QLN

>  <Rbt.Executable>
rbdock ($Id: //depot/dev/client3/rdock/2013.1/src/exe/rbdock.cxx#4 $)

>  <Rbt.Library>
libRbt.so (2013.1, Build901 2013/11/27)

>  <Rbt.Parameter_File>
/export/apps/rDock/src/rDock_2013.1_src/data/scripts/dock_solv.prm

>  <Rbt.Receptor>
prm/pocket_docking_7.prm

>  <SCORE>
-16.8106

>  <SCORE.INTER>
-17.4536

>  <SCORE.INTER.CONST>
1

>  <SCORE.INTER.POLAR>
0

>  <SCORE.INTER.ROT>
2

>  <SCORE.INTER.SOLV>
23.8192

>  <SCORE.INTER.VDW>
-24.5088

>  <SCORE.INTER.norm>
-0.415561

>  <SCORE.INTRA>
0.642966

>  <SCORE.INTRA.DIHEDRAL>
6.49104e-05

>  <SCORE.INTRA.DIHEDRAL.0>
2.39985

>  <SCORE.INTRA.POLAR>
0

>  <SCORE.INTRA.POLAR.0>
0

>  <SCORE.INTRA.REPUL>
0

>  <SCORE.INTRA.REPUL.0>
0

>  <SCORE.INTRA.SOLV>
-0.0159687

>  <SCORE.INTRA.SOLV.lig_0>
-110.958

>  <SCORE.INTRA.VDW>
0.650918

>  <SCORE.INTRA.VDW.0>
-2.34644

>  <SCORE.INTRA.norm>
0.0153087

>  <SCORE.RESTR>
0

>  <SCORE.RESTR.CAVITY>
0

>  <SCORE.RESTR.norm>
0

>  <SCORE.SYSTEM>
0

>  <SCORE.SYSTEM.CONST>
0

>  <SCORE.SYSTEM.DIHEDRAL>
0

>  <SCORE.SYSTEM.SOLV>
0

>  <SCORE.SYSTEM.norm>
0

>  <SCORE.heavy>
42

>  <SCORE.norm>
-0.400252

>  <RMSD>
6.335

$$$$
ligand
 OpenBabel11021811513D
libRbt.so/2013.1/901 2013/11/27
 42 48  0  0  0  0  0  0  0  0999 V2000
    3.7518  -33.8876  -16.4159 P   0  0  2  0  0  0  0  0  0  0  0  0
    6.6231  -32.4094  -12.5320 P   0  0  1  0  0  0  0  0  0  0  0  0
    2.4903  -33.1146  -16.7223 O   0  5  0  0  0  0  0  0  0  0  0  0
    7.1864  -33.7812  -12.8170 O   0  5  0  0  0  0  0  0  0  0  0  0
    3.9634  -35.2543  -17.0221 O   0  0  0  0  0  0  0  0  0  0  0  0
    7.3643  -31.4654  -11.6160 O   0  0  0  0  0  0  0  0  0  0  0  0
    2.7221  -34.1300  -13.9997 C   0  0  0  0  0  0  0  0  0  0  0  0
    7.4696  -31.4220  -14.8259 C   0  0  0  0  0  0  0  0  0  0  0  0
    3.8859  -34.0190  -14.8172 O   0  0  0  0  0  0  0  0  0  0  0  0
    6.3807  -31.6619  -13.9374 O   0  0  0  0  0  0  0  0  0  0  0  0
    2.9985  -33.5084  -12.6359 C   0  0  1  0  0  0  0  0  0  0  0  0
    7.0994  -31.8944  -16.2262 C   0  0  1  0  0  0  0  0  0  0  0  0
    2.0980  -34.0520  -11.6669 O   0  0  0  0  0  0  0  0  0  0  0  0
    8.2874  -32.1664  -16.9734 O   0  0  0  0  0  0  0  0  0  0  0  0
    4.4148  -33.8046  -12.1724 C   0  0  1  0  0  0  0  0  0  0  0  0
    6.2780  -33.1730  -16.1781 C   0  0  1  0  0  0  0  0  0  0  0  0
    5.1259  -32.5878  -11.9659 O   0  0  0  0  0  0  0  0  0  0  0  0
    5.0134  -32.9646  -16.7998 O   0  0  0  0  0  0  0  0  0  0  0  0
    4.2888  -34.5617  -10.8635 C   0  0  0  0  0  0  0  0  0  0  0  0
    7.0667  -34.2192  -16.9417 C   0  0  0  0  0  0  0  0  0  0  0  0
    2.7967  -34.6912  -10.5952 C   0  0  2  0  0  0  0  0  0  0  0  0
    8.3333  -33.5238  -17.4200 C   0  0  2  0  0  0  0  0  0  0  0  0
    2.3915  -39.2091  -13.2415 N   0  0  0  0  0  0  0  0  0  0  0  0
    2.8087  -37.9973  -13.6522 C   0  0  0  0  0  0  0  0  0  0  0  0
    2.8604  -36.9145  -12.8547 N   0  0  0  0  0  0  0  0  0  0  0  0
    2.4842  -36.9894  -11.5556 C   0  0  0  0  0  0  0  0  0  0  0  0
    2.0157  -38.2815  -11.0306 C   0  0  0  0  0  0  0  0  0  0  0  0
    1.9867  -39.4275  -11.9703 C   0  0  0  0  0  0  0  0  0  0  0  0
    1.5695  -40.6523  -11.5685 N   0  0  0  0  0  0  0  0  0  0  0  0
    1.7094  -38.0813   -9.7351 N   0  0  0  0  0  0  0  0  0  0  0  0
    1.9590  -36.7767   -9.4541 C   0  0  0  0  0  0  0  0  0  0  0  0
    2.4211  -36.1258  -10.5391 N   0  0  0  0  0  0  0  0  0  0  0  0
   11.2697  -34.3068  -13.1378 N   0  0  0  0  0  0  0  0  0  0  0  0
   10.1608  -33.5626  -13.3052 C   0  0  0  0  0  0  0  0  0  0  0  0
    9.5039  -33.4525  -14.4740 N   0  0  0  0  0  0  0  0  0  0  0  0
    9.9380  -34.1061  -15.5786 C   0  0  0  0  0  0  0  0  0  0  0  0
   11.1449  -34.9410  -15.4758 C   0  0  0  0  0  0  0  0  0  0  0  0
   11.8120  -35.0114  -14.1543 C   0  0  0  0  0  0  0  0  0  0  0  0
   12.9290  -35.7580  -13.9728 N   0  0  0  0  0  0  0  0  0  0  0  0
   11.3518  -35.4686  -16.6971 N   0  0  0  0  0  0  0  0  0  0  0  0
   10.3649  -35.0115  -17.5101 C   0  0  0  0  0  0  0  0  0  0  0  0
    9.5230  -34.1999  -16.8441 N   0  0  0  0  0  0  0  0  0  0  0  0
  1  3  1  6  0  0  0
  1  5  2  0  0  0  0
  1  9  1  0  0  0  0
  1 18  1  0  0  0  0
  2  4  1  6  0  0  0
  2  6  2  0  0  0  0
  2 10  1  0  0  0  0
  2 17  1  0  0  0  0
  7  9  1  0  0  0  0
  8 10  1  0  0  0  0
 11  7  1  6  0  0  0
 11 13  1  0  0  0  0
 11 15  1  0  0  0  0
 12  8  1  1  0  0  0
 12 14  1  0  0  0  0
 12 16  1  0  0  0  0
 13 21  1  0  0  0  0
 14 22  1  0  0  0  0
 15 17  1  1  0  0  0
 15 19  1  0  0  0  0
 16 18  1  6  0  0  0
 16 20  1  0  0  0  0
 19 21  1  0  0  0  0
 20 22  1  0  0  0  0
 21 32  1  6  0  0  0
 22 42  1  1  0  0  0
 23 24  2  0  0  0  0
 23 28  1  0  0  0  0
 24 25  1  0  0  0  0
 25 26  2  0  0  0  0
 26 27  1  0  0  0  0
 26 32  1  0  0  0  0
 27 28  2  0  0  0  0
 27 30  1  0  0  0  0
 28 29  1  0  0  0  0
 30 31  2  0  0  0  0
 31 32  1  0  0  0  0
 33 34  2  0  0  0  0
 33 38  1  0  0  0  0
 34 35  1  0  0  0  0
 35 36  2  0  0  0  0
 36 37  1  0  0  0  0
 36 42  1  0  0  0  0
 37 38  2  0  0  0  0
 37 40  1  0  0  0  0
 38 39  1  0  0  0  0
 40 41  2  0  0  0  0
 41 42  1  0  0  0  0
M  CHG  2   3  -1   4  -1
M  END
>  <CHROM.1>
53.44287460,43.95088347,5.78012708,-34.55269252,-13.91990120,2.55684732,0.00015412
2.27581177

>  <Name>
ligand

>  <RI>
0

>  <Rbt.Current_Directory>
/home/itssahil/PROJECTS/Mol_Feturizer/New_Systems/rnas/4QLN

>  <Rbt.Executable>
rbdock ($Id: //depot/dev/client3/rdock/2013.1/src/exe/rbdock.cxx#4 $)

>  <Rbt.Library>
libRbt.so (2013.1, Build901 2013/11/27)

>  <Rbt.Parameter_File>
/export/apps/rDock/src/rDock_2013.1_src/data/scripts/dock_solv.prm

>  <Rbt.Receptor>
prm/pocket_docking_6.prm

>  <SCORE>
-11.3105

>  <SCORE.INTER>
-10.6493

>  <SCORE.INTER.CONST>
1

>  <SCORE.INTER.POLAR>
0

>  <SCORE.INTER.ROT>
2

>  <SCORE.INTER.SOLV>
17.3337

>  <SCORE.INTER.VDW>
-17.8107

>  <SCORE.INTER.norm>
-0.253554

>  <SCORE.INTRA>
-0.713548

>  <SCORE.INTRA.DIHEDRAL>
-0.000499519

>  <SCORE.INTRA.DIHEDRAL.0>
2.39985

>  <SCORE.INTRA.POLAR>
0

>  <SCORE.INTRA.POLAR.0>
0

>  <SCORE.INTRA.REPUL>
0

>  <SCORE.INTRA.REPUL.0>
0

>  <SCORE.INTRA.SOLV>
1.00943

>  <SCORE.INTRA.SOLV.lig_0>
-110.958

>  <SCORE.INTRA.VDW>
-1.21801

>  <SCORE.INTRA.VDW.0>
-2.34644

>  <SCORE.INTRA.norm>
-0.0169892

>  <SCORE.RESTR>
0.052322

>  <SCORE.RESTR.CAVITY>
0.052322

>  <SCORE.RESTR.norm>
0.00124576

>  <SCORE.SYSTEM>
0

>  <SCORE.SYSTEM.CONST>
0

>  <SCORE.SYSTEM.DIHEDRAL>
0

>  <SCORE.SYSTEM.SOLV>
0

>  <SCORE.SYSTEM.norm>
0

>  <SCORE.heavy>
42

>  <SCORE.norm>
-0.269297

>  <RMSD>
6.341

$$$$
ligand
 OpenBabel11021811513D
libRbt.so/2013.1/901 2013/11/27
 42 48  0  0  0  0  0  0  0  0999 V2000
    3.9621  -34.7798  -16.8515 P   0  0  2  0  0  0  0  0  0  0  0  0
    6.0496  -32.0543  -13.1463 P   0  0  1  0  0  0  0  0  0  0  0  0
    2.7204  -34.2514  -17.5310 O   0  5  0  0  0  0  0  0  0  0  0  0
    6.7412  -33.3847  -12.9668 O   0  5  0  0  0  0  0  0  0  0  0  0
    4.3603  -36.2254  -17.0291 O   0  0  0  0  0  0  0  0  0  0  0  0
    6.5657  -30.8329  -12.4244 O   0  0  0  0  0  0  0  0  0  0  0  0
    2.5660  -34.5025  -14.6309 C   0  0  0  0  0  0  0  0  0  0  0  0
    7.1962  -31.6044  -15.4778 C   0  0  0  0  0  0  0  0  0  0  0  0
    3.8389  -34.4810  -15.2746 O   0  0  0  0  0  0  0  0  0  0  0  0
    5.9938  -31.7234  -14.7210 O   0  0  0  0  0  0  0  0  0  0  0  0
    2.5721  -33.5255  -13.4612 C   0  0  1  0  0  0  0  0  0  0  0  0
    7.0940  -32.4576  -16.7359 C   0  0  1  0  0  0  0  0  0  0  0  0
    1.5617  -33.8953  -12.5190 O   0  0  0  0  0  0  0  0  0  0  0  0
    8.4044  -32.7832  -17.2056 O   0  0  0  0  0  0  0  0  0  0  0  0
    3.9088  -33.5389  -12.7392 C   0  0  1  0  0  0  0  0  0  0  0  0
    6.3619  -33.7613  -16.4606 C   0  0  1  0  0  0  0  0  0  0  0  0
    4.4945  -32.2409  -12.7709 O   0  0  0  0  0  0  0  0  0  0  0  0
    5.2063  -33.8566  -17.2881 O   0  0  0  0  0  0  0  0  0  0  0  0
    3.6186  -33.9435  -11.3058 C   0  0  0  0  0  0  0  0  0  0  0  0
    7.3329  -34.8777  -16.7931 C   0  0  0  0  0  0  0  0  0  0  0  0
    2.1145  -34.1590  -11.2266 C   0  0  2  0  0  0  0  0  0  0  0  0
    8.6126  -34.1968  -17.2573 C   0  0  2  0  0  0  0  0  0  0  0  0
    2.9971  -39.2366  -12.2352 N   0  0  0  0  0  0  0  0  0  0  0  0
    3.4663  -38.1354  -12.8504 C   0  0  0  0  0  0  0  0  0  0  0  0
    3.1514  -36.8806  -12.4798 N   0  0  0  0  0  0  0  0  0  0  0  0
    2.3203  -36.6521  -11.4348 C   0  0  0  0  0  0  0  0  0  0  0  0
    1.7656  -37.8061  -10.7099 C   0  0  0  0  0  0  0  0  0  0  0  0
    2.1584  -39.1565  -11.1780 C   0  0  0  0  0  0  0  0  0  0  0  0
    1.6935  -40.2725  -10.5664 N   0  0  0  0  0  0  0  0  0  0  0  0
    0.9845  -37.3069   -9.7338 N   0  0  0  0  0  0  0  0  0  0  0  0
    1.0335  -35.9532   -9.8246 C   0  0  0  0  0  0  0  0  0  0  0  0
    1.8299  -35.5627  -10.8383 N   0  0  0  0  0  0  0  0  0  0  0  0
   11.0178  -33.3150  -12.6736 N   0  0  0  0  0  0  0  0  0  0  0  0
    9.9273  -32.7339  -13.2070 C   0  0  0  0  0  0  0  0  0  0  0  0
    9.4157  -33.0640  -14.4066 N   0  0  0  0  0  0  0  0  0  0  0  0
    9.9897  -34.0295  -15.1643 C   0  0  0  0  0  0  0  0  0  0  0  0
   11.1866  -34.7123  -14.6492 C   0  0  0  0  0  0  0  0  0  0  0  0
   11.6892  -34.2925  -13.3197 C   0  0  0  0  0  0  0  0  0  0  0  0
   12.7861  -34.8707  -12.7715 N   0  0  0  0  0  0  0  0  0  0  0  0
   11.5476  -35.6117  -15.5839 N   0  0  0  0  0  0  0  0  0  0  0  0
   10.6605  -35.5130  -16.6073 C   0  0  0  0  0  0  0  0  0  0  0  0
    9.7328  -34.5706  -16.3575 N   0  0  0  0  0  0  0  0  0  0  0  0
  1  3  1  6  0  0  0
  1  5  2  0  0  0  0
  1  9  1  0  0  0  0
  1 18  1  0  0  0  0
  2  4  1  1  0  0  0
  2  6  2  0  0  0  0
  2 10  1  0  0  0  0
  2 17  1  0  0  0  0
  7  9  1  0  0  0  0
  8 10  1  0  0  0  0
 11  7  1  6  0  0  0
 11 13  1  0  0  0  0
 11 15  1  0  0  0  0
 12  8  1  1  0  0  0
 12 14  1  0  0  0  0
 12 16  1  0  0  0  0
 13 21  1  0  0  0  0
 14 22  1  0  0  0  0
 15 17  1  1  0  0  0
 15 19  1  0  0  0  0
 16 18  1  6  0  0  0
 16 20  1  0  0  0  0
 19 21  1  0  0  0  0
 20 22  1  0  0  0  0
 21 32  1  6  0  0  0
 22 42  1  1  0  0  0
 23 24  2  0  0  0  0
 23 28  1  0  0  0  0
 24 25  1  0  0  0  0
 25 26  2  0  0  0  0
 26 27  1  0  0  0  0
 26 32  1  0  0  0  0
 27 28  2  0  0  0  0
 27 30  1  0  0  0  0
 28 29  1  0  0  0  0
 30 31  2  0  0  0  0
 31 32  1  0  0  0  0
 33 34  2  0  0  0  0
 33 38  1  0  0  0  0
 34 35  1  0  0  0  0
 35 36  2  0  0  0  0
 36 37  1  0  0  0  0
 36 42  1  0  0  0  0
 37 38  2  0  0  0  0
 37 40  1  0  0  0  0
 38 39  1  0  0  0  0
 40 41  2  0  0  0  0
 41 42  1  0  0  0  0
M  CHG  2   3  -1   4  -1
M  END
>  <CHROM.1>
66.22167098,37.98085700,5.64904249,-34.54312316,-13.98904602,2.61525221,0.10348296
2.09015101

>  <Name>
ligand

>  <RI>
0

>  <Rbt.Current_Directory>
/home/itssahil/PROJECTS/Mol_Feturizer/New_Systems/rnas/4QLN

>  <Rbt.Executable>
rbdock ($Id: //depot/dev/client3/rdock/2013.1/src/exe/rbdock.cxx#4 $)

>  <Rbt.Library>
libRbt.so (2013.1, Build901 2013/11/27)

>  <Rbt.Parameter_File>
/export/apps/rDock/src/rDock_2013.1_src/data/scripts/dock_solv.prm

>  <Rbt.Receptor>
prm/pocket_docking_7.prm

>  <SCORE>
-11.4663

>  <SCORE.INTER>
-10.8712

>  <SCORE.INTER.CONST>
1

>  <SCORE.INTER.POLAR>
0

>  <SCORE.INTER.ROT>
2

>  <SCORE.INTER.SOLV>
15.0506

>  <SCORE.INTER.VDW>
-17.1977

>  <SCORE.INTER.norm>
-0.258838

>  <SCORE.INTRA>
-0.595125

>  <SCORE.INTRA.DIHEDRAL>
-0.00045484

>  <SCORE.INTRA.DIHEDRAL.0>
2.39985

>  <SCORE.INTRA.POLAR>
0

>  <SCORE.INTRA.POLAR.0>
0

>  <SCORE.INTRA.REPUL>
0

>  <SCORE.INTRA.REPUL.0>
0

>  <SCORE.INTRA.SOLV>
0.788126

>  <SCORE.INTRA.SOLV.lig_0>
-110.958

>  <SCORE.INTRA.VDW>
-0.98896

>  <SCORE.INTRA.VDW.0>
-2.34644

>  <SCORE.INTRA.norm>
-0.0141696

>  <SCORE.RESTR>
0

>  <SCORE.RESTR.CAVITY>
0

>  <SCORE.RESTR.norm>
0

>  <SCORE.SYSTEM>
0

>  <SCORE.SYSTEM.CONST>
0

>  <SCORE.SYSTEM.DIHEDRAL>
0

>  <SCORE.SYSTEM.SOLV>
0

>  <SCORE.SYSTEM.norm>
0

>  <SCORE.heavy>
42

>  <SCORE.norm>
-0.273008

>  <RMSD>
6.364

$$$$
ligand
 OpenBabel11021811513D
libRbt.so/2013.1/901 2013/11/27
 42 48  0  0  0  0  0  0  0  0999 V2000
    8.2271  -30.3934  -12.9721 P   0  0  2  0  0  0  0  0  0  0  0  0
    7.3940  -33.5102  -16.8587 P   0  0  1  0  0  0  0  0  0  0  0  0
    8.5872  -28.9543  -13.2591 O   0  5  0  0  0  0  0  0  0  0  0  0
    7.5314  -34.4864  -15.7148 O   0  5  0  0  0  0  0  0  0  0  0  0
    8.4515  -30.9649  -11.5926 O   0  0  0  0  0  0  0  0  0  0  0  0
    6.8569  -33.9790  -18.1896 O   0  0  0  0  0  0  0  0  0  0  0  0
   10.2856  -30.9595  -14.5210 C   0  0  0  0  0  0  0  0  0  0  0  0
    5.1574  -32.4845  -15.9103 C   0  0  0  0  0  0  0  0  0  0  0  0
    8.9954  -31.3262  -14.0353 O   0  0  0  0  0  0  0  0  0  0  0  0
    6.4938  -32.2721  -16.3594 O   0  0  0  0  0  0  0  0  0  0  0  0
   10.4622  -31.4855  -15.9404 C   0  0  1  0  0  0  0  0  0  0  0  0
    4.9553  -31.7969  -14.5659 C   0  0  1  0  0  0  0  0  0  0  0  0
   11.8555  -31.6031  -16.2411 O   0  0  0  0  0  0  0  0  0  0  0  0
    3.8728  -32.4149  -13.8659 O   0  0  0  0  0  0  0  0  0  0  0  0
    9.8342  -32.8597  -16.1006 C   0  0  1  0  0  0  0  0  0  0  0  0
    6.1967  -31.9109  -13.6956 C   0  0  1  0  0  0  0  0  0  0  0  0
    8.8289  -32.8231  -17.1090 O   0  0  0  0  0  0  0  0  0  0  0  0
    6.6815  -30.6131  -13.3639 O   0  0  0  0  0  0  0  0  0  0  0  0
   10.9528  -33.7973  -16.5154 C   0  0  0  0  0  0  0  0  0  0  0  0
    5.7736  -32.6450  -12.4379 C   0  0  0  0  0  0  0  0  0  0  0  0
   12.2111  -32.9448  -16.5853 C   0  0  2  0  0  0  0  0  0  0  0  0
    4.2900  -32.9419  -12.6040 C   0  0  2  0  0  0  0  0  0  0  0  0
   13.2224  -34.2437  -11.5985 N   0  0  0  0  0  0  0  0  0  0  0  0
   12.0951  -33.7695  -12.1602 C   0  0  0  0  0  0  0  0  0  0  0  0
   11.9778  -33.4762  -13.4683 N   0  0  0  0  0  0  0  0  0  0  0  0
   13.0204  -33.6487  -14.3157 C   0  0  0  0  0  0  0  0  0  0  0  0
   14.2887  -34.1645  -13.7771 C   0  0  0  0  0  0  0  0  0  0  0  0
   14.3402  -34.4636  -12.3263 C   0  0  0  0  0  0  0  0  0  0  0  0
   15.4689  -34.9421  -11.7495 N   0  0  0  0  0  0  0  0  0  0  0  0
   15.1440  -34.2393  -14.8140 N   0  0  0  0  0  0  0  0  0  0  0  0
   14.4831  -33.8097  -15.9194 C   0  0  0  0  0  0  0  0  0  0  0  0
   13.2172  -33.4578  -15.6226 N   0  0  0  0  0  0  0  0  0  0  0  0
    4.7252  -37.4779  -15.2132 N   0  0  0  0  0  0  0  0  0  0  0  0
    5.0598  -36.2281  -15.5840 C   0  0  0  0  0  0  0  0  0  0  0  0
    4.8899  -35.1459  -14.8033 N   0  0  0  0  0  0  0  0  0  0  0  0
    4.3562  -35.2615  -13.5632 C   0  0  0  0  0  0  0  0  0  0  0  0
    3.9648  -36.5965  -13.0851 C   0  0  0  0  0  0  0  0  0  0  0  0
    4.1839  -37.7386  -14.0037 C   0  0  0  0  0  0  0  0  0  0  0  0
    3.8516  -39.0021  -13.6415 N   0  0  0  0  0  0  0  0  0  0  0  0
    3.4718  -36.4301  -11.8432 N   0  0  0  0  0  0  0  0  0  0  0  0
    3.5410  -35.1055  -11.5523 C   0  0  0  0  0  0  0  0  0  0  0  0
    4.0675  -34.4095  -12.5766 N   0  0  0  0  0  0  0  0  0  0  0  0
  1  3  1  6  0  0  0
  1  5  2  0  0  0  0
  1  9  1  0  0  0  0
  1 18  1  0  0  0  0
  2  4  1  1  0  0  0
  2  6  2  0  0  0  0
  2 10  1  0  0  0  0
  2 17  1  0  0  0  0
  7  9  1  0  0  0  0
  8 10  1  0  0  0  0
 11  7  1  1  0  0  0
 11 13  1  0  0  0  0
 11 15  1  0  0  0  0
 12  8  1  6  0  0  0
 12 14  1  0  0  0  0
 12 16  1  0  0  0  0
 13 21  1  0  0  0  0
 14 22  1  0  0  0  0
 15 17  1  6  0  0  0
 15 19  1  0  0  0  0
 16 18  1  1  0  0  0
 16 20  1  0  0  0  0
 19 21  1  0  0  0  0
 20 22  1  0  0  0  0
 21 32  1  1  0  0  0
 22 42  1  6  0  0  0
 23 24  2  0  0  0  0
 23 28  1  0  0  0  0
 24 25  1  0  0  0  0
 25 26  2  0  0  0  0
 26 27  1  0  0  0  0
 26 32  1  0  0  0  0
 27 28  2  0  0  0  0
 27 30  1  0  0  0  0
 28 29  1  0  0  0  0
 30 31  2  0  0  0  0
 31 32  1  0  0  0  0
 33 34  2  0  0  0  0
 33 38  1  0  0  0  0
 34 35  1  0  0  0  0
 35 36  2  0  0  0  0
 36 37  1  0  0  0  0
 36 42  1  0  0  0  0
 37 38  2  0  0  0  0
 37 40  1  0  0  0  0
 38 39  1  0  0  0  0
 40 41  2  0  0  0  0
 41 42  1  0  0  0  0
M  CHG  2   3  -1   4  -1
M  END
>  <CHROM.1>
64.00452902,43.83587904,8.34581249,-33.41034014,-14.35916695,0.18511485,0.04165706
-0.01679969

>  <Name>
ligand

>  <RI>
0

>  <Rbt.Current_Directory>
/home/itssahil/PROJECTS/Mol_Feturizer/New_Systems/rnas/4QLN

>  <Rbt.Executable>
rbdock ($Id: //depot/dev/client3/rdock/2013.1/src/exe/rbdock.cxx#4 $)

>  <Rbt.Library>
libRbt.so (2013.1, Build901 2013/11/27)

>  <Rbt.Parameter_File>
/export/apps/rDock/src/rDock_2013.1_src/data/scripts/dock_solv.prm

>  <Rbt.Receptor>
prm/pocket_docking_8.prm

>  <SCORE>
-13.2428

>  <SCORE.INTER>
-12.6026

>  <SCORE.INTER.CONST>
1

>  <SCORE.INTER.POLAR>
0

>  <SCORE.INTER.ROT>
2

>  <SCORE.INTER.SOLV>
22.8297

>  <SCORE.INTER.VDW>
-20.945

>  <SCORE.INTER.norm>
-0.300063

>  <SCORE.INTRA>
-0.640182

>  <SCORE.INTRA.DIHEDRAL>
-0.00036001

>  <SCORE.INTRA.DIHEDRAL.0>
2.39985

>  <SCORE.INTRA.POLAR>
0

>  <SCORE.INTRA.POLAR.0>
0

>  <SCORE.INTRA.REPUL>
0

>  <SCORE.INTRA.REPUL.0>
0

>  <SCORE.INTRA.SOLV>
0.99607

>  <SCORE.INTRA.SOLV.lig_0>
-110.958

>  <SCORE.INTRA.VDW>
-1.13804

>  <SCORE.INTRA.VDW.0>
-2.34644

>  <SCORE.INTRA.norm>
-0.0152424

>  <SCORE.RESTR>
0

>  <SCORE.RESTR.CAVITY>
0

>  <SCORE.RESTR.norm>
0

>  <SCORE.SYSTEM>
0

>  <SCORE.SYSTEM.CONST>
0

>  <SCORE.SYSTEM.DIHEDRAL>
0

>  <SCORE.SYSTEM.SOLV>
0

>  <SCORE.SYSTEM.norm>
0

>  <SCORE.heavy>
42

>  <SCORE.norm>
-0.315305

>  <RMSD>
6.383

$$$$
ligand
 OpenBabel11021811513D
libRbt.so/2013.1/901 2013/11/27
 42 48  0  0  0  0  0  0  0  0999 V2000
    3.9289  -34.7560  -16.8943 P   0  0  2  0  0  0  0  0  0  0  0  0
    6.0684  -31.9733  -13.2620 P   0  0  1  0  0  0  0  0  0  0  0  0
    2.7014  -34.2192  -17.5928 O   0  5  0  0  0  0  0  0  0  0  0  0
    6.7290  -33.3134  -13.0423 O   0  5  0  0  0  0  0  0  0  0  0  0
    4.2945  -36.2148  -17.0292 O   0  0  0  0  0  0  0  0  0  0  0  0
    6.6104  -30.7437  -12.5738 O   0  0  0  0  0  0  0  0  0  0  0  0
    2.5338  -34.3833  -14.6872 C   0  0  0  0  0  0  0  0  0  0  0  0
    7.2310  -31.6168  -15.6018 C   0  0  0  0  0  0  0  0  0  0  0  0
    3.8085  -34.4092  -15.3271 O   0  0  0  0  0  0  0  0  0  0  0  0
    6.0243  -31.6867  -14.8458 O   0  0  0  0  0  0  0  0  0  0  0  0
    2.5591  -33.3735  -13.5460 C   0  0  1  0  0  0  0  0  0  0  0  0
    7.1127  -32.5032  -16.8352 C   0  0  1  0  0  0  0  0  0  0  0  0
    1.5380  -33.6930  -12.5968 O   0  0  0  0  0  0  0  0  0  0  0  0
    8.4165  -32.8720  -17.2911 O   0  0  0  0  0  0  0  0  0  0  0  0
    3.8933  -33.3966  -12.8196 C   0  0  1  0  0  0  0  0  0  0  0  0
    6.3503  -33.7815  -16.5251 C   0  0  1  0  0  0  0  0  0  0  0  0
    4.5085  -32.1137  -12.8866 O   0  0  0  0  0  0  0  0  0  0  0  0
    5.1950  -33.8743  -17.3532 O   0  0  0  0  0  0  0  0  0  0  0  0
    3.5901  -33.7530  -11.3761 C   0  0  0  0  0  0  0  0  0  0  0  0
    7.2964  -34.9288  -16.8222 C   0  0  0  0  0  0  0  0  0  0  0  0
    2.0814  -33.9319  -11.2957 C   0  0  2  0  0  0  0  0  0  0  0  0
    8.5925  -34.2908  -17.3016 C   0  0  2  0  0  0  0  0  0  0  0  0
    2.8021  -39.0557  -12.1930 N   0  0  0  0  0  0  0  0  0  0  0  0
    3.2917  -37.9837  -12.8429 C   0  0  0  0  0  0  0  0  0  0  0  0
    3.0189  -36.7117  -12.4983 N   0  0  0  0  0  0  0  0  0  0  0  0
    2.2128  -36.4343  -11.4456 C   0  0  0  0  0  0  0  0  0  0  0  0
    1.6381  -37.5539  -10.6834 C   0  0  0  0  0  0  0  0  0  0  0  0
    1.9844  -38.9260  -11.1244 C   0  0  0  0  0  0  0  0  0  0  0  0
    1.4986  -40.0130  -10.4779 N   0  0  0  0  0  0  0  0  0  0  0  0
    0.8883  -37.0089   -9.7071 N   0  0  0  0  0  0  0  0  0  0  0  0
    0.9742  -35.6598   -9.8322 C   0  0  0  0  0  0  0  0  0  0  0  0
    1.7638  -35.3171  -10.8682 N   0  0  0  0  0  0  0  0  0  0  0  0
   10.8981  -33.4573  -12.6581 N   0  0  0  0  0  0  0  0  0  0  0  0
    9.8086  -32.8832  -13.2012 C   0  0  0  0  0  0  0  0  0  0  0  0
    9.3246  -33.1988  -14.4161 N   0  0  0  0  0  0  0  0  0  0  0  0
    9.9278  -34.1412  -15.1803 C   0  0  0  0  0  0  0  0  0  0  0  0
   11.1254  -34.8150  -14.6552 C   0  0  0  0  0  0  0  0  0  0  0  0
   11.5966  -34.4122  -13.3091 C   0  0  0  0  0  0  0  0  0  0  0  0
   12.6921  -34.9835  -12.7509 N   0  0  0  0  0  0  0  0  0  0  0  0
   11.5178  -35.6912  -15.5992 N   0  0  0  0  0  0  0  0  0  0  0  0
   10.6484  -35.5872  -16.6372 C   0  0  0  0  0  0  0  0  0  0  0  0
    9.7015  -34.6640  -16.3878 N   0  0  0  0  0  0  0  0  0  0  0  0
  1  3  1  6  0  0  0
  1  5  2  0  0  0  0
  1  9  1  0  0  0  0
  1 18  1  0  0  0  0
  2  4  1  1  0  0  0
  2  6  2  0  0  0  0
  2 10  1  0  0  0  0
  2 17  1  0  0  0  0
  7  9  1  0  0  0  0
  8 10  1  0  0  0  0
 11  7  1  6  0  0  0
 11 13  1  0  0  0  0
 11 15  1  0  0  0  0
 12  8  1  1  0  0  0
 12 14  1  0  0  0  0
 12 16  1  0  0  0  0
 13 21  1  0  0  0  0
 14 22  1  0  0  0  0
 15 17  1  1  0  0  0
 15 19  1  0  0  0  0
 16 18  1  6  0  0  0
 16 20  1  0  0  0  0
 19 21  1  0  0  0  0
 20 22  1  0  0  0  0
 21 32  1  6  0  0  0
 22 42  1  1  0  0  0
 23 24  2  0  0  0  0
 23 28  1  0  0  0  0
 24 25  1  0  0  0  0
 25 26  2  0  0  0  0
 26 27  1  0  0  0  0
 26 32  1  0  0  0  0
 27 28  2  0  0  0  0
 27 30  1  0  0  0  0
 28 29  1  0  0  0  0
 30 31  2  0  0  0  0
 31 32  1  0  0  0  0
 33 34  2  0  0  0  0
 33 38  1  0  0  0  0
 34 35  1  0  0  0  0
 35 36  2  0  0  0  0
 36 37  1  0  0  0  0
 36 42  1  0  0  0  0
 37 38  2  0  0  0  0
 37 40  1  0  0  0  0
 38 39  1  0  0  0  0
 40 41  2  0  0  0  0
 41 42  1  0  0  0  0
M  CHG  2   3  -1   4  -1
M  END
>  <CHROM.1>
65.01597188,41.57572142,5.60057559,-34.48586954,-14.03100265,2.62889901,0.08280590
2.05873293

>  <Name>
ligand

>  <RI>
0

>  <Rbt.Current_Directory>
/home/itssahil/PROJECTS/Mol_Feturizer/New_Systems/rnas/4QLN

>  <Rbt.Executable>
rbdock ($Id: //depot/dev/client3/rdock/2013.1/src/exe/rbdock.cxx#4 $)

>  <Rbt.Library>
libRbt.so (2013.1, Build901 2013/11/27)

>  <Rbt.Parameter_File>
/export/apps/rDock/src/rDock_2013.1_src/data/scripts/dock_solv.prm

>  <Rbt.Receptor>
prm/pocket_docking_5.prm

>  <SCORE>
-10.5769

>  <SCORE.INTER>
-10.3671

>  <SCORE.INTER.CONST>
1

>  <SCORE.INTER.POLAR>
0

>  <SCORE.INTER.ROT>
2

>  <SCORE.INTER.SOLV>
15.6261

>  <SCORE.INTER.VDW>
-17.0534

>  <SCORE.INTER.norm>
-0.246835

>  <SCORE.INTRA>
-0.632432

>  <SCORE.INTRA.DIHEDRAL>
-0.000401434

>  <SCORE.INTRA.DIHEDRAL.0>
2.39985

>  <SCORE.INTRA.POLAR>
0

>  <SCORE.INTRA.POLAR.0>
0

>  <SCORE.INTRA.REPUL>
0

>  <SCORE.INTRA.REPUL.0>
0

>  <SCORE.INTRA.SOLV>
0.920867

>  <SCORE.INTRA.SOLV.lig_0>
-110.958

>  <SCORE.INTRA.VDW>
-1.09266

>  <SCORE.INTRA.VDW.0>
-2.34644

>  <SCORE.INTRA.norm>
-0.0150579

>  <SCORE.RESTR>
0.42266

>  <SCORE.RESTR.CAVITY>
0.42266

>  <SCORE.RESTR.norm>
0.0100633

>  <SCORE.SYSTEM>
0

>  <SCORE.SYSTEM.CONST>
0

>  <SCORE.SYSTEM.DIHEDRAL>
0

>  <SCORE.SYSTEM.SOLV>
0

>  <SCORE.SYSTEM.norm>
0

>  <SCORE.heavy>
42

>  <SCORE.norm>
-0.25183

>  <RMSD>
6.385

$$$$
ligand
 OpenBabel11021811513D
libRbt.so/2013.1/901 2013/11/27
 42 48  0  0  0  0  0  0  0  0999 V2000
    4.0030  -34.7107  -16.6122 P   0  0  2  0  0  0  0  0  0  0  0  0
    6.2783  -31.9657  -13.0342 P   0  0  1  0  0  0  0  0  0  0  0  0
    2.7043  -34.2075  -17.1980 O   0  5  0  0  0  0  0  0  0  0  0  0
    7.0127  -33.2800  -12.9171 O   0  5  0  0  0  0  0  0  0  0  0  0
    4.4226  -36.1444  -16.8320 O   0  0  0  0  0  0  0  0  0  0  0  0
    6.8140  -30.7380  -12.3377 O   0  0  0  0  0  0  0  0  0  0  0  0
    2.7595  -34.4869  -14.2969 C   0  0  0  0  0  0  0  0  0  0  0  0
    7.2475  -31.4677  -15.4355 C   0  0  0  0  0  0  0  0  0  0  0  0
    3.9833  -34.4284  -15.0277 O   0  0  0  0  0  0  0  0  0  0  0  0
    6.1044  -31.6230  -14.5978 O   0  0  0  0  0  0  0  0  0  0  0  0
    2.8239  -33.5200  -13.1206 C   0  0  1  0  0  0  0  0  0  0  0  0
    7.0782  -32.3124  -16.6920 C   0  0  1  0  0  0  0  0  0  0  0  0
    1.8912  -33.9228  -12.1139 O   0  0  0  0  0  0  0  0  0  0  0  0
    8.3599  -32.6015  -17.2553 O   0  0  0  0  0  0  0  0  0  0  0  0
    4.2079  -33.5064  -12.4939 C   0  0  1  0  0  0  0  0  0  0  0  0
    6.3988  -33.6363  -16.3796 C   0  0  1  0  0  0  0  0  0  0  0  0
    4.7583  -32.1941  -12.5532 O   0  0  0  0  0  0  0  0  0  0  0  0
    5.1908  -33.7532  -17.1252 O   0  0  0  0  0  0  0  0  0  0  0  0
    4.0286  -33.9302  -11.0479 C   0  0  0  0  0  0  0  0  0  0  0  0
    7.3709  -34.7253  -16.7904 C   0  0  0  0  0  0  0  0  0  0  0  0
    2.5395  -34.1837  -10.8661 C   0  0  2  0  0  0  0  0  0  0  0  0
    8.5981  -34.0089  -17.3358 C   0  0  2  0  0  0  0  0  0  0  0  0
   -0.1200  -38.6134  -11.8058 N   0  0  0  0  0  0  0  0  0  0  0  0
   -0.1841  -37.4164  -12.4177 C   0  0  0  0  0  0  0  0  0  0  0  0
    0.5663  -36.3560  -12.0662 N   0  0  0  0  0  0  0  0  0  0  0  0
    1.4541  -36.4400  -11.0465 C   0  0  0  0  0  0  0  0  0  0  0  0
    1.5830  -37.7171  -10.3273 C   0  0  0  0  0  0  0  0  0  0  0  0
    0.7221  -38.8385  -10.7725 C   0  0  0  0  0  0  0  0  0  0  0  0
    0.7779  -40.0483  -10.1651 N   0  0  0  0  0  0  0  0  0  0  0  0
    2.5183  -37.5300   -9.3774 N   0  0  0  0  0  0  0  0  0  0  0  0
    2.9508  -36.2471   -9.4782 C   0  0  0  0  0  0  0  0  0  0  0  0
    2.3168  -35.5973  -10.4732 N   0  0  0  0  0  0  0  0  0  0  0  0
   11.2146  -33.2195  -12.8522 N   0  0  0  0  0  0  0  0  0  0  0  0
   10.0651  -32.6758  -13.2931 C   0  0  0  0  0  0  0  0  0  0  0  0
    9.5032  -32.9747  -14.4782 N   0  0  0  0  0  0  0  0  0  0  0  0
   10.0836  -33.8673  -15.3163 C   0  0  0  0  0  0  0  0  0  0  0  0
   11.3435  -34.5055  -14.9048 C   0  0  0  0  0  0  0  0  0  0  0  0
   11.8992  -34.1240  -13.5850 C   0  0  0  0  0  0  0  0  0  0  0  0
   13.0558  -34.6652  -13.1294 N   0  0  0  0  0  0  0  0  0  0  0  0
   11.6976  -35.3354  -15.9042 N   0  0  0  0  0  0  0  0  0  0  0  0
   10.7484  -35.2369  -16.8703 C   0  0  0  0  0  0  0  0  0  0  0  0
    9.7873  -34.3624  -16.5203 N   0  0  0  0  0  0  0  0  0  0  0  0
  1  3  1  6  0  0  0
  1  5  2  0  0  0  0
  1  9  1  0  0  0  0
  1 18  1  0  0  0  0
  2  4  1  1  0  0  0
  2  6  2  0  0  0  0
  2 10  1  0  0  0  0
  2 17  1  0  0  0  0
  7  9  1  0  0  0  0
  8 10  1  0  0  0  0
 11  7  1  6  0  0  0
 11 13  1  0  0  0  0
 11 15  1  0  0  0  0
 12  8  1  1  0  0  0
 12 14  1  0  0  0  0
 12 16  1  0  0  0  0
 13 21  1  0  0  0  0
 14 22  1  0  0  0  0
 15 17  1  1  0  0  0
 15 19  1  0  0  0  0
 16 18  1  6  0  0  0
 16 20  1  0  0  0  0
 19 21  1  0  0  0  0
 20 22  1  0  0  0  0
 21 32  1  6  0  0  0
 22 42  1  1  0  0  0
 23 24  2  0  0  0  0
 23 28  1  0  0  0  0
 24 25  1  0  0  0  0
 25 26  2  0  0  0  0
 26 27  1  0  0  0  0
 26 32  1  0  0  0  0
 27 28  2  0  0  0  0
 27 30  1  0  0  0  0
 28 29  1  0  0  0  0
 30 31  2  0  0  0  0
 31 32  1  0  0  0  0
 33 34  2  0  0  0  0
 33 38  1  0  0  0  0
 34 35  1  0  0  0  0
 35 36  2  0  0  0  0
 36 37  1  0  0  0  0
 36 42  1  0  0  0  0
 37 38  2  0  0  0  0
 37 40  1  0  0  0  0
 38 39  1  0  0  0  0
 40 41  2  0  0  0  0
 41 42  1  0  0  0  0
M  CHG  2   3  -1   4  -1
M  END
>  <CHROM.1>
-11.34298017,41.05703632,5.57820141,-34.41516725,-13.85184406,2.65978549
0.25637380,1.81226902

>  <Name>
ligand

>  <RI>
0

>  <Rbt.Current_Directory>
/home/itssahil/PROJECTS/Mol_Feturizer/New_Systems/rnas/4QLN

>  <Rbt.Executable>
rbdock ($Id: //depot/dev/client3/rdock/2013.1/src/exe/rbdock.cxx#4 $)

>  <Rbt.Library>
libRbt.so (2013.1, Build901 2013/11/27)

>  <Rbt.Parameter_File>
/export/apps/rDock/src/rDock_2013.1_src/data/scripts/dock_solv.prm

>  <Rbt.Receptor>
prm/pocket_docking_8.prm

>  <SCORE>
-12.1235

>  <SCORE.INTER>
-12.2963

>  <SCORE.INTER.CONST>
1

>  <SCORE.INTER.POLAR>
0

>  <SCORE.INTER.ROT>
2

>  <SCORE.INTER.SOLV>
14.0982

>  <SCORE.INTER.VDW>
-17.8303

>  <SCORE.INTER.norm>
-0.292769

>  <SCORE.INTRA>
0.172844

>  <SCORE.INTRA.DIHEDRAL>
-0.000334251

>  <SCORE.INTRA.DIHEDRAL.0>
2.39985

>  <SCORE.INTRA.POLAR>
0

>  <SCORE.INTRA.POLAR.0>
0

>  <SCORE.INTRA.REPUL>
0

>  <SCORE.INTRA.REPUL.0>
0

>  <SCORE.INTRA.SOLV>
0.922907

>  <SCORE.INTRA.SOLV.lig_0>
-110.958

>  <SCORE.INTRA.VDW>
-0.288443

>  <SCORE.INTRA.VDW.0>
-2.34644

>  <SCORE.INTRA.norm>
0.00411532

>  <SCORE.RESTR>
0

>  <SCORE.RESTR.CAVITY>
0

>  <SCORE.RESTR.norm>
0

>  <SCORE.SYSTEM>
0

>  <SCORE.SYSTEM.CONST>
0

>  <SCORE.SYSTEM.DIHEDRAL>
0

>  <SCORE.SYSTEM.SOLV>
0

>  <SCORE.SYSTEM.norm>
0

>  <SCORE.heavy>
42

>  <SCORE.norm>
-0.288654

>  <RMSD>
6.395

$$$$
ligand
 OpenBabel11021811513D
libRbt.so/2013.1/901 2013/11/27
 42 48  0  0  0  0  0  0  0  0999 V2000
    4.0059  -34.7072  -16.6179 P   0  0  2  0  0  0  0  0  0  0  0  0
    6.2587  -31.9628  -13.0252 P   0  0  1  0  0  0  0  0  0  0  0  0
    2.7146  -34.2004  -17.2168 O   0  5  0  0  0  0  0  0  0  0  0  0
    6.9869  -33.2796  -12.8984 O   0  5  0  0  0  0  0  0  0  0  0  0
    4.4221  -36.1430  -16.8306 O   0  0  0  0  0  0  0  0  0  0  0  0
    6.7926  -30.7356  -12.3264 O   0  0  0  0  0  0  0  0  0  0  0  0
    2.7421  -34.4735  -14.3146 C   0  0  0  0  0  0  0  0  0  0  0  0
    7.2518  -31.4738  -15.4184 C   0  0  0  0  0  0  0  0  0  0  0  0
    3.9727  -34.4212  -15.0342 O   0  0  0  0  0  0  0  0  0  0  0  0
    6.1004  -31.6229  -14.5910 O   0  0  0  0  0  0  0  0  0  0  0  0
    2.7993  -33.5042  -13.1399 C   0  0  1  0  0  0  0  0  0  0  0  0
    7.0908  -32.3207  -16.6746 C   0  0  1  0  0  0  0  0  0  0  0  0
    1.8559  -33.9012  -12.1410 O   0  0  0  0  0  0  0  0  0  0  0  0
    8.3766  -32.6159  -17.2255 O   0  0  0  0  0  0  0  0  0  0  0  0
    4.1775  -33.4945  -12.5005 C   0  0  1  0  0  0  0  0  0  0  0  0
    6.4036  -33.6413  -16.3655 C   0  0  1  0  0  0  0  0  0  0  0  0
    4.7334  -32.1843  -12.5576 O   0  0  0  0  0  0  0  0  0  0  0  0
    5.2020  -33.7553  -17.1221 O   0  0  0  0  0  0  0  0  0  0  0  0
    3.9833  -33.9143  -11.0553 C   0  0  0  0  0  0  0  0  0  0  0  0
    7.3753  -34.7349  -16.7649 C   0  0  0  0  0  0  0  0  0  0  0  0
    2.4916  -34.1617  -10.8867 C   0  0  2  0  0  0  0  0  0  0  0  0
    8.6101  -34.0244  -17.3006 C   0  0  2  0  0  0  0  0  0  0  0  0
   -0.2693  -38.5439  -11.7543 N   0  0  0  0  0  0  0  0  0  0  0  0
   -0.3351  -37.3430  -12.3582 C   0  0  0  0  0  0  0  0  0  0  0  0
    0.4438  -36.2964  -12.0279 N   0  0  0  0  0  0  0  0  0  0  0  0
    1.3647  -36.3996  -11.0398 C   0  0  0  0  0  0  0  0  0  0  0  0
    1.4976  -37.6822  -10.3313 C   0  0  0  0  0  0  0  0  0  0  0  0
    0.6041  -38.7876  -10.7516 C   0  0  0  0  0  0  0  0  0  0  0  0
    0.6614  -40.0012  -10.1519 N   0  0  0  0  0  0  0  0  0  0  0  0
    2.4680  -37.5148   -9.4132 N   0  0  0  0  0  0  0  0  0  0  0  0
    2.9172  -36.2384   -9.5231 C   0  0  0  0  0  0  0  0  0  0  0  0
    2.2599  -35.5736  -10.4927 N   0  0  0  0  0  0  0  0  0  0  0  0
   11.1905  -33.2318  -12.7966 N   0  0  0  0  0  0  0  0  0  0  0  0
   10.0474  -32.6843  -13.2496 C   0  0  0  0  0  0  0  0  0  0  0  0
    9.4946  -32.9846  -14.4386 N   0  0  0  0  0  0  0  0  0  0  0  0
   10.0783  -33.8827  -15.2685 C   0  0  0  0  0  0  0  0  0  0  0  0
   11.3316  -34.5253  -14.8437 C   0  0  0  0  0  0  0  0  0  0  0  0
   11.8773  -34.1420  -13.5203 C   0  0  0  0  0  0  0  0  0  0  0  0
   13.0273  -34.6869  -13.0527 N   0  0  0  0  0  0  0  0  0  0  0  0
   11.6907  -35.3603  -15.8371 N   0  0  0  0  0  0  0  0  0  0  0  0
   10.7506  -35.2607  -16.8119 C   0  0  0  0  0  0  0  0  0  0  0  0
    9.7904  -34.3806  -16.4735 N   0  0  0  0  0  0  0  0  0  0  0  0
  1  3  1  6  0  0  0
  1  5  2  0  0  0  0
  1  9  1  0  0  0  0
  1 18  1  0  0  0  0
  2  4  1  1  0  0  0
  2  6  2  0  0  0  0
  2 10  1  0  0  0  0
  2 17  1  0  0  0  0
  7  9  1  0  0  0  0
  8 10  1  0  0  0  0
 11  7  1  6  0  0  0
 11 13  1  0  0  0  0
 11 15  1  0  0  0  0
 12  8  1  1  0  0  0
 12 14  1  0  0  0  0
 12 16  1  0  0  0  0
 13 21  1  0  0  0  0
 14 22  1  0  0  0  0
 15 17  1  1  0  0  0
 15 19  1  0  0  0  0
 16 18  1  6  0  0  0
 16 20  1  0  0  0  0
 19 21  1  0  0  0  0
 20 22  1  0  0  0  0
 21 32  1  6  0  0  0
 22 42  1  1  0  0  0
 23 24  2  0  0  0  0
 23 28  1  0  0  0  0
 24 25  1  0  0  0  0
 25 26  2  0  0  0  0
 26 27  1  0  0  0  0
 26 32  1  0  0  0  0
 27 28  2  0  0  0  0
 27 30  1  0  0  0  0
 28 29  1  0  0  0  0
 30 31  2  0  0  0  0
 31 32  1  0  0  0  0
 33 34  2  0  0  0  0
 33 38  1  0  0  0  0
 34 35  1  0  0  0  0
 35 36  2  0  0  0  0
 36 37  1  0  0  0  0
 36 42  1  0  0  0  0
 37 38  2  0  0  0  0
 37 40  1  0  0  0  0
 38 39  1  0  0  0  0
 40 41  2  0  0  0  0
 41 42  1  0  0  0  0
M  CHG  2   3  -1   4  -1
M  END
>  <CHROM.1>
-13.96771621,40.97423744,5.54928541,-34.40793257,-13.83678850,2.66792626
0.25046362,1.81102115

>  <Name>
ligand

>  <RI>
0

>  <Rbt.Current_Directory>
/home/itssahil/PROJECTS/Mol_Feturizer/New_Systems/rnas/4QLN

>  <Rbt.Executable>
rbdock ($Id: //depot/dev/client3/rdock/2013.1/src/exe/rbdock.cxx#4 $)

>  <Rbt.Library>
libRbt.so (2013.1, Build901 2013/11/27)

>  <Rbt.Parameter_File>
/export/apps/rDock/src/rDock_2013.1_src/data/scripts/dock_solv.prm

>  <Rbt.Receptor>
prm/pocket_docking_6.prm

>  <SCORE>
-12.1409

>  <SCORE.INTER>
-12.3642

>  <SCORE.INTER.CONST>
1

>  <SCORE.INTER.POLAR>
0

>  <SCORE.INTER.ROT>
2

>  <SCORE.INTER.SOLV>
14.2941

>  <SCORE.INTER.VDW>
-17.9408

>  <SCORE.INTER.norm>
-0.294385

>  <SCORE.INTRA>
0.223237

>  <SCORE.INTRA.DIHEDRAL>
-0.00030771

>  <SCORE.INTRA.DIHEDRAL.0>
2.39985

>  <SCORE.INTRA.POLAR>
0

>  <SCORE.INTRA.POLAR.0>
0

>  <SCORE.INTRA.REPUL>
0

>  <SCORE.INTRA.REPUL.0>
0

>  <SCORE.INTRA.SOLV>
0.918006

>  <SCORE.INTRA.SOLV.lig_0>
-110.958

>  <SCORE.INTRA.VDW>
-0.235612

>  <SCORE.INTRA.VDW.0>
-2.34644

>  <SCORE.INTRA.norm>
0.00531516

>  <SCORE.RESTR>
0

>  <SCORE.RESTR.CAVITY>
0

>  <SCORE.RESTR.norm>
0

>  <SCORE.SYSTEM>
0

>  <SCORE.SYSTEM.CONST>
0

>  <SCORE.SYSTEM.DIHEDRAL>
0

>  <SCORE.SYSTEM.SOLV>
0

>  <SCORE.SYSTEM.norm>
0

>  <SCORE.heavy>
42

>  <SCORE.norm>
-0.28907

>  <RMSD>
6.396

$$$$
ligand
 OpenBabel11021811513D
libRbt.so/2013.1/901 2013/11/27
 42 48  0  0  0  0  0  0  0  0999 V2000
    5.0514  -35.9917  -17.5733 P   0  0  2  0  0  0  0  0  0  0  0  0
    6.7200  -32.0949  -14.8265 P   0  0  1  0  0  0  0  0  0  0  0  0
    4.0504  -35.7289  -18.6741 O   0  5  0  0  0  0  0  0  0  0  0  0
    7.1763  -33.2679  -13.9922 O   0  5  0  0  0  0  0  0  0  0  0  0
    5.2773  -37.4015  -17.0820 O   0  0  0  0  0  0  0  0  0  0  0  0
    7.2447  -30.7103  -14.5316 O   0  0  0  0  0  0  0  0  0  0  0  0
    3.2971  -34.7746  -16.0247 C   0  0  0  0  0  0  0  0  0  0  0  0
    8.3521  -32.6818  -16.8128 C   0  0  0  0  0  0  0  0  0  0  0  0
    4.6625  -35.0737  -16.3096 O   0  0  0  0  0  0  0  0  0  0  0  0
    7.0197  -32.4291  -16.3728 O   0  0  0  0  0  0  0  0  0  0  0  0
    3.2055  -33.4085  -15.3553 C   0  0  1  0  0  0  0  0  0  0  0  0
    8.3845  -33.9664  -17.6312 C   0  0  1  0  0  0  0  0  0  0  0  0
    1.9893  -33.3182  -14.6083 O   0  0  0  0  0  0  0  0  0  0  0  0
    9.7052  -34.5134  -17.6183 O   0  0  0  0  0  0  0  0  0  0  0  0
    4.3602  -33.1883  -14.3926 C   0  0  1  0  0  0  0  0  0  0  0  0
    7.4430  -35.0118  -17.0548 C   0  0  1  0  0  0  0  0  0  0  0  0
    5.1108  -32.0427  -14.7837 O   0  0  0  0  0  0  0  0  0  0  0  0
    6.4703  -35.3822  -18.0273 O   0  0  0  0  0  0  0  0  0  0  0  0
    3.7421  -32.9630  -13.0253 C   0  0  0  0  0  0  0  0  0  0  0  0
    8.3002  -36.2097  -16.6943 C   0  0  0  0  0  0  0  0  0  0  0  0
    2.2367  -33.0597  -13.2237 C   0  0  2  0  0  0  0  0  0  0  0  0
    9.7262  -35.8342  -17.0713 C   0  0  2  0  0  0  0  0  0  0  0  0
    3.1709  -36.5129   -9.3791 N   0  0  0  0  0  0  0  0  0  0  0  0
    3.9693  -35.5685   -9.9101 C   0  0  0  0  0  0  0  0  0  0  0  0
    3.5926  -34.7440  -10.9048 N   0  0  0  0  0  0  0  0  0  0  0  0
    2.3508  -34.8226  -11.4403 C   0  0  0  0  0  0  0  0  0  0  0  0
    1.4180  -35.8307  -10.9126 C   0  0  0  0  0  0  0  0  0  0  0  0
    1.9063  -36.7024   -9.8177 C   0  0  0  0  0  0  0  0  0  0  0  0
    1.1118  -37.6560   -9.2744 N   0  0  0  0  0  0  0  0  0  0  0  0
    0.2736  -35.6966  -11.6088 N   0  0  0  0  0  0  0  0  0  0  0  0
    0.4562  -34.6920  -12.5036 C   0  0  0  0  0  0  0  0  0  0  0  0
    1.6942  -34.1708  -12.4031 N   0  0  0  0  0  0  0  0  0  0  0  0
   11.9654  -33.0311  -13.2372 N   0  0  0  0  0  0  0  0  0  0  0  0
   11.1779  -32.6357  -14.2545 C   0  0  0  0  0  0  0  0  0  0  0  0
   10.6686  -33.4741  -15.1749 N   0  0  0  0  0  0  0  0  0  0  0  0
   10.9299  -34.8026  -15.1240 C   0  0  0  0  0  0  0  0  0  0  0  0
   11.7837  -35.3128  -14.0401 C   0  0  0  0  0  0  0  0  0  0  0  0
   12.3062  -34.3265  -13.0652 C   0  0  0  0  0  0  0  0  0  0  0  0
   13.0997  -34.7124  -12.0358 N   0  0  0  0  0  0  0  0  0  0  0  0
   11.8800  -36.6434  -14.2213 N   0  0  0  0  0  0  0  0  0  0  0  0
   11.1526  -36.9574  -15.3242 C   0  0  0  0  0  0  0  0  0  0  0  0
   10.5869  -35.8612  -15.8619 N   0  0  0  0  0  0  0  0  0  0  0  0
  1  3  1  6  0  0  0
  1  5  2  0  0  0  0
  1  9  1  0  0  0  0
  1 18  1  0  0  0  0
  2  4  1  1  0  0  0
  2  6  2  0  0  0  0
  2 10  1  0  0  0  0
  2 17  1  0  0  0  0
  7  9  1  0  0  0  0
  8 10  1  0  0  0  0
 11  7  1  1  0  0  0
 11 13  1  0  0  0  0
 11 15  1  0  0  0  0
 12  8  1  1  0  0  0
 12 14  1  0  0  0  0
 12 16  1  0  0  0  0
 13 21  1  0  0  0  0
 14 22  1  0  0  0  0
 15 17  1  6  0  0  0
 15 19  1  0  0  0  0
 16 18  1  6  0  0  0
 16 20  1  0  0  0  0
 19 21  1  0  0  0  0
 20 22  1  0  0  0  0
 21 32  1  1  0  0  0
 22 42  1  1  0  0  0
 23 24  2  0  0  0  0
 23 28  1  0  0  0  0
 24 25  1  0  0  0  0
 25 26  2  0  0  0  0
 26 27  1  0  0  0  0
 26 32  1  0  0  0  0
 27 28  2  0  0  0  0
 27 30  1  0  0  0  0
 28 29  1  0  0  0  0
 30 31  2  0  0  0  0
 31 32  1  0  0  0  0
 33 34  2  0  0  0  0
 33 38  1  0  0  0  0
 34 35  1  0  0  0  0
 35 36  2  0  0  0  0
 36 37  1  0  0  0  0
 36 42  1  0  0  0  0
 37 38  2  0  0  0  0
 37 40  1  0  0  0  0
 38 39  1  0  0  0  0
 40 41  2  0  0  0  0
 41 42  1  0  0  0  0
M  CHG  2   3  -1   4  -1
M  END
>  <CHROM.1>
130.68917063,20.74810861,6.26230775,-34.53631736,-14.54157126,2.76654417
0.04263224,1.63521261

>  <Name>
ligand

>  <RI>
0

>  <Rbt.Current_Directory>
/home/itssahil/PROJECTS/Mol_Feturizer/New_Systems/rnas/4QLN

>  <Rbt.Executable>
rbdock ($Id: //depot/dev/client3/rdock/2013.1/src/exe/rbdock.cxx#4 $)

>  <Rbt.Library>
libRbt.so (2013.1, Build901 2013/11/27)

>  <Rbt.Parameter_File>
/export/apps/rDock/src/rDock_2013.1_src/data/scripts/dock_solv.prm

>  <Rbt.Receptor>
prm/pocket_docking_7.prm

>  <SCORE>
-11.0663

>  <SCORE.INTER>
-12.695

>  <SCORE.INTER.CONST>
1

>  <SCORE.INTER.POLAR>
0

>  <SCORE.INTER.ROT>
2

>  <SCORE.INTER.SOLV>
20.5898

>  <SCORE.INTER.VDW>
-20.2599

>  <SCORE.INTER.norm>
-0.302262

>  <SCORE.INTRA>
1.62875

>  <SCORE.INTRA.DIHEDRAL>
-0.00065512

>  <SCORE.INTRA.DIHEDRAL.0>
2.39985

>  <SCORE.INTRA.POLAR>
0

>  <SCORE.INTRA.POLAR.0>
0

>  <SCORE.INTRA.REPUL>
0

>  <SCORE.INTRA.REPUL.0>
0

>  <SCORE.INTRA.SOLV>
0.0582919

>  <SCORE.INTRA.SOLV.lig_0>
-110.958

>  <SCORE.INTRA.VDW>
1.59993

>  <SCORE.INTRA.VDW.0>
-2.34644

>  <SCORE.INTRA.norm>
0.0387797

>  <SCORE.RESTR>
0

>  <SCORE.RESTR.CAVITY>
0

>  <SCORE.RESTR.norm>
0

>  <SCORE.SYSTEM>
0

>  <SCORE.SYSTEM.CONST>
0

>  <SCORE.SYSTEM.DIHEDRAL>
0

>  <SCORE.SYSTEM.SOLV>
0

>  <SCORE.SYSTEM.norm>
0

>  <SCORE.heavy>
42

>  <SCORE.norm>
-0.263482

>  <RMSD>
6.401

$$$$
ligand
 OpenBabel11021811513D
libRbt.so/2013.1/901 2013/11/27
 42 48  0  0  0  0  0  0  0  0999 V2000
    3.6542  -36.5721  -18.5574 P   0  0  2  0  0  0  0  0  0  0  0  0
    3.9248  -32.8967  -15.1031 P   0  0  1  0  0  0  0  0  0  0  0  0
    2.8228  -36.3433  -19.7982 O   0  5  0  0  0  0  0  0  0  0  0  0
    4.4802  -34.0723  -14.3351 O   0  5  0  0  0  0  0  0  0  0  0  0
    4.0993  -37.9691  -18.1965 O   0  0  0  0  0  0  0  0  0  0  0  0
    4.0718  -31.4988  -14.5521 O   0  0  0  0  0  0  0  0  0  0  0  0
    1.4361  -35.9765  -17.2604 C   0  0  0  0  0  0  0  0  0  0  0  0
    5.9608  -32.8383  -16.7778 C   0  0  0  0  0  0  0  0  0  0  0  0
    2.8619  -35.9547  -17.2997 O   0  0  0  0  0  0  0  0  0  0  0  0
    4.5505  -32.9225  -16.5865 O   0  0  0  0  0  0  0  0  0  0  0  0
    0.9315  -34.7750  -16.4702 C   0  0  1  0  0  0  0  0  0  0  0  0
    6.4160  -33.9494  -17.7156 C   0  0  1  0  0  0  0  0  0  0  0  0
   -0.3838  -35.0412  -15.9756 O   0  0  0  0  0  0  0  0  0  0  0  0
    7.8029  -34.2226  -17.5025 O   0  0  0  0  0  0  0  0  0  0  0  0
    1.8270  -34.4846  -15.2776 C   0  0  1  0  0  0  0  0  0  0  0  0
    5.6450  -35.2353  -17.4629 C   0  0  1  0  0  0  0  0  0  0  0  0
    2.3609  -33.1678  -15.3765 O   0  0  0  0  0  0  0  0  0  0  0  0
    4.9591  -35.6340  -18.6460 O   0  0  0  0  0  0  0  0  0  0  0  0
    0.9503  -34.5989  -14.0444 C   0  0  0  0  0  0  0  0  0  0  0  0
    6.6717  -36.2832  -17.0789 C   0  0  0  0  0  0  0  0  0  0  0  0
   -0.4398  -34.9565  -14.5490 C   0  0  2  0  0  0  0  0  0  0  0  0
    8.0221  -35.5821  -17.1180 C   0  0  2  0  0  0  0  0  0  0  0  0
    0.4232  -40.1354  -14.4363 N   0  0  0  0  0  0  0  0  0  0  0  0
    1.0530  -39.1656  -15.1248 C   0  0  0  0  0  0  0  0  0  0  0  0
    0.7202  -37.8634  -15.0562 N   0  0  0  0  0  0  0  0  0  0  0  0
   -0.2974  -37.4467  -14.2652 C   0  0  0  0  0  0  0  0  0  0  0  0
   -1.0354  -38.4482  -13.4796 C   0  0  0  0  0  0  0  0  0  0  0  0
   -0.6103  -39.8623  -13.6088 C   0  0  0  0  0  0  0  0  0  0  0  0
   -1.2358  -40.8474  -12.9203 N   0  0  0  0  0  0  0  0  0  0  0  0
   -1.9790  -37.7778  -12.7923 N   0  0  0  0  0  0  0  0  0  0  0  0
   -1.8573  -36.4632  -13.1090 C   0  0  0  0  0  0  0  0  0  0  0  0
   -0.8548  -36.2656  -13.9866 N   0  0  0  0  0  0  0  0  0  0  0  0
   12.4516  -35.0986  -14.3397 N   0  0  0  0  0  0  0  0  0  0  0  0
   12.2406  -34.9800  -15.6637 C   0  0  0  0  0  0  0  0  0  0  0  0
   11.0372  -35.1320  -16.2454 N   0  0  0  0  0  0  0  0  0  0  0  0
    9.9399  -35.4214  -15.5051 C   0  0  0  0  0  0  0  0  0  0  0  0
   10.0894  -35.5667  -14.0488 C   0  0  0  0  0  0  0  0  0  0  0  0
   11.4471  -35.3842  -13.4835 C   0  0  0  0  0  0  0  0  0  0  0  0
   11.6723  -35.5003  -12.1516 N   0  0  0  0  0  0  0  0  0  0  0  0
    8.8654  -35.8482  -13.5636 N   0  0  0  0  0  0  0  0  0  0  0  0
    8.0082  -35.8808  -14.6162 C   0  0  0  0  0  0  0  0  0  0  0  0
    8.6480  -35.6268  -15.7725 N   0  0  0  0  0  0  0  0  0  0  0  0
  1  3  1  6  0  0  0
  1  5  2  0  0  0  0
  1  9  1  0  0  0  0
  1 18  1  0  0  0  0
  2  4  1  1  0  0  0
  2  6  2  0  0  0  0
  2 10  1  0  0  0  0
  2 17  1  0  0  0  0
  7  9  1  0  0  0  0
  8 10  1  0  0  0  0
 11  7  1  1  0  0  0
 11 13  1  0  0  0  0
 11 15  1  0  0  0  0
 12  8  1  1  0  0  0
 12 14  1  0  0  0  0
 12 16  1  0  0  0  0
 13 21  1  0  0  0  0
 14 22  1  0  0  0  0
 15 17  1  6  0  0  0
 15 19  1  0  0  0  0
 16 18  1  6  0  0  0
 16 20  1  0  0  0  0
 19 21  1  0  0  0  0
 20 22  1  0  0  0  0
 21 32  1  1  0  0  0
 22 42  1  1  0  0  0
 23 24  2  0  0  0  0
 23 28  1  0  0  0  0
 24 25  1  0  0  0  0
 25 26  2  0  0  0  0
 26 27  1  0  0  0  0
 26 32  1  0  0  0  0
 27 28  2  0  0  0  0
 27 30  1  0  0  0  0
 28 29  1  0  0  0  0
 30 31  2  0  0  0  0
 31 32  1  0  0  0  0
 33 34  2  0  0  0  0
 33 38  1  0  0  0  0
 34 35  1  0  0  0  0
 35 36  2  0  0  0  0
 36 37  1  0  0  0  0
 36 42  1  0  0  0  0
 37 38  2  0  0  0  0
 37 40  1  0  0  0  0
 38 39  1  0  0  0  0
 40 41  2  0  0  0  0
 41 42  1  0  0  0  0
M  CHG  2   3  -1   4  -1
M  END
>  <CHROM.1>
51.70219605,-79.35372432,4.25761122,-35.68205857,-15.62039018,2.93806120
0.11178386,2.35306608

>  <Name>
ligand

>  <RI>
0

>  <Rbt.Current_Directory>
/home/itssahil/PROJECTS/Mol_Feturizer/New_Systems/rnas/4QLN

>  <Rbt.Executable>
rbdock ($Id: //depot/dev/client3/rdock/2013.1/src/exe/rbdock.cxx#4 $)

>  <Rbt.Library>
libRbt.so (2013.1, Build901 2013/11/27)

>  <Rbt.Parameter_File>
/export/apps/rDock/src/rDock_2013.1_src/data/scripts/dock_solv.prm

>  <Rbt.Receptor>
prm/pocket_docking_8.prm

>  <SCORE>
-13.4138

>  <SCORE.INTER>
-14.1874

>  <SCORE.INTER.CONST>
1

>  <SCORE.INTER.POLAR>
0

>  <SCORE.INTER.ROT>
2

>  <SCORE.INTER.SOLV>
29.701

>  <SCORE.INTER.VDW>
-24.292

>  <SCORE.INTER.norm>
-0.337796

>  <SCORE.INTRA>
0.773669

>  <SCORE.INTRA.DIHEDRAL>
-0.00059958

>  <SCORE.INTRA.DIHEDRAL.0>
2.39985

>  <SCORE.INTRA.POLAR>
0

>  <SCORE.INTRA.POLAR.0>
0

>  <SCORE.INTRA.REPUL>
0

>  <SCORE.INTRA.REPUL.0>
0

>  <SCORE.INTRA.SOLV>
-0.0317741

>  <SCORE.INTRA.SOLV.lig_0>
-110.958

>  <SCORE.INTRA.VDW>
0.789856

>  <SCORE.INTRA.VDW.0>
-2.34644

>  <SCORE.INTRA.norm>
0.0184207

>  <SCORE.RESTR>
0

>  <SCORE.RESTR.CAVITY>
0

>  <SCORE.RESTR.norm>
0

>  <SCORE.SYSTEM>
0

>  <SCORE.SYSTEM.CONST>
0

>  <SCORE.SYSTEM.DIHEDRAL>
0

>  <SCORE.SYSTEM.SOLV>
0

>  <SCORE.SYSTEM.norm>
0

>  <SCORE.heavy>
42

>  <SCORE.norm>
-0.319376

>  <RMSD>
6.402

$$$$
ligand
 OpenBabel11021811513D
libRbt.so/2013.1/901 2013/11/27
 42 48  0  0  0  0  0  0  0  0999 V2000
    5.0595  -36.0269  -17.5550 P   0  0  2  0  0  0  0  0  0  0  0  0
    6.7638  -32.0885  -14.8907 P   0  0  1  0  0  0  0  0  0  0  0  0
    4.0536  -35.7793  -18.6549 O   0  5  0  0  0  0  0  0  0  0  0  0
    7.2189  -33.2482  -14.0372 O   0  5  0  0  0  0  0  0  0  0  0  0
    5.2810  -37.4285  -17.0388 O   0  0  0  0  0  0  0  0  0  0  0  0
    7.2974  -30.7014  -14.6246 O   0  0  0  0  0  0  0  0  0  0  0  0
    3.3204  -34.7720  -16.0195 C   0  0  0  0  0  0  0  0  0  0  0  0
    8.3816  -32.7208  -16.8747 C   0  0  0  0  0  0  0  0  0  0  0  0
    4.6826  -35.0835  -16.3065 O   0  0  0  0  0  0  0  0  0  0  0  0
    7.0531  -32.4530  -16.4321 O   0  0  0  0  0  0  0  0  0  0  0  0
    3.2397  -33.3932  -15.3753 C   0  0  1  0  0  0  0  0  0  0  0  0
    8.4027  -34.0206  -17.6692 C   0  0  1  0  0  0  0  0  0  0  0  0
    2.0282  -33.2827  -14.6233 O   0  0  0  0  0  0  0  0  0  0  0  0
    9.7206  -34.5743  -17.6535 O   0  0  0  0  0  0  0  0  0  0  0  0
    4.4009  -33.1613  -14.4233 C   0  0  1  0  0  0  0  0  0  0  0  0
    7.4591  -35.0502  -17.0682 C   0  0  1  0  0  0  0  0  0  0  0  0
    5.1552  -32.0271  -14.8398 O   0  0  0  0  0  0  0  0  0  0  0  0
    6.4789  -35.4335  -18.0282 O   0  0  0  0  0  0  0  0  0  0  0  0
    3.7918  -32.9073  -13.0569 C   0  0  0  0  0  0  0  0  0  0  0  0
    8.3121  -36.2456  -16.6903 C   0  0  0  0  0  0  0  0  0  0  0  0
    2.2849  -32.9997  -13.2451 C   0  0  2  0  0  0  0  0  0  0  0  0
    9.7379  -35.8847  -17.0822 C   0  0  2  0  0  0  0  0  0  0  0  0
    3.2706  -36.4915   -9.4485 N   0  0  0  0  0  0  0  0  0  0  0  0
    4.0769  -35.5751  -10.0152 C   0  0  0  0  0  0  0  0  0  0  0  0
    3.6846  -34.7357  -10.9913 N   0  0  0  0  0  0  0  0  0  0  0  0
    2.4177  -34.7692  -11.4694 C   0  0  0  0  0  0  0  0  0  0  0  0
    1.4748  -35.7445  -10.8999 C   0  0  0  0  0  0  0  0  0  0  0  0
    1.9813  -36.6352   -9.8289 C   0  0  0  0  0  0  0  0  0  0  0  0
    1.1791  -37.5610   -9.2501 N   0  0  0  0  0  0  0  0  0  0  0  0
    0.3052  -35.5685  -11.5429 N   0  0  0  0  0  0  0  0  0  0  0  0
    0.4823  -34.5692  -12.4448 C   0  0  0  0  0  0  0  0  0  0  0  0
    1.7413  -34.0925  -12.4009 N   0  0  0  0  0  0  0  0  0  0  0  0
   11.7241  -33.0891  -13.1058 N   0  0  0  0  0  0  0  0  0  0  0  0
   10.8956  -32.7172  -14.0991 C   0  0  0  0  0  0  0  0  0  0  0  0
   10.4626  -33.5501  -15.0626 N   0  0  0  0  0  0  0  0  0  0  0  0
   10.8503  -34.8482  -15.0839 C   0  0  0  0  0  0  0  0  0  0  0  0
   11.7563  -35.3314  -14.0304 C   0  0  0  0  0  0  0  0  0  0  0  0
   12.1885  -34.3532  -13.0045 C   0  0  0  0  0  0  0  0  0  0  0  0
   13.0222  -34.7157  -11.9987 N   0  0  0  0  0  0  0  0  0  0  0  0
   11.9783  -36.6351  -14.2833 N   0  0  0  0  0  0  0  0  0  0  0  0
   11.2770  -36.9578  -15.4004 C   0  0  0  0  0  0  0  0  0  0  0  0
   10.6053  -35.8937  -15.8773 N   0  0  0  0  0  0  0  0  0  0  0  0
  1  3  1  6  0  0  0
  1  5  2  0  0  0  0
  1  9  1  0  0  0  0
  1 18  1  0  0  0  0
  2  4  1  1  0  0  0
  2  6  2  0  0  0  0
  2 10  1  0  0  0  0
  2 17  1  0  0  0  0
  7  9  1  0  0  0  0
  8 10  1  0  0  0  0
 11  7  1  1  0  0  0
 11 13  1  0  0  0  0
 11 15  1  0  0  0  0
 12  8  1  1  0  0  0
 12 14  1  0  0  0  0
 12 16  1  0  0  0  0
 13 21  1  0  0  0  0
 14 22  1  0  0  0  0
 15 17  1  6  0  0  0
 15 19  1  0  0  0  0
 16 18  1  6  0  0  0
 16 20  1  0  0  0  0
 19 21  1  0  0  0  0
 20 22  1  0  0  0  0
 21 32  1  1  0  0  0
 22 42  1  1  0  0  0
 23 24  2  0  0  0  0
 23 28  1  0  0  0  0
 24 25  1  0  0  0  0
 25 26  2  0  0  0  0
 26 27  1  0  0  0  0
 26 32  1  0  0  0  0
 27 28  2  0  0  0  0
 27 30  1  0  0  0  0
 28 29  1  0  0  0  0
 30 31  2  0  0  0  0
 31 32  1  0  0  0  0
 33 34  2  0  0  0  0
 33 38  1  0  0  0  0
 34 35  1  0  0  0  0
 35 36  2  0  0  0  0
 36 37  1  0  0  0  0
 36 42  1  0  0  0  0
 37 38  2  0  0  0  0
 37 40  1  0  0  0  0
 38 39  1  0  0  0  0
 40 41  2  0  0  0  0
 41 42  1  0  0  0  0
M  CHG  2   3  -1   4  -1
M  END
>  <CHROM.1>
127.59090258,27.88450227,6.27534896,-34.53595297,-14.54940359,2.76168866
0.03139129,1.62631339

>  <Name>
ligand

>  <RI>
0

>  <Rbt.Current_Directory>
/home/itssahil/PROJECTS/Mol_Feturizer/New_Systems/rnas/4QLN

>  <Rbt.Executable>
rbdock ($Id: //depot/dev/client3/rdock/2013.1/src/exe/rbdock.cxx#4 $)

>  <Rbt.Library>
libRbt.so (2013.1, Build901 2013/11/27)

>  <Rbt.Parameter_File>
/export/apps/rDock/src/rDock_2013.1_src/data/scripts/dock_solv.prm

>  <Rbt.Receptor>
prm/pocket_docking_6.prm

>  <SCORE>
-11.1973

>  <SCORE.INTER>
-12.8834

>  <SCORE.INTER.CONST>
1

>  <SCORE.INTER.POLAR>
0

>  <SCORE.INTER.ROT>
2

>  <SCORE.INTER.SOLV>
20.9828

>  <SCORE.INTER.VDW>
-20.5165

>  <SCORE.INTER.norm>
-0.306746

>  <SCORE.INTRA>
1.68604

>  <SCORE.INTRA.DIHEDRAL>
-0.000699621

>  <SCORE.INTRA.DIHEDRAL.0>
2.39985

>  <SCORE.INTRA.POLAR>
0

>  <SCORE.INTRA.POLAR.0>
0

>  <SCORE.INTRA.REPUL>
0

>  <SCORE.INTRA.REPUL.0>
0

>  <SCORE.INTRA.SOLV>
0.290028

>  <SCORE.INTRA.SOLV.lig_0>
-110.958

>  <SCORE.INTRA.VDW>
1.54138

>  <SCORE.INTRA.VDW.0>
-2.34644

>  <SCORE.INTRA.norm>
0.0401439

>  <SCORE.RESTR>
0

>  <SCORE.RESTR.CAVITY>
0

>  <SCORE.RESTR.norm>
0

>  <SCORE.SYSTEM>
0

>  <SCORE.SYSTEM.CONST>
0

>  <SCORE.SYSTEM.DIHEDRAL>
0

>  <SCORE.SYSTEM.SOLV>
0

>  <SCORE.SYSTEM.norm>
0

>  <SCORE.heavy>
42

>  <SCORE.norm>
-0.266603

>  <RMSD>
6.404

$$$$
ligand
 OpenBabel11021811513D
libRbt.so/2013.1/901 2013/11/27
 42 48  0  0  0  0  0  0  0  0999 V2000
    5.1313  -36.4740  -17.7854 P   0  0  2  0  0  0  0  0  0  0  0  0
    3.7956  -35.1800  -13.0890 P   0  0  1  0  0  0  0  0  0  0  0  0
    4.1248  -37.1895  -18.6559 O   0  5  0  0  0  0  0  0  0  0  0  0
    5.2940  -34.9994  -13.0358 O   0  5  0  0  0  0  0  0  0  0  0  0
    6.5896  -36.4591  -18.1769 O   0  0  0  0  0  0  0  0  0  0  0  0
    2.9308  -34.6377  -11.9766 O   0  0  0  0  0  0  0  0  0  0  0  0
    4.6824  -38.4356  -16.0802 C   0  0  0  0  0  0  0  0  0  0  0  0
    3.4680  -33.1979  -14.7970 C   0  0  0  0  0  0  0  0  0  0  0  0
    5.0161  -37.0650  -16.2926 O   0  0  0  0  0  0  0  0  0  0  0  0
    3.2639  -34.5735  -14.4825 O   0  0  0  0  0  0  0  0  0  0  0  0
    3.9279  -38.5763  -14.7636 C   0  0  1  0  0  0  0  0  0  0  0  0
    4.0628  -33.0766  -16.1944 C   0  0  1  0  0  0  0  0  0  0  0  0
    4.0472  -39.9172  -14.2805 O   0  0  0  0  0  0  0  0  0  0  0  0
    4.7549  -31.8318  -16.3177 O   0  0  0  0  0  0  0  0  0  0  0  0
    4.4937  -37.6476  -13.7026 C   0  0  1  0  0  0  0  0  0  0  0  0
    5.0595  -34.1915  -16.4686 C   0  0  1  0  0  0  0  0  0  0  0  0
    3.4836  -36.7521  -13.2480 O   0  0  0  0  0  0  0  0  0  0  0  0
    4.6434  -34.9514  -17.5993 O   0  0  0  0  0  0  0  0  0  0  0  0
    4.9566  -38.5324  -12.5600 C   0  0  0  0  0  0  0  0  0  0  0  0
    6.3883  -33.5189  -16.7546 C   0  0  0  0  0  0  0  0  0  0  0  0
    4.6505  -39.9610  -12.9846 C   0  0  2  0  0  0  0  0  0  0  0  0
    6.1343  -32.0224  -16.6414 C   0  0  2  0  0  0  0  0  0  0  0  0
    9.6962  -40.0216  -14.4391 N   0  0  0  0  0  0  0  0  0  0  0  0
    8.7727  -39.0490  -14.5504 C   0  0  0  0  0  0  0  0  0  0  0  0
    7.5007  -39.1742  -14.1291 N   0  0  0  0  0  0  0  0  0  0  0  0
    7.0692  -40.3212  -13.5520 C   0  0  0  0  0  0  0  0  0  0  0  0
    8.0206  -41.4323  -13.3941 C   0  0  0  0  0  0  0  0  0  0  0  0
    9.4034  -41.2187  -13.8833 C   0  0  0  0  0  0  0  0  0  0  0  0
   10.3421  -42.1897  -13.7761 N   0  0  0  0  0  0  0  0  0  0  0  0
    7.3451  -42.4350  -12.8022 N   0  0  0  0  0  0  0  0  0  0  0  0
    6.0734  -42.0055  -12.5988 C   0  0  0  0  0  0  0  0  0  0  0  0
    5.9088  -40.7454  -13.0454 N   0  0  0  0  0  0  0  0  0  0  0  0
    9.6012  -28.3061  -15.3212 N   0  0  0  0  0  0  0  0  0  0  0  0
    8.9859  -28.5410  -16.4949 C   0  0  0  0  0  0  0  0  0  0  0  0
    8.1094  -29.5423  -16.6922 N   0  0  0  0  0  0  0  0  0  0  0  0
    7.7902  -30.3934  -15.6875 C   0  0  0  0  0  0  0  0  0  0  0  0
    8.4217  -30.2016  -14.3728 C   0  0  0  0  0  0  0  0  0  0  0  0
    9.3760  -29.0762  -14.2349 C   0  0  0  0  0  0  0  0  0  0  0  0
   10.0015  -28.8290  -13.0578 N   0  0  0  0  0  0  0  0  0  0  0  0
    7.9364  -31.1670  -13.5694 N   0  0  0  0  0  0  0  0  0  0  0  0
    7.0710  -31.9114  -14.3049 C   0  0  0  0  0  0  0  0  0  0  0  0
    6.9840  -31.4509  -15.5664 N   0  0  0  0  0  0  0  0  0  0  0  0
  1  3  1  6  0  0  0
  1  5  2  0  0  0  0
  1  9  1  0  0  0  0
  1 18  1  0  0  0  0
  2  4  1  1  0  0  0
  2  6  2  0  0  0  0
  2 10  1  0  0  0  0
  2 17  1  0  0  0  0
  7  9  1  0  0  0  0
  8 10  1  0  0  0  0
 11  7  1  6  0  0  0
 11 13  1  0  0  0  0
 11 15  1  0  0  0  0
 12  8  1  1  0  0  0
 12 14  1  0  0  0  0
 12 16  1  0  0  0  0
 13 21  1  0  0  0  0
 14 22  1  0  0  0  0
 15 17  1  1  0  0  0
 15 19  1  0  0  0  0
 16 18  1  6  0  0  0
 16 20  1  0  0  0  0
 19 21  1  0  0  0  0
 20 22  1  0  0  0  0
 21 32  1  6  0  0  0
 22 42  1  1  0  0  0
 23 24  2  0  0  0  0
 23 28  1  0  0  0  0
 24 25  1  0  0  0  0
 25 26  2  0  0  0  0
 26 27  1  0  0  0  0
 26 32  1  0  0  0  0
 27 28  2  0  0  0  0
 27 30  1  0  0  0  0
 28 29  1  0  0  0  0
 30 31  2  0  0  0  0
 31 32  1  0  0  0  0
 33 34  2  0  0  0  0
 33 38  1  0  0  0  0
 34 35  1  0  0  0  0
 35 36  2  0  0  0  0
 36 37  1  0  0  0  0
 36 42  1  0  0  0  0
 37 38  2  0  0  0  0
 37 40  1  0  0  0  0
 38 39  1  0  0  0  0
 40 41  2  0  0  0  0
 41 42  1  0  0  0  0
M  CHG  2   3  -1   4  -1
M  END
>  <CHROM.1>
76.08615782,-113.16864789,6.11079741,-35.66870743,-14.86208681,1.67166008
0.22961442,2.97138538

>  <Name>
ligand

>  <RI>
0

>  <Rbt.Current_Directory>
/home/itssahil/PROJECTS/Mol_Feturizer/New_Systems/rnas/4QLN

>  <Rbt.Executable>
rbdock ($Id: //depot/dev/client3/rdock/2013.1/src/exe/rbdock.cxx#4 $)

>  <Rbt.Library>
libRbt.so (2013.1, Build901 2013/11/27)

>  <Rbt.Parameter_File>
/export/apps/rDock/src/rDock_2013.1_src/data/scripts/dock_solv.prm

>  <Rbt.Receptor>
prm/pocket_docking_8.prm

>  <SCORE>
-17.0247

>  <SCORE.INTER>
-17.5294

>  <SCORE.INTER.CONST>
1

>  <SCORE.INTER.POLAR>
0

>  <SCORE.INTER.ROT>
2

>  <SCORE.INTER.SOLV>
23.7759

>  <SCORE.INTER.VDW>
-24.5449

>  <SCORE.INTER.norm>
-0.417366

>  <SCORE.INTRA>
0.504702

>  <SCORE.INTRA.DIHEDRAL>
8.15803e-05

>  <SCORE.INTRA.DIHEDRAL.0>
2.39985

>  <SCORE.INTRA.POLAR>
0

>  <SCORE.INTRA.POLAR.0>
0

>  <SCORE.INTRA.REPUL>
0

>  <SCORE.INTRA.REPUL.0>
0

>  <SCORE.INTRA.SOLV>
-0.0127929

>  <SCORE.INTRA.SOLV.lig_0>
-110.958

>  <SCORE.INTRA.VDW>
0.511057

>  <SCORE.INTRA.VDW.0>
-2.34644

>  <SCORE.INTRA.norm>
0.0120167

>  <SCORE.RESTR>
0

>  <SCORE.RESTR.CAVITY>
0

>  <SCORE.RESTR.norm>
0

>  <SCORE.SYSTEM>
0

>  <SCORE.SYSTEM.CONST>
0

>  <SCORE.SYSTEM.DIHEDRAL>
0

>  <SCORE.SYSTEM.SOLV>
0

>  <SCORE.SYSTEM.norm>
0

>  <SCORE.heavy>
42

>  <SCORE.norm>
-0.40535

>  <RMSD>
6.405

$$$$
ligand
 OpenBabel11021811513D
libRbt.so/2013.1/901 2013/11/27
 42 48  0  0  0  0  0  0  0  0999 V2000
    7.5483  -31.1068  -14.1579 P   0  0  2  0  0  0  0  0  0  0  0  0
    6.1940  -35.0311  -17.0355 P   0  0  1  0  0  0  0  0  0  0  0  0
    8.0465  -29.8496  -14.8317 O   0  5  0  0  0  0  0  0  0  0  0  0
    6.2819  -35.6744  -15.6721 O   0  5  0  0  0  0  0  0  0  0  0  0
    7.7775  -31.3102  -12.6794 O   0  0  0  0  0  0  0  0  0  0  0  0
    5.5447  -35.7731  -18.1789 O   0  0  0  0  0  0  0  0  0  0  0  0
    9.4551  -32.3038  -15.5322 C   0  0  0  0  0  0  0  0  0  0  0  0
    4.1303  -33.5347  -16.3607 C   0  0  0  0  0  0  0  0  0  0  0  0
    8.1584  -32.3736  -14.9416 O   0  0  0  0  0  0  0  0  0  0  0  0
    5.4580  -33.6080  -16.8750 O   0  0  0  0  0  0  0  0  0  0  0  0
    9.5038  -33.2077  -16.7582 C   0  0  1  0  0  0  0  0  0  0  0  0
    4.0699  -32.4934  -15.2503 C   0  0  1  0  0  0  0  0  0  0  0  0
   10.8599  -33.5636  -17.0411 O   0  0  0  0  0  0  0  0  0  0  0  0
    2.9630  -32.7703  -14.3890 O   0  0  0  0  0  0  0  0  0  0  0  0
    8.7245  -34.4914  -16.5275 C   0  0  1  0  0  0  0  0  0  0  0  0
    5.3332  -32.5145  -14.4046 C   0  0  1  0  0  0  0  0  0  0  0  0
    7.6805  -34.6089  -17.4894 O   0  0  0  0  0  0  0  0  0  0  0  0
    5.9705  -31.2412  -14.4469 O   0  0  0  0  0  0  0  0  0  0  0  0
    9.7139  -35.6299  -16.6924 C   0  0  0  0  0  0  0  0  0  0  0  0
    4.8960  -32.8302  -12.9872 C   0  0  0  0  0  0  0  0  0  0  0  0
   11.0516  -34.9805  -17.0143 C   0  0  2  0  0  0  0  0  0  0  0  0
    3.3827  -32.9851  -13.0392 C   0  0  2  0  0  0  0  0  0  0  0  0
   12.6385  -34.2127  -12.0676 N   0  0  0  0  0  0  0  0  0  0  0  0
   11.6038  -33.6758  -12.7401 C   0  0  0  0  0  0  0  0  0  0  0  0
   11.3127  -33.9678  -14.0212 N   0  0  0  0  0  0  0  0  0  0  0  0
   12.0687  -34.8456  -14.7233 C   0  0  0  0  0  0  0  0  0  0  0  0
   13.2190  -35.4759  -14.0567 C   0  0  0  0  0  0  0  0  0  0  0  0
   13.4757  -35.1031  -12.6453 C   0  0  0  0  0  0  0  0  0  0  0  0
   14.5136  -35.6373  -11.9575 N   0  0  0  0  0  0  0  0  0  0  0  0
   13.7889  -36.2911  -14.9639 N   0  0  0  0  0  0  0  0  0  0  0  0
   13.0685  -36.1923  -16.1103 C   0  0  0  0  0  0  0  0  0  0  0  0
   12.0429  -35.3309  -15.9670 N   0  0  0  0  0  0  0  0  0  0  0  0
    0.3076  -35.9029   -9.9405 N   0  0  0  0  0  0  0  0  0  0  0  0
    0.3825  -34.5661  -10.0775 C   0  0  0  0  0  0  0  0  0  0  0  0
    1.2284  -33.9474  -10.9209 N   0  0  0  0  0  0  0  0  0  0  0  0
    2.0759  -34.6606  -11.7013 C   0  0  0  0  0  0  0  0  0  0  0  0
    2.0536  -36.1286  -11.6090 C   0  0  0  0  0  0  0  0  0  0  0  0
    1.0936  -36.7352  -10.6568 C   0  0  0  0  0  0  0  0  0  0  0  0
    1.0082  -38.0803  -10.5103 N   0  0  0  0  0  0  0  0  0  0  0  0
    2.9779  -36.5818  -12.4769 N   0  0  0  0  0  0  0  0  0  0  0  0
    3.5422  -35.4995  -13.0720 C   0  0  0  0  0  0  0  0  0  0  0  0
    3.0052  -34.3553  -12.6100 N   0  0  0  0  0  0  0  0  0  0  0  0
  1  3  1  6  0  0  0
  1  5  2  0  0  0  0
  1  9  1  0  0  0  0
  1 18  1  0  0  0  0
  2  4  1  1  0  0  0
  2  6  2  0  0  0  0
  2 10  1  0  0  0  0
  2 17  1  0  0  0  0
  7  9  1  0  0  0  0
  8 10  1  0  0  0  0
 11  7  1  1  0  0  0
 11 13  1  0  0  0  0
 11 15  1  0  0  0  0
 12  8  1  6  0  0  0
 12 14  1  0  0  0  0
 12 16  1  0  0  0  0
 13 21  1  0  0  0  0
 14 22  1  0  0  0  0
 15 17  1  6  0  0  0
 15 19  1  0  0  0  0
 16 18  1  1  0  0  0
 16 20  1  0  0  0  0
 19 21  1  0  0  0  0
 20 22  1  0  0  0  0
 21 32  1  1  0  0  0
 22 42  1  6  0  0  0
 23 24  2  0  0  0  0
 23 28  1  0  0  0  0
 24 25  1  0  0  0  0
 25 26  2  0  0  0  0
 26 27  1  0  0  0  0
 26 32  1  0  0  0  0
 27 28  2  0  0  0  0
 27 30  1  0  0  0  0
 28 29  1  0  0  0  0
 30 31  2  0  0  0  0
 31 32  1  0  0  0  0
 33 34  2  0  0  0  0
 33 38  1  0  0  0  0
 34 35  1  0  0  0  0
 35 36  2  0  0  0  0
 36 37  1  0  0  0  0
 36 42  1  0  0  0  0
 37 38  2  0  0  0  0
 37 40  1  0  0  0  0
 38 39  1  0  0  0  0
 40 41  2  0  0  0  0
 41 42  1  0  0  0  0
M  CHG  2   3  -1   4  -1
M  END
>  <CHROM.1>
45.36198867,-111.14106362,7.07472120,-34.13409246,-14.33010892,0.26484194
0.09814733,-1.10809320

>  <Name>
ligand

>  <RI>
0

>  <Rbt.Current_Directory>
/home/itssahil/PROJECTS/Mol_Feturizer/New_Systems/rnas/4QLN

>  <Rbt.Executable>
rbdock ($Id: //depot/dev/client3/rdock/2013.1/src/exe/rbdock.cxx#4 $)

>  <Rbt.Library>
libRbt.so (2013.1, Build901 2013/11/27)

>  <Rbt.Parameter_File>
/export/apps/rDock/src/rDock_2013.1_src/data/scripts/dock_solv.prm

>  <Rbt.Receptor>
prm/pocket_docking_8.prm

>  <SCORE>
-12.1784

>  <SCORE.INTER>
-12.3323

>  <SCORE.INTER.CONST>
1

>  <SCORE.INTER.POLAR>
0

>  <SCORE.INTER.ROT>
2

>  <SCORE.INTER.SOLV>
15.5832

>  <SCORE.INTER.VDW>
-18.3493

>  <SCORE.INTER.norm>
-0.293626

>  <SCORE.INTRA>
0.153907

>  <SCORE.INTRA.DIHEDRAL>
-0.000368314

>  <SCORE.INTRA.DIHEDRAL.0>
2.39985

>  <SCORE.INTRA.POLAR>
0

>  <SCORE.INTRA.POLAR.0>
0

>  <SCORE.INTRA.REPUL>
0

>  <SCORE.INTRA.REPUL.0>
0

>  <SCORE.INTRA.SOLV>
0.0150698

>  <SCORE.INTRA.SOLV.lig_0>
-110.958

>  <SCORE.INTRA.VDW>
0.146556

>  <SCORE.INTRA.VDW.0>
-2.34644

>  <SCORE.INTRA.norm>
0.00366444

>  <SCORE.RESTR>
0

>  <SCORE.RESTR.CAVITY>
0

>  <SCORE.RESTR.norm>
0

>  <SCORE.SYSTEM>
0

>  <SCORE.SYSTEM.CONST>
0

>  <SCORE.SYSTEM.DIHEDRAL>
0

>  <SCORE.SYSTEM.SOLV>
0

>  <SCORE.SYSTEM.norm>
0

>  <SCORE.heavy>
42

>  <SCORE.norm>
-0.289962

>  <RMSD>
6.426

$$$$
ligand
 OpenBabel11021811513D
libRbt.so/2013.1/901 2013/11/27
 42 48  0  0  0  0  0  0  0  0999 V2000
    3.5709  -34.3395  -16.5105 P   0  0  2  0  0  0  0  0  0  0  0  0
    6.3111  -32.2699  -12.8062 P   0  0  1  0  0  0  0  0  0  0  0  0
    2.2966  -33.6521  -16.9425 O   0  5  0  0  0  0  0  0  0  0  0  0
    6.9173  -33.6503  -12.8931 O   0  5  0  0  0  0  0  0  0  0  0  0
    3.8329  -35.7681  -16.9231 O   0  0  0  0  0  0  0  0  0  0  0  0
    7.0054  -31.1902  -12.0114 O   0  0  0  0  0  0  0  0  0  0  0  0
    2.4925  -34.2864  -14.1040 C   0  0  0  0  0  0  0  0  0  0  0  0
    7.1837  -31.5741  -15.1953 C   0  0  0  0  0  0  0  0  0  0  0  0
    3.6714  -34.2515  -14.9064 O   0  0  0  0  0  0  0  0  0  0  0  0
    6.0814  -31.7250  -14.3038 O   0  0  0  0  0  0  0  0  0  0  0  0
    2.7206  -33.4798  -12.8312 C   0  0  1  0  0  0  0  0  0  0  0  0
    6.8587  -32.2407  -16.5261 C   0  0  1  0  0  0  0  0  0  0  0  0
    1.8127  -33.9151  -11.8154 O   0  0  0  0  0  0  0  0  0  0  0  0
    8.0706  -32.5750  -17.2069 O   0  0  0  0  0  0  0  0  0  0  0  0
    4.1332  -33.6691  -12.3048 C   0  0  1  0  0  0  0  0  0  0  0  0
    6.0709  -33.5250  -16.3223 C   0  0  1  0  0  0  0  0  0  0  0  0
    4.8066  -32.4152  -12.2502 O   0  0  0  0  0  0  0  0  0  0  0  0
    4.8159  -33.4393  -16.9907 O   0  0  0  0  0  0  0  0  0  0  0  0
    3.9972  -34.2475  -10.9086 C   0  0  0  0  0  0  0  0  0  0  0  0
    6.9047  -34.6402  -16.9228 C   0  0  0  0  0  0  0  0  0  0  0  0
    2.5034  -34.3840  -10.6542 C   0  0  2  0  0  0  0  0  0  0  0  0
    8.1631  -33.9780  -17.4658 C   0  0  2  0  0  0  0  0  0  0  0  0
   -0.4795  -38.4675  -12.0704 N   0  0  0  0  0  0  0  0  0  0  0  0
   -0.4405  -37.2123  -12.5543 C   0  0  0  0  0  0  0  0  0  0  0  0
    0.3850  -36.2569  -12.0886 N   0  0  0  0  0  0  0  0  0  0  0  0
    1.2479  -36.5162  -11.0771 C   0  0  0  0  0  0  0  0  0  0  0  0
    1.2656  -37.8672  -10.4944 C   0  0  0  0  0  0  0  0  0  0  0  0
    0.3266  -38.8646  -11.0604 C   0  0  0  0  0  0  0  0  0  0  0  0
    0.2785  -40.1314  -10.5824 N   0  0  0  0  0  0  0  0  0  0  0  0
    2.1982  -37.8543   -9.5236 N   0  0  0  0  0  0  0  0  0  0  0  0
    2.7311  -36.6062   -9.4867 C   0  0  0  0  0  0  0  0  0  0  0  0
    2.1650  -35.8086  -10.4128 N   0  0  0  0  0  0  0  0  0  0  0  0
   11.0766  -34.0153  -13.0975 N   0  0  0  0  0  0  0  0  0  0  0  0
    9.9597  -33.3233  -13.3895 C   0  0  0  0  0  0  0  0  0  0  0  0
    9.3103  -33.4134  -14.5642 N   0  0  0  0  0  0  0  0  0  0  0  0
    9.7610  -34.2317  -15.5456 C   0  0  0  0  0  0  0  0  0  0  0  0
   10.9774  -35.0223  -15.3020 C   0  0  0  0  0  0  0  0  0  0  0  0
   11.6354  -34.8681  -13.9830 C   0  0  0  0  0  0  0  0  0  0  0  0
   12.7603  -35.5601  -13.6766 N   0  0  0  0  0  0  0  0  0  0  0  0
   11.2002  -35.7383  -16.4202 N   0  0  0  0  0  0  0  0  0  0  0  0
   10.2138  -35.4328  -17.3021 C   0  0  0  0  0  0  0  0  0  0  0  0
    9.3567  -34.5354  -16.7813 N   0  0  0  0  0  0  0  0  0  0  0  0
  1  3  1  6  0  0  0
  1  5  2  0  0  0  0
  1  9  1  0  0  0  0
  1 18  1  0  0  0  0
  2  4  1  1  0  0  0
  2  6  2  0  0  0  0
  2 10  1  0  0  0  0
  2 17  1  0  0  0  0
  7  9  1  0  0  0  0
  8 10  1  0  0  0  0
 11  7  1  6  0  0  0
 11 13  1  0  0  0  0
 11 15  1  0  0  0  0
 12  8  1  1  0  0  0
 12 14  1  0  0  0  0
 12 16  1  0  0  0  0
 13 21  1  0  0  0  0
 14 22  1  0  0  0  0
 15 17  1  1  0  0  0
 15 19  1  0  0  0  0
 16 18  1  6  0  0  0
 16 20  1  0  0  0  0
 19 21  1  0  0  0  0
 20 22  1  0  0  0  0
 21 32  1  6  0  0  0
 22 42  1  1  0  0  0
 23 24  2  0  0  0  0
 23 28  1  0  0  0  0
 24 25  1  0  0  0  0
 25 26  2  0  0  0  0
 26 27  1  0  0  0  0
 26 32  1  0  0  0  0
 27 28  2  0  0  0  0
 27 30  1  0  0  0  0
 28 29  1  0  0  0  0
 30 31  2  0  0  0  0
 31 32  1  0  0  0  0
 33 34  2  0  0  0  0
 33 38  1  0  0  0  0
 34 35  1  0  0  0  0
 35 36  2  0  0  0  0
 36 37  1  0  0  0  0
 36 42  1  0  0  0  0
 37 38  2  0  0  0  0
 37 40  1  0  0  0  0
 38 39  1  0  0  0  0
 40 41  2  0  0  0  0
 41 42  1  0  0  0  0
M  CHG  2   3  -1   4  -1
M  END
>  <CHROM.1>
-6.84796509,41.92221845,5.33597208,-34.53518924,-13.86232175,2.62806010,0.15125842
1.93544702

>  <Name>
ligand

>  <RI>
0

>  <Rbt.Current_Directory>
/home/itssahil/PROJECTS/Mol_Feturizer/New_Systems/rnas/4QLN

>  <Rbt.Executable>
rbdock ($Id: //depot/dev/client3/rdock/2013.1/src/exe/rbdock.cxx#4 $)

>  <Rbt.Library>
libRbt.so (2013.1, Build901 2013/11/27)

>  <Rbt.Parameter_File>
/export/apps/rDock/src/rDock_2013.1_src/data/scripts/dock_solv.prm

>  <Rbt.Receptor>
prm/pocket_docking_7.prm

>  <SCORE>
-11.891

>  <SCORE.INTER>
-11.9809

>  <SCORE.INTER.CONST>
1

>  <SCORE.INTER.POLAR>
0

>  <SCORE.INTER.ROT>
2

>  <SCORE.INTER.SOLV>
15.6287

>  <SCORE.INTER.VDW>
-18.1302

>  <SCORE.INTER.norm>
-0.28526

>  <SCORE.INTRA>
0.089901

>  <SCORE.INTRA.DIHEDRAL>
-0.000369568

>  <SCORE.INTRA.DIHEDRAL.0>
2.39985

>  <SCORE.INTRA.POLAR>
0

>  <SCORE.INTRA.POLAR.0>
0

>  <SCORE.INTRA.REPUL>
0

>  <SCORE.INTRA.REPUL.0>
0

>  <SCORE.INTRA.SOLV>
0.956467

>  <SCORE.INTRA.SOLV.lig_0>
-110.958

>  <SCORE.INTRA.VDW>
-0.388148

>  <SCORE.INTRA.VDW.0>
-2.34644

>  <SCORE.INTRA.norm>
0.0021405

>  <SCORE.RESTR>
0

>  <SCORE.RESTR.CAVITY>
0

>  <SCORE.RESTR.norm>
0

>  <SCORE.SYSTEM>
0

>  <SCORE.SYSTEM.CONST>
0

>  <SCORE.SYSTEM.DIHEDRAL>
0

>  <SCORE.SYSTEM.SOLV>
0

>  <SCORE.SYSTEM.norm>
0

>  <SCORE.heavy>
42

>  <SCORE.norm>
-0.28312

>  <RMSD>
6.460

$$$$
ligand
 OpenBabel11021811513D
libRbt.so/2013.1/901 2013/11/27
 42 48  0  0  0  0  0  0  0  0999 V2000
    4.0174  -35.5822  -17.6101 P   0  0  2  0  0  0  0  0  0  0  0  0
    5.4452  -32.2489  -14.0939 P   0  0  1  0  0  0  0  0  0  0  0  0
    2.9462  -35.1824  -18.5979 O   0  5  0  0  0  0  0  0  0  0  0  0
    6.0463  -33.5265  -13.5584 O   0  5  0  0  0  0  0  0  0  0  0  0
    4.3952  -37.0361  -17.4567 O   0  0  0  0  0  0  0  0  0  0  0  0
    5.8531  -30.9194  -13.5059 O   0  0  0  0  0  0  0  0  0  0  0  0
    2.2323  -34.9238  -15.7834 C   0  0  0  0  0  0  0  0  0  0  0  0
    7.0303  -32.2109  -16.2009 C   0  0  0  0  0  0  0  0  0  0  0  0
    3.6048  -35.0130  -16.1622 O   0  0  0  0  0  0  0  0  0  0  0  0
    5.7022  -32.1979  -15.6825 O   0  0  0  0  0  0  0  0  0  0  0  0
    2.0463  -33.7576  -14.8200 C   0  0  1  0  0  0  0  0  0  0  0  0
    7.1430  -33.2707  -17.2895 C   0  0  1  0  0  0  0  0  0  0  0  0
    0.8630  -33.9589  -14.0423 O   0  0  0  0  0  0  0  0  0  0  0  0
    8.5077  -33.6714  -17.4334 O   0  0  0  0  0  0  0  0  0  0  0  0
    3.2192  -33.6429  -13.8611 C   0  0  1  0  0  0  0  0  0  0  0  0
    6.3299  -34.5075  -16.9420 C   0  0  1  0  0  0  0  0  0  0  0  0
    3.8419  -32.3695  -14.0008 O   0  0  0  0  0  0  0  0  0  0  0  0
    5.3513  -34.7475  -17.9490 O   0  0  0  0  0  0  0  0  0  0  0  0
    2.6474  -33.7915  -12.4635 C   0  0  0  0  0  0  0  0  0  0  0  0
    7.3099  -35.6633  -16.8835 C   0  0  0  0  0  0  0  0  0  0  0  0
    1.1498  -33.9922  -12.6416 C   0  0  2  0  0  0  0  0  0  0  0  0
    8.6761  -35.0719  -17.2006 C   0  0  2  0  0  0  0  0  0  0  0  0
   -1.4649  -36.5140   -8.8492 N   0  0  0  0  0  0  0  0  0  0  0  0
   -1.3027  -35.1951   -9.0619 C   0  0  0  0  0  0  0  0  0  0  0  0
   -0.5970  -34.6845  -10.0878 N   0  0  0  0  0  0  0  0  0  0  0  0
    0.0055  -35.4963  -10.9894 C   0  0  0  0  0  0  0  0  0  0  0  0
   -0.1260  -36.9525  -10.8252 C   0  0  0  0  0  0  0  0  0  0  0  0
   -0.9182  -37.4383   -9.6705 C   0  0  0  0  0  0  0  0  0  0  0  0
   -1.0893  -38.7635   -9.4463 N   0  0  0  0  0  0  0  0  0  0  0  0
    0.5565  -37.5163  -11.8394 N   0  0  0  0  0  0  0  0  0  0  0  0
    1.0795  -36.5112  -12.5874 C   0  0  0  0  0  0  0  0  0  0  0  0
    0.7509  -35.3071  -12.0810 N   0  0  0  0  0  0  0  0  0  0  0  0
   10.2383  -33.3566  -12.4900 N   0  0  0  0  0  0  0  0  0  0  0  0
    9.2957  -32.8735  -13.3204 C   0  0  0  0  0  0  0  0  0  0  0  0
    8.9974  -33.4215  -14.5122 N   0  0  0  0  0  0  0  0  0  0  0  0
    9.6511  -34.5237  -14.9525 C   0  0  0  0  0  0  0  0  0  0  0  0
   10.6962  -35.1117  -14.1004 C   0  0  0  0  0  0  0  0  0  0  0  0
   10.9663  -34.4503  -12.8020 C   0  0  0  0  0  0  0  0  0  0  0  0
   11.9126  -34.9277  -11.9566 N   0  0  0  0  0  0  0  0  0  0  0  0
   11.1767  -36.1799  -14.7644 N   0  0  0  0  0  0  0  0  0  0  0  0
   10.4994  -36.2678  -15.9380 C   0  0  0  0  0  0  0  0  0  0  0  0
    9.5909  -35.2814  -16.0502 N   0  0  0  0  0  0  0  0  0  0  0  0
  1  3  1  6  0  0  0
  1  5  2  0  0  0  0
  1  9  1  0  0  0  0
  1 18  1  0  0  0  0
  2  4  1  1  0  0  0
  2  6  2  0  0  0  0
  2 10  1  0  0  0  0
  2 17  1  0  0  0  0
  7  9  1  0  0  0  0
  8 10  1  0  0  0  0
 11  7  1  6  0  0  0
 11 13  1  0  0  0  0
 11 15  1  0  0  0  0
 12  8  1  1  0  0  0
 12 14  1  0  0  0  0
 12 16  1  0  0  0  0
 13 21  1  0  0  0  0
 14 22  1  0  0  0  0
 15 17  1  1  0  0  0
 15 19  1  0  0  0  0
 16 18  1  6  0  0  0
 16 20  1  0  0  0  0
 19 21  1  0  0  0  0
 20 22  1  0  0  0  0
 21 32  1  6  0  0  0
 22 42  1  1  0  0  0
 23 24  2  0  0  0  0
 23 28  1  0  0  0  0
 24 25  1  0  0  0  0
 25 26  2  0  0  0  0
 26 27  1  0  0  0  0
 26 32  1  0  0  0  0
 27 28  2  0  0  0  0
 27 30  1  0  0  0  0
 28 29  1  0  0  0  0
 30 31  2  0  0  0  0
 31 32  1  0  0  0  0
 33 34  2  0  0  0  0
 33 38  1  0  0  0  0
 34 35  1  0  0  0  0
 35 36  2  0  0  0  0
 36 37  1  0  0  0  0
 36 42  1  0  0  0  0
 37 38  2  0  0  0  0
 37 40  1  0  0  0  0
 38 39  1  0  0  0  0
 40 41  2  0  0  0  0
 41 42  1  0  0  0  0
M  CHG  2   3  -1   4  -1
M  END
>  <CHROM.1>
-130.40260957,36.52708044,4.84858478,-34.62563868,-14.25547691,0.43158116
-0.15329886,-1.52334884

>  <Name>
ligand

>  <RI>
0

>  <Rbt.Current_Directory>
/home/itssahil/PROJECTS/Mol_Feturizer/New_Systems/rnas/4QLN

>  <Rbt.Executable>
rbdock ($Id: //depot/dev/client3/rdock/2013.1/src/exe/rbdock.cxx#4 $)

>  <Rbt.Library>
libRbt.so (2013.1, Build901 2013/11/27)

>  <Rbt.Parameter_File>
/export/apps/rDock/src/rDock_2013.1_src/data/scripts/dock_solv.prm

>  <Rbt.Receptor>
prm/pocket_docking_7.prm

>  <SCORE>
-11.732

>  <SCORE.INTER>
-11.7105

>  <SCORE.INTER.CONST>
1

>  <SCORE.INTER.POLAR>
0

>  <SCORE.INTER.ROT>
2

>  <SCORE.INTER.SOLV>
20.5122

>  <SCORE.INTER.VDW>
-19.5777

>  <SCORE.INTER.norm>
-0.278822

>  <SCORE.INTRA>
-0.0616803

>  <SCORE.INTRA.DIHEDRAL>
-0.000424105

>  <SCORE.INTRA.DIHEDRAL.0>
2.39985

>  <SCORE.INTRA.POLAR>
0

>  <SCORE.INTRA.POLAR.0>
0

>  <SCORE.INTRA.REPUL>
0

>  <SCORE.INTRA.REPUL.0>
0

>  <SCORE.INTRA.SOLV>
0.684379

>  <SCORE.INTRA.SOLV.lig_0>
-110.958

>  <SCORE.INTRA.VDW>
-0.403658

>  <SCORE.INTRA.VDW.0>
-2.34644

>  <SCORE.INTRA.norm>
-0.00146858

>  <SCORE.RESTR>
0.0401919

>  <SCORE.RESTR.CAVITY>
0.0401919

>  <SCORE.RESTR.norm>
0.00095695

>  <SCORE.SYSTEM>
0

>  <SCORE.SYSTEM.CONST>
0

>  <SCORE.SYSTEM.DIHEDRAL>
0

>  <SCORE.SYSTEM.SOLV>
0

>  <SCORE.SYSTEM.norm>
0

>  <SCORE.heavy>
42

>  <SCORE.norm>
-0.279333

>  <RMSD>
6.470

$$$$
ligand
 OpenBabel11021811513D
libRbt.so/2013.1/901 2013/11/27
 42 48  0  0  0  0  0  0  0  0999 V2000
    9.1985  -32.0787  -14.7413 P   0  0  2  0  0  0  0  0  0  0  0  0
    7.1047  -36.0730  -17.0165 P   0  0  1  0  0  0  0  0  0  0  0  0
   10.4094  -31.4340  -15.3746 O   0  5  0  0  0  0  0  0  0  0  0  0
    6.4579  -36.1306  -15.6531 O   0  5  0  0  0  0  0  0  0  0  0  0
    8.8412  -31.7645  -13.3083 O   0  0  0  0  0  0  0  0  0  0  0  0
    6.5663  -36.9220  -18.1429 O   0  0  0  0  0  0  0  0  0  0  0  0
   10.6305  -34.2915  -14.8421 C   0  0  0  0  0  0  0  0  0  0  0  0
    5.8976  -33.8181  -17.6581 C   0  0  0  0  0  0  0  0  0  0  0  0
    9.3447  -33.6752  -14.8860 O   0  0  0  0  0  0  0  0  0  0  0  0
    7.1182  -34.5383  -17.5036 O   0  0  0  0  0  0  0  0  0  0  0  0
   10.6184  -35.5528  -15.6974 C   0  0  1  0  0  0  0  0  0  0  0  0
    6.0001  -32.4796  -16.9378 C   0  0  1  0  0  0  0  0  0  0  0  0
   11.6586  -36.4359  -15.2689 O   0  0  0  0  0  0  0  0  0  0  0  0
    4.6910  -32.0023  -16.6180 O   0  0  0  0  0  0  0  0  0  0  0  0
    9.2977  -36.2928  -15.5690 C   0  0  1  0  0  0  0  0  0  0  0  0
    6.7772  -32.6106  -15.6375 C   0  0  1  0  0  0  0  0  0  0  0  0
    8.6721  -36.4009  -16.8441 O   0  0  0  0  0  0  0  0  0  0  0  0
    7.9181  -31.7580  -15.6624 O   0  0  0  0  0  0  0  0  0  0  0  0
    9.6293  -37.6734  -15.0339 C   0  0  0  0  0  0  0  0  0  0  0  0
    5.8342  -32.1852  -14.5288 C   0  0  0  0  0  0  0  0  0  0  0  0
   11.1406  -37.7047  -14.8605 C   0  0  2  0  0  0  0  0  0  0  0  0
    4.5251  -31.8134  -15.2105 C   0  0  2  0  0  0  0  0  0  0  0  0
   12.7161  -35.5832  -10.3223 N   0  0  0  0  0  0  0  0  0  0  0  0
   12.4999  -35.0086  -11.5200 C   0  0  0  0  0  0  0  0  0  0  0  0
   12.0927  -35.6840  -12.6105 N   0  0  0  0  0  0  0  0  0  0  0  0
   11.8711  -37.0193  -12.5587 C   0  0  0  0  0  0  0  0  0  0  0  0
   12.0851  -37.7205  -11.2831 C   0  0  0  0  0  0  0  0  0  0  0  0
   12.5344  -36.9085  -10.1273 C   0  0  0  0  0  0  0  0  0  0  0  0
   12.7545  -37.4752   -8.9165 N   0  0  0  0  0  0  0  0  0  0  0  0
   11.7981  -39.0170  -11.5048 N   0  0  0  0  0  0  0  0  0  0  0  0
   11.4326  -39.1367  -12.8068 C   0  0  0  0  0  0  0  0  0  0  0  0
   11.4758  -37.9460  -13.4351 N   0  0  0  0  0  0  0  0  0  0  0  0
    0.5843  -35.0400  -16.4878 N   0  0  0  0  0  0  0  0  0  0  0  0
    1.4385  -34.3598  -17.2747 C   0  0  0  0  0  0  0  0  0  0  0  0
    2.4123  -33.5597  -16.8046 N   0  0  0  0  0  0  0  0  0  0  0  0
    2.5896  -33.3916  -15.4718 C   0  0  0  0  0  0  0  0  0  0  0  0
    1.6948  -34.1026  -14.5457 C   0  0  0  0  0  0  0  0  0  0  0  0
    0.6471  -34.9654  -15.1409 C   0  0  0  0  0  0  0  0  0  0  0  0
   -0.2187  -35.6561  -14.3589 N   0  0  0  0  0  0  0  0  0  0  0  0
    2.0835  -33.7654  -13.3015 N   0  0  0  0  0  0  0  0  0  0  0  0
    3.1341  -32.9133  -13.4206 C   0  0  0  0  0  0  0  0  0  0  0  0
    3.4355  -32.6905  -14.7130 N   0  0  0  0  0  0  0  0  0  0  0  0
  1  3  1  6  0  0  0
  1  5  2  0  0  0  0
  1  9  1  0  0  0  0
  1 18  1  0  0  0  0
  2  4  1  1  0  0  0
  2  6  2  0  0  0  0
  2 10  1  0  0  0  0
  2 17  1  0  0  0  0
  7  9  1  0  0  0  0
  8 10  1  0  0  0  0
 11  7  1  1  0  0  0
 11 13  1  0  0  0  0
 11 15  1  0  0  0  0
 12  8  1  1  0  0  0
 12 14  1  0  0  0  0
 12 16  1  0  0  0  0
 13 21  1  0  0  0  0
 14 22  1  0  0  0  0
 15 17  1  6  0  0  0
 15 19  1  0  0  0  0
 16 18  1  6  0  0  0
 16 20  1  0  0  0  0
 19 21  1  0  0  0  0
 20 22  1  0  0  0  0
 21 32  1  1  0  0  0
 22 42  1  1  0  0  0
 23 24  2  0  0  0  0
 23 28  1  0  0  0  0
 24 25  1  0  0  0  0
 25 26  2  0  0  0  0
 26 27  1  0  0  0  0
 26 32  1  0  0  0  0
 27 28  2  0  0  0  0
 27 30  1  0  0  0  0
 28 29  1  0  0  0  0
 30 31  2  0  0  0  0
 31 32  1  0  0  0  0
 33 34  2  0  0  0  0
 33 38  1  0  0  0  0
 34 35  1  0  0  0  0
 35 36  2  0  0  0  0
 36 37  1  0  0  0  0
 36 42  1  0  0  0  0
 37 38  2  0  0  0  0
 37 40  1  0  0  0  0
 38 39  1  0  0  0  0
 40 41  2  0  0  0  0
 41 42  1  0  0  0  0
M  CHG  2   3  -1   4  -1
M  END
>  <CHROM.1>
16.56865754,-9.92001147,7.62294028,-34.80746196,-14.75075470,-0.37032201
-0.26735314,-0.25691509

>  <Name>
ligand

>  <RI>
0

>  <Rbt.Current_Directory>
/home/itssahil/PROJECTS/Mol_Feturizer/New_Systems/rnas/4QLN

>  <Rbt.Executable>
rbdock ($Id: //depot/dev/client3/rdock/2013.1/src/exe/rbdock.cxx#4 $)

>  <Rbt.Library>
libRbt.so (2013.1, Build901 2013/11/27)

>  <Rbt.Parameter_File>
/export/apps/rDock/src/rDock_2013.1_src/data/scripts/dock_solv.prm

>  <Rbt.Receptor>
prm/pocket_docking_8.prm

>  <SCORE>
-15.138

>  <SCORE.INTER>
-15.6602

>  <SCORE.INTER.CONST>
1

>  <SCORE.INTER.POLAR>
0

>  <SCORE.INTER.ROT>
2

>  <SCORE.INTER.SOLV>
16.3832

>  <SCORE.INTER.VDW>
-20.8345

>  <SCORE.INTER.norm>
-0.372862

>  <SCORE.INTRA>
0.522175

>  <SCORE.INTRA.DIHEDRAL>
0.000323836

>  <SCORE.INTRA.DIHEDRAL.0>
2.39985

>  <SCORE.INTRA.POLAR>
0

>  <SCORE.INTRA.POLAR.0>
0

>  <SCORE.INTRA.REPUL>
0

>  <SCORE.INTRA.REPUL.0>
0

>  <SCORE.INTRA.SOLV>
0.0109279

>  <SCORE.INTRA.SOLV.lig_0>
-110.958

>  <SCORE.INTRA.VDW>
0.516549

>  <SCORE.INTRA.VDW.0>
-2.34644

>  <SCORE.INTRA.norm>
0.0124327

>  <SCORE.RESTR>
0

>  <SCORE.RESTR.CAVITY>
0

>  <SCORE.RESTR.norm>
0

>  <SCORE.SYSTEM>
0

>  <SCORE.SYSTEM.CONST>
0

>  <SCORE.SYSTEM.DIHEDRAL>
0

>  <SCORE.SYSTEM.SOLV>
0

>  <SCORE.SYSTEM.norm>
0

>  <SCORE.heavy>
42

>  <SCORE.norm>
-0.360429

>  <RMSD>
6.472

$$$$
ligand
 OpenBabel11021811513D
libRbt.so/2013.1/901 2013/11/27
 42 48  0  0  0  0  0  0  0  0999 V2000
    7.1011  -31.4489  -14.5275 P   0  0  2  0  0  0  0  0  0  0  0  0
    5.5198  -35.5261  -17.0553 P   0  0  1  0  0  0  0  0  0  0  0  0
    7.5604  -30.2413  -15.3109 O   0  5  0  0  0  0  0  0  0  0  0  0
    5.6979  -36.0856  -15.6640 O   0  5  0  0  0  0  0  0  0  0  0  0
    7.4317  -31.5638  -13.0586 O   0  0  0  0  0  0  0  0  0  0  0  0
    4.7866  -36.3292  -18.1026 O   0  0  0  0  0  0  0  0  0  0  0  0
    8.8982  -32.7503  -15.9537 C   0  0  0  0  0  0  0  0  0  0  0  0
    3.5195  -33.9670  -16.3332 C   0  0  0  0  0  0  0  0  0  0  0  0
    7.6455  -32.7684  -15.2715 O   0  0  0  0  0  0  0  0  0  0  0  0
    4.8074  -34.0874  -16.9327 O   0  0  0  0  0  0  0  0  0  0  0  0
    8.8544  -33.7282  -17.1217 C   0  0  1  0  0  0  0  0  0  0  0  0
    3.5446  -32.8588  -15.2880 C   0  0  1  0  0  0  0  0  0  0  0  0
   10.1846  -34.1167  -17.4754 O   0  0  0  0  0  0  0  0  0  0  0  0
    2.4986  -33.0693  -14.3365 O   0  0  0  0  0  0  0  0  0  0  0  0
    8.0835  -34.9861  -16.7583 C   0  0  1  0  0  0  0  0  0  0  0  0
    4.8638  -32.8428  -14.5322 C   0  0  1  0  0  0  0  0  0  0  0  0
    6.9740  -35.1501  -17.6364 O   0  0  0  0  0  0  0  0  0  0  0  0
    5.5061  -31.5822  -14.6975 O   0  0  0  0  0  0  0  0  0  0  0  0
    9.0505  -36.1442  -16.9205 C   0  0  0  0  0  0  0  0  0  0  0  0
    4.5244  -33.0658  -13.0711 C   0  0  0  0  0  0  0  0  0  0  0  0
   10.3672  -35.5315  -17.3741 C   0  0  2  0  0  0  0  0  0  0  0  0
    3.0101  -33.2058  -13.0084 C   0  0  2  0  0  0  0  0  0  0  0  0
   12.1576  -34.6770  -12.5117 N   0  0  0  0  0  0  0  0  0  0  0  0
   11.0638  -34.1956  -13.1307 C   0  0  0  0  0  0  0  0  0  0  0  0
   10.7245  -34.5037  -14.3961 N   0  0  0  0  0  0  0  0  0  0  0  0
   11.4893  -35.3414  -15.1366 C   0  0  0  0  0  0  0  0  0  0  0  0
   12.7029  -35.9101  -14.5295 C   0  0  0  0  0  0  0  0  0  0  0  0
   13.0101  -35.5230  -13.1321 C   0  0  0  0  0  0  0  0  0  0  0  0
   14.1076  -36.0016  -12.4979 N   0  0  0  0  0  0  0  0  0  0  0  0
   13.2685  -36.6953  -15.4654 N   0  0  0  0  0  0  0  0  0  0  0  0
   12.4873  -36.6354  -16.5741 C   0  0  0  0  0  0  0  0  0  0  0  0
   11.4266  -35.8286  -16.3783 N   0  0  0  0  0  0  0  0  0  0  0  0
    0.0082  -35.9066   -9.6518 N   0  0  0  0  0  0  0  0  0  0  0  0
    0.0666  -34.5836   -9.8922 C   0  0  0  0  0  0  0  0  0  0  0  0
    0.8945  -34.0234  -10.7924 N   0  0  0  0  0  0  0  0  0  0  0  0
    1.7394  -34.7861  -11.5275 C   0  0  0  0  0  0  0  0  0  0  0  0
    1.7345  -36.2428  -11.3222 C   0  0  0  0  0  0  0  0  0  0  0  0
    0.7938  -36.7838  -10.3129 C   0  0  0  0  0  0  0  0  0  0  0  0
    0.7250  -38.1144  -10.0622 N   0  0  0  0  0  0  0  0  0  0  0  0
    2.6521  -36.7523  -12.1656 N   0  0  0  0  0  0  0  0  0  0  0  0
    3.1967  -35.7136  -12.8499 C   0  0  0  0  0  0  0  0  0  0  0  0
    2.6533  -34.5426  -12.4698 N   0  0  0  0  0  0  0  0  0  0  0  0
  1  3  1  6  0  0  0
  1  5  2  0  0  0  0
  1  9  1  0  0  0  0
  1 18  1  0  0  0  0
  2  4  1  1  0  0  0
  2  6  2  0  0  0  0
  2 10  1  0  0  0  0
  2 17  1  0  0  0  0
  7  9  1  0  0  0  0
  8 10  1  0  0  0  0
 11  7  1  1  0  0  0
 11 13  1  0  0  0  0
 11 15  1  0  0  0  0
 12  8  1  6  0  0  0
 12 14  1  0  0  0  0
 12 16  1  0  0  0  0
 13 21  1  0  0  0  0
 14 22  1  0  0  0  0
 15 17  1  6  0  0  0
 15 19  1  0  0  0  0
 16 18  1  1  0  0  0
 16 20  1  0  0  0  0
 19 21  1  0  0  0  0
 20 22  1  0  0  0  0
 21 32  1  1  0  0  0
 22 42  1  6  0  0  0
 23 24  2  0  0  0  0
 23 28  1  0  0  0  0
 24 25  1  0  0  0  0
 25 26  2  0  0  0  0
 26 27  1  0  0  0  0
 26 32  1  0  0  0  0
 27 28  2  0  0  0  0
 27 30  1  0  0  0  0
 28 29  1  0  0  0  0
 30 31  2  0  0  0  0
 31 32  1  0  0  0  0
 33 34  2  0  0  0  0
 33 38  1  0  0  0  0
 34 35  1  0  0  0  0
 35 36  2  0  0  0  0
 36 37  1  0  0  0  0
 36 42  1  0  0  0  0
 37 38  2  0  0  0  0
 37 40  1  0  0  0  0
 38 39  1  0  0  0  0
 40 41  2  0  0  0  0
 41 42  1  0  0  0  0
M  CHG  2   3  -1   4  -1
M  END
>  <CHROM.1>
50.51117174,-107.61668504,6.57165370,-34.49262199,-14.48061670,0.31387720
0.14972931,-1.14087538

>  <Name>
ligand

>  <RI>
0

>  <Rbt.Current_Directory>
/home/itssahil/PROJECTS/Mol_Feturizer/New_Systems/rnas/4QLN

>  <Rbt.Executable>
rbdock ($Id: //depot/dev/client3/rdock/2013.1/src/exe/rbdock.cxx#4 $)

>  <Rbt.Library>
libRbt.so (2013.1, Build901 2013/11/27)

>  <Rbt.Parameter_File>
/export/apps/rDock/src/rDock_2013.1_src/data/scripts/dock_solv.prm

>  <Rbt.Receptor>
prm/pocket_docking_6.prm

>  <SCORE>
-11.3757

>  <SCORE.INTER>
-11.5248

>  <SCORE.INTER.CONST>
1

>  <SCORE.INTER.POLAR>
0

>  <SCORE.INTER.ROT>
2

>  <SCORE.INTER.SOLV>
14.5368

>  <SCORE.INTER.VDW>
-17.4621

>  <SCORE.INTER.norm>
-0.274399

>  <SCORE.INTRA>
0.138258

>  <SCORE.INTRA.DIHEDRAL>
-0.000429384

>  <SCORE.INTRA.DIHEDRAL.0>
2.39985

>  <SCORE.INTRA.POLAR>
0

>  <SCORE.INTRA.POLAR.0>
0

>  <SCORE.INTRA.REPUL>
0

>  <SCORE.INTRA.REPUL.0>
0

>  <SCORE.INTRA.SOLV>
0.00922404

>  <SCORE.INTRA.SOLV.lig_0>
-110.958

>  <SCORE.INTRA.VDW>
0.133861

>  <SCORE.INTRA.VDW.0>
-2.34644

>  <SCORE.INTRA.norm>
0.00329187

>  <SCORE.RESTR>
0.0108388

>  <SCORE.RESTR.CAVITY>
0.0108388

>  <SCORE.RESTR.norm>
0.000258066

>  <SCORE.SYSTEM>
0

>  <SCORE.SYSTEM.CONST>
0

>  <SCORE.SYSTEM.DIHEDRAL>
0

>  <SCORE.SYSTEM.SOLV>
0

>  <SCORE.SYSTEM.norm>
0

>  <SCORE.heavy>
42

>  <SCORE.norm>
-0.270849

>  <RMSD>
6.490

$$$$
ligand
 OpenBabel11021811513D
libRbt.so/2013.1/901 2013/11/27
 42 48  0  0  0  0  0  0  0  0999 V2000
    6.1097  -32.1011  -12.6079 P   0  0  2  0  0  0  0  0  0  0  0  0
    3.5408  -34.4644  -16.2590 P   0  0  1  0  0  0  0  0  0  0  0  0
    6.4132  -30.6298  -12.7688 O   0  5  0  0  0  0  0  0  0  0  0  0
    4.0738  -35.6316  -15.4628 O   0  5  0  0  0  0  0  0  0  0  0  0
    6.8457  -32.9126  -11.5688 O   0  0  0  0  0  0  0  0  0  0  0  0
    2.4721  -34.6882  -17.3017 O   0  0  0  0  0  0  0  0  0  0  0  0
    7.3018  -32.3506  -14.9475 C   0  0  0  0  0  0  0  0  0  0  0  0
    1.9693  -33.6554  -14.3022 C   0  0  0  0  0  0  0  0  0  0  0  0
    6.3064  -32.8149  -14.0372 O   0  0  0  0  0  0  0  0  0  0  0  0
    3.0114  -33.3490  -15.2255 O   0  0  0  0  0  0  0  0  0  0  0  0
    6.8408  -32.6063  -16.3775 C   0  0  1  0  0  0  0  0  0  0  0  0
    2.3867  -33.2275  -12.9009 C   0  0  1  0  0  0  0  0  0  0  0  0
    7.9742  -32.6507  -17.2487 O   0  0  0  0  0  0  0  0  0  0  0  0
    1.6520  -33.9756  -11.9291 O   0  0  0  0  0  0  0  0  0  0  0  0
    6.1134  -33.9353  -16.4924 C   0  0  1  0  0  0  0  0  0  0  0  0
    3.8663  -33.4843  -12.6632 C   0  0  1  0  0  0  0  0  0  0  0  0
    4.7861  -33.7266  -16.9653 O   0  0  0  0  0  0  0  0  0  0  0  0
    4.5294  -32.2635  -12.3484 O   0  0  0  0  0  0  0  0  0  0  0  0
    6.8959  -34.7682  -17.4906 C   0  0  0  0  0  0  0  0  0  0  0  0
    3.9532  -34.4408  -11.4896 C   0  0  0  0  0  0  0  0  0  0  0  0
    8.0662  -33.9027  -17.9337 C   0  0  2  0  0  0  0  0  0  0  0  0
    2.5175  -34.7195  -11.0679 C   0  0  2  0  0  0  0  0  0  0  0  0
   10.5138  -37.2195  -14.6800 N   0  0  0  0  0  0  0  0  0  0  0  0
    9.2318  -36.8104  -14.6992 C   0  0  0  0  0  0  0  0  0  0  0  0
    8.7366  -35.9451  -15.6031 N   0  0  0  0  0  0  0  0  0  0  0  0
    9.5267  -35.4243  -16.5724 C   0  0  0  0  0  0  0  0  0  0  0  0
   10.9420  -35.8235  -16.6184 C   0  0  0  0  0  0  0  0  0  0  0  0
   11.4131  -36.7798  -15.5886 C   0  0  0  0  0  0  0  0  0  0  0  0
   12.7010  -37.1997  -15.5594 N   0  0  0  0  0  0  0  0  0  0  0  0
   11.4912  -35.1714  -17.6603 N   0  0  0  0  0  0  0  0  0  0  0  0
   10.5150  -34.4205  -18.2315 C   0  0  0  0  0  0  0  0  0  0  0  0
    9.3439  -34.5713  -17.5834 N   0  0  0  0  0  0  0  0  0  0  0  0
    0.7647  -38.5587  -14.1921 N   0  0  0  0  0  0  0  0  0  0  0  0
    0.8986  -37.2406  -14.4289 C   0  0  0  0  0  0  0  0  0  0  0  0
    1.3674  -36.3625  -13.5241 N   0  0  0  0  0  0  0  0  0  0  0  0
    1.7413  -36.7724  -12.2879 C   0  0  0  0  0  0  0  0  0  0  0  0
    1.6247  -38.2000  -11.9526 C   0  0  0  0  0  0  0  0  0  0  0  0
    1.0998  -39.1041  -13.0030 C   0  0  0  0  0  0  0  0  0  0  0  0
    0.9610  -40.4336  -12.7769 N   0  0  0  0  0  0  0  0  0  0  0  0
    2.0569  -38.3329  -10.6844 N   0  0  0  0  0  0  0  0  0  0  0  0
    2.4178  -37.0993  -10.2462 C   0  0  0  0  0  0  0  0  0  0  0  0
    2.2297  -36.1698  -11.2011 N   0  0  0  0  0  0  0  0  0  0  0  0
  1  3  1  6  0  0  0
  1  5  2  0  0  0  0
  1  9  1  0  0  0  0
  1 18  1  0  0  0  0
  2  4  1  1  0  0  0
  2  6  2  0  0  0  0
  2 10  1  0  0  0  0
  2 17  1  0  0  0  0
  7  9  1  0  0  0  0
  8 10  1  0  0  0  0
 11  7  1  1  0  0  0
 11 13  1  0  0  0  0
 11 15  1  0  0  0  0
 12  8  1  6  0  0  0
 12 14  1  0  0  0  0
 12 16  1  0  0  0  0
 13 21  1  0  0  0  0
 14 22  1  0  0  0  0
 15 17  1  6  0  0  0
 15 19  1  0  0  0  0
 16 18  1  1  0  0  0
 16 20  1  0  0  0  0
 19 21  1  0  0  0  0
 20 22  1  0  0  0  0
 21 32  1  1  0  0  0
 22 42  1  6  0  0  0
 23 24  2  0  0  0  0
 23 28  1  0  0  0  0
 24 25  1  0  0  0  0
 25 26  2  0  0  0  0
 26 27  1  0  0  0  0
 26 32  1  0  0  0  0
 27 28  2  0  0  0  0
 27 30  1  0  0  0  0
 28 29  1  0  0  0  0
 30 31  2  0  0  0  0
 31 32  1  0  0  0  0
 33 34  2  0  0  0  0
 33 38  1  0  0  0  0
 34 35  1  0  0  0  0
 35 36  2  0  0  0  0
 36 37  1  0  0  0  0
 36 42  1  0  0  0  0
 37 38  2  0  0  0  0
 37 40  1  0  0  0  0
 38 39  1  0  0  0  0
 40 41  2  0  0  0  0
 41 42  1  0  0  0  0
M  CHG  2   3  -1   4  -1
M  END
>  <CHROM.1>
90.64149625,28.06676529,5.34493098,-34.89445344,-14.44240494,0.13450960,0.46697145
0.08892313

>  <Name>
ligand

>  <RI>
0

>  <Rbt.Current_Directory>
/home/itssahil/PROJECTS/Mol_Feturizer/New_Systems/rnas/4QLN

>  <Rbt.Executable>
rbdock ($Id: //depot/dev/client3/rdock/2013.1/src/exe/rbdock.cxx#4 $)

>  <Rbt.Library>
libRbt.so (2013.1, Build901 2013/11/27)

>  <Rbt.Parameter_File>
/export/apps/rDock/src/rDock_2013.1_src/data/scripts/dock_solv.prm

>  <Rbt.Receptor>
prm/pocket_docking_8.prm

>  <SCORE>
-10.0921

>  <SCORE.INTER>
-10.659

>  <SCORE.INTER.CONST>
1

>  <SCORE.INTER.POLAR>
0

>  <SCORE.INTER.ROT>
2

>  <SCORE.INTER.SOLV>
17.6036

>  <SCORE.INTER.VDW>
-17.9072

>  <SCORE.INTER.norm>
-0.253786

>  <SCORE.INTRA>
0.566859

>  <SCORE.INTRA.DIHEDRAL>
-0.000337697

>  <SCORE.INTRA.DIHEDRAL.0>
2.39985

>  <SCORE.INTRA.POLAR>
0

>  <SCORE.INTRA.POLAR.0>
0

>  <SCORE.INTRA.REPUL>
0

>  <SCORE.INTRA.REPUL.0>
0

>  <SCORE.INTRA.SOLV>
0.321829

>  <SCORE.INTRA.SOLV.lig_0>
-110.958

>  <SCORE.INTRA.VDW>
0.406114

>  <SCORE.INTRA.VDW.0>
-2.34644

>  <SCORE.INTRA.norm>
0.0134967

>  <SCORE.RESTR>
0

>  <SCORE.RESTR.CAVITY>
0

>  <SCORE.RESTR.norm>
0

>  <SCORE.SYSTEM>
0

>  <SCORE.SYSTEM.CONST>
0

>  <SCORE.SYSTEM.DIHEDRAL>
0

>  <SCORE.SYSTEM.SOLV>
0

>  <SCORE.SYSTEM.norm>
0

>  <SCORE.heavy>
42

>  <SCORE.norm>
-0.240289

>  <RMSD>
6.491

$$$$
ligand
 OpenBabel11021811513D
libRbt.so/2013.1/901 2013/11/27
 42 48  0  0  0  0  0  0  0  0999 V2000
    6.6099  -37.2535   -9.9961 P   0  0  2  0  0  0  0  0  0  0  0  0
    6.5731  -33.2397  -13.0624 P   0  0  1  0  0  0  0  0  0  0  0  0
    7.2921  -37.1355   -8.6531 O   0  5  0  0  0  0  0  0  0  0  0  0
    6.1505  -34.3416  -14.0047 O   0  5  0  0  0  0  0  0  0  0  0  0
    6.2613  -38.6157  -10.5464 O   0  0  0  0  0  0  0  0  0  0  0  0
    6.4325  -31.7956  -13.4797 O   0  0  0  0  0  0  0  0  0  0  0  0
    8.9309  -36.4627  -10.9681 C   0  0  0  0  0  0  0  0  0  0  0  0
    4.3665  -33.4157  -11.6294 C   0  0  0  0  0  0  0  0  0  0  0  0
    7.5094  -36.4842  -11.0869 O   0  0  0  0  0  0  0  0  0  0  0  0
    5.7915  -33.4405  -11.6691 O   0  0  0  0  0  0  0  0  0  0  0  0
    9.4711  -35.1706  -11.5691 C   0  0  1  0  0  0  0  0  0  0  0  0
    3.8559  -34.6324  -10.8678 C   0  0  1  0  0  0  0  0  0  0  0  0
   10.8417  -35.3465  -11.9379 O   0  0  0  0  0  0  0  0  0  0  0  0
    2.5119  -34.9191  -11.2620 O   0  0  0  0  0  0  0  0  0  0  0  0
    8.6997  -34.7794  -12.8183 C   0  0  1  0  0  0  0  0  0  0  0  0
    4.6992  -35.8625  -11.1635 C   0  0  1  0  0  0  0  0  0  0  0  0
    8.1074  -33.4956  -12.6449 O   0  0  0  0  0  0  0  0  0  0  0  0
    5.2676  -36.3661   -9.9583 O   0  0  0  0  0  0  0  0  0  0  0  0
    9.7089  -34.7377  -13.9506 C   0  0  0  0  0  0  0  0  0  0  0  0
    3.7618  -36.8912  -11.7658 C   0  0  0  0  0  0  0  0  0  0  0  0
   11.0488  -35.1089  -13.3329 C   0  0  2  0  0  0  0  0  0  0  0  0
    2.3889  -36.2354  -11.8064 C   0  0  2  0  0  0  0  0  0  0  0  0
    9.9985  -40.0115  -14.8948 N   0  0  0  0  0  0  0  0  0  0  0  0
    9.2080  -39.1051  -14.2907 C   0  0  0  0  0  0  0  0  0  0  0  0
    9.6163  -37.8708  -13.9430 N   0  0  0  0  0  0  0  0  0  0  0  0
   10.8837  -37.4622  -14.1910 C   0  0  0  0  0  0  0  0  0  0  0  0
   11.8096  -38.3968  -14.8498 C   0  0  0  0  0  0  0  0  0  0  0  0
   11.2864  -39.7383  -15.2015 C   0  0  0  0  0  0  0  0  0  0  0  0
   12.0720  -40.6589  -15.8105 N   0  0  0  0  0  0  0  0  0  0  0  0
   12.9834  -37.7498  -14.9755 N   0  0  0  0  0  0  0  0  0  0  0  0
   12.8247  -36.5105  -14.4443 C   0  0  0  0  0  0  0  0  0  0  0  0
   11.5731  -36.3388  -13.9769 N   0  0  0  0  0  0  0  0  0  0  0  0
    2.3110  -33.4159  -16.2354 N   0  0  0  0  0  0  0  0  0  0  0  0
    2.8938  -33.1545  -15.0507 C   0  0  0  0  0  0  0  0  0  0  0  0
    2.8308  -33.9780  -13.9889 N   0  0  0  0  0  0  0  0  0  0  0  0
    2.1560  -35.1509  -14.0591 C   0  0  0  0  0  0  0  0  0  0  0  0
    1.4916  -35.5082  -15.3220 C   0  0  0  0  0  0  0  0  0  0  0  0
    1.6071  -34.5490  -16.4458 C   0  0  0  0  0  0  0  0  0  0  0  0
    1.0253  -34.8012  -17.6441 N   0  0  0  0  0  0  0  0  0  0  0  0
    0.9051  -36.7036  -15.1223 N   0  0  0  0  0  0  0  0  0  0  0  0
    1.1702  -37.0783  -13.8443 C   0  0  0  0  0  0  0  0  0  0  0  0
    1.9150  -36.1535  -13.2110 N   0  0  0  0  0  0  0  0  0  0  0  0
  1  3  1  1  0  0  0
  1  5  2  0  0  0  0
  1  9  1  0  0  0  0
  1 18  1  0  0  0  0
  2  4  1  6  0  0  0
  2  6  2  0  0  0  0
  2 10  1  0  0  0  0
  2 17  1  0  0  0  0
  7  9  1  0  0  0  0
  8 10  1  0  0  0  0
 11  7  1  6  0  0  0
 11 13  1  0  0  0  0
 11 15  1  0  0  0  0
 12  8  1  6  0  0  0
 12 14  1  0  0  0  0
 12 16  1  0  0  0  0
 13 21  1  0  0  0  0
 14 22  1  0  0  0  0
 15 17  1  1  0  0  0
 15 19  1  0  0  0  0
 16 18  1  1  0  0  0
 16 20  1  0  0  0  0
 19 21  1  0  0  0  0
 20 22  1  0  0  0  0
 21 32  1  6  0  0  0
 22 42  1  6  0  0  0
 23 24  2  0  0  0  0
 23 28  1  0  0  0  0
 24 25  1  0  0  0  0
 25 26  2  0  0  0  0
 26 27  1  0  0  0  0
 26 32  1  0  0  0  0
 27 28  2  0  0  0  0
 27 30  1  0  0  0  0
 28 29  1  0  0  0  0
 30 31  2  0  0  0  0
 31 32  1  0  0  0  0
 33 34  2  0  0  0  0
 33 38  1  0  0  0  0
 34 35  1  0  0  0  0
 35 36  2  0  0  0  0
 36 37  1  0  0  0  0
 36 42  1  0  0  0  0
 37 38  2  0  0  0  0
 37 40  1  0  0  0  0
 38 39  1  0  0  0  0
 40 41  2  0  0  0  0
 41 42  1  0  0  0  0
M  CHG  2   3  -1   4  -1
M  END
>  <CHROM.1>
70.50604007,29.90202329,6.59321563,-35.87361707,-13.04406316,-0.01564587
-0.30001847,1.49700739

>  <Name>
ligand

>  <RI>
0

>  <Rbt.Current_Directory>
/home/itssahil/PROJECTS/Mol_Feturizer/New_Systems/rnas/4QLN

>  <Rbt.Executable>
rbdock ($Id: //depot/dev/client3/rdock/2013.1/src/exe/rbdock.cxx#4 $)

>  <Rbt.Library>
libRbt.so (2013.1, Build901 2013/11/27)

>  <Rbt.Parameter_File>
/export/apps/rDock/src/rDock_2013.1_src/data/scripts/dock_solv.prm

>  <Rbt.Receptor>
prm/pocket_docking_6.prm

>  <SCORE>
-8.92712

>  <SCORE.INTER>
-8.49217

>  <SCORE.INTER.CONST>
1

>  <SCORE.INTER.POLAR>
0

>  <SCORE.INTER.ROT>
2

>  <SCORE.INTER.SOLV>
17.5213

>  <SCORE.INTER.VDW>
-16.4352

>  <SCORE.INTER.norm>
-0.202195

>  <SCORE.INTRA>
-0.434955

>  <SCORE.INTRA.DIHEDRAL>
-0.000466341

>  <SCORE.INTRA.DIHEDRAL.0>
2.39985

>  <SCORE.INTRA.POLAR>
0

>  <SCORE.INTRA.POLAR.0>
0

>  <SCORE.INTRA.REPUL>
0

>  <SCORE.INTRA.REPUL.0>
0

>  <SCORE.INTRA.SOLV>
0.414126

>  <SCORE.INTRA.SOLV.lig_0>
-110.958

>  <SCORE.INTRA.VDW>
-0.641785

>  <SCORE.INTRA.VDW.0>
-2.34644

>  <SCORE.INTRA.norm>
-0.0103561

>  <SCORE.RESTR>
0

>  <SCORE.RESTR.CAVITY>
0

>  <SCORE.RESTR.norm>
0

>  <SCORE.SYSTEM>
0

>  <SCORE.SYSTEM.CONST>
0

>  <SCORE.SYSTEM.DIHEDRAL>
0

>  <SCORE.SYSTEM.SOLV>
0

>  <SCORE.SYSTEM.norm>
0

>  <SCORE.heavy>
42

>  <SCORE.norm>
-0.212551

>  <RMSD>
6.539

$$$$
ligand
 OpenBabel11021811513D
libRbt.so/2013.1/901 2013/11/27
 42 48  0  0  0  0  0  0  0  0999 V2000
    7.9319  -30.6775  -12.8706 P   0  0  2  0  0  0  0  0  0  0  0  0
    6.9183  -33.4582  -16.9639 P   0  0  1  0  0  0  0  0  0  0  0  0
    8.3705  -29.2437  -13.0567 O   0  5  0  0  0  0  0  0  0  0  0  0
    7.0041  -34.5197  -15.8933 O   0  5  0  0  0  0  0  0  0  0  0  0
    8.1274  -31.3576  -11.5367 O   0  0  0  0  0  0  0  0  0  0  0  0
    6.3530  -33.8004  -18.3214 O   0  0  0  0  0  0  0  0  0  0  0  0
    9.9523  -31.2442  -14.4688 C   0  0  0  0  0  0  0  0  0  0  0  0
    4.7442  -32.3812  -15.9310 C   0  0  0  0  0  0  0  0  0  0  0  0
    8.6449  -31.5730  -14.0024 O   0  0  0  0  0  0  0  0  0  0  0  0
    6.0893  -32.2111  -16.3721 O   0  0  0  0  0  0  0  0  0  0  0  0
   10.0962  -31.6765  -15.9231 C   0  0  1  0  0  0  0  0  0  0  0  0
    4.5837  -31.7812  -14.5398 C   0  0  1  0  0  0  0  0  0  0  0  0
   11.4801  -31.8488  -16.2401 O   0  0  0  0  0  0  0  0  0  0  0  0
    3.4702  -32.3870  -13.8788 O   0  0  0  0  0  0  0  0  0  0  0  0
    9.3926  -32.9990  -16.1768 C   0  0  1  0  0  0  0  0  0  0  0  0
    5.8189  -32.0253  -13.6875 C   0  0  1  0  0  0  0  0  0  0  0  0
    8.3886  -32.8351  -17.1737 O   0  0  0  0  0  0  0  0  0  0  0  0
    6.3755  -30.7832  -13.2674 O   0  0  0  0  0  0  0  0  0  0  0  0
   10.4566  -33.9648  -16.6643 C   0  0  0  0  0  0  0  0  0  0  0  0
    5.3586  -32.8229  -12.4827 C   0  0  0  0  0  0  0  0  0  0  0  0
   11.7600  -33.1801  -16.6812 C   0  0  2  0  0  0  0  0  0  0  0  0
    3.8605  -33.0250  -12.6602 C   0  0  2  0  0  0  0  0  0  0  0  0
   12.9741  -34.3287  -11.7028 N   0  0  0  0  0  0  0  0  0  0  0  0
   11.9076  -33.6825  -12.2089 C   0  0  0  0  0  0  0  0  0  0  0  0
   11.7249  -33.4562  -13.5229 N   0  0  0  0  0  0  0  0  0  0  0  0
   12.6328  -33.8806  -14.4342 C   0  0  0  0  0  0  0  0  0  0  0  0
   13.8273  -34.5962  -13.9589 C   0  0  0  0  0  0  0  0  0  0  0  0
   13.9579  -34.8064  -12.4974 C   0  0  0  0  0  0  0  0  0  0  0  0
   15.0264  -35.4560  -11.9760 N   0  0  0  0  0  0  0  0  0  0  0  0
   14.5524  -34.9009  -15.0514 N   0  0  0  0  0  0  0  0  0  0  0  0
   13.8827  -34.4231  -16.1314 C   0  0  0  0  0  0  0  0  0  0  0  0
   12.7384  -33.8152  -15.7638 N   0  0  0  0  0  0  0  0  0  0  0  0
    3.2421  -37.5058   -9.9933 N   0  0  0  0  0  0  0  0  0  0  0  0
    3.5413  -36.2691   -9.5544 C   0  0  0  0  0  0  0  0  0  0  0  0
    3.6702  -35.2004  -10.3612 N   0  0  0  0  0  0  0  0  0  0  0  0
    3.4998  -35.3170  -11.7003 C   0  0  0  0  0  0  0  0  0  0  0  0
    3.1702  -36.6381  -12.2573 C   0  0  0  0  0  0  0  0  0  0  0  0
    3.0452  -37.7657  -11.3038 C   0  0  0  0  0  0  0  0  0  0  0  0
    2.7434  -39.0157  -11.7335 N   0  0  0  0  0  0  0  0  0  0  0  0
    3.0565  -36.4756  -13.5890 N   0  0  0  0  0  0  0  0  0  0  0  0
    3.2929  -35.1663  -13.8607 C   0  0  0  0  0  0  0  0  0  0  0  0
    3.5571  -34.4763  -12.7360 N   0  0  0  0  0  0  0  0  0  0  0  0
  1  3  1  1  0  0  0
  1  5  2  0  0  0  0
  1  9  1  0  0  0  0
  1 18  1  0  0  0  0
  2  4  1  1  0  0  0
  2  6  2  0  0  0  0
  2 10  1  0  0  0  0
  2 17  1  0  0  0  0
  7  9  1  0  0  0  0
  8 10  1  0  0  0  0
 11  7  1  1  0  0  0
 11 13  1  0  0  0  0
 11 15  1  0  0  0  0
 12  8  1  6  0  0  0
 12 14  1  0  0  0  0
 12 16  1  0  0  0  0
 13 21  1  0  0  0  0
 14 22  1  0  0  0  0
 15 17  1  6  0  0  0
 15 19  1  0  0  0  0
 16 18  1  1  0  0  0
 16 20  1  0  0  0  0
 19 21  1  0  0  0  0
 20 22  1  0  0  0  0
 21 32  1  1  0  0  0
 22 42  1  6  0  0  0
 23 24  2  0  0  0  0
 23 28  1  0  0  0  0
 24 25  1  0  0  0  0
 25 26  2  0  0  0  0
 26 27  1  0  0  0  0
 26 32  1  0  0  0  0
 27 28  2  0  0  0  0
 27 30  1  0  0  0  0
 28 29  1  0  0  0  0
 30 31  2  0  0  0  0
 31 32  1  0  0  0  0
 33 34  2  0  0  0  0
 33 38  1  0  0  0  0
 34 35  1  0  0  0  0
 35 36  2  0  0  0  0
 36 37  1  0  0  0  0
 36 42  1  0  0  0  0
 37 38  2  0  0  0  0
 37 40  1  0  0  0  0
 38 39  1  0  0  0  0
 40 41  2  0  0  0  0
 41 42  1  0  0  0  0
M  CHG  2   3  -1   4  -1
M  END
>  <CHROM.1>
51.68118688,-163.76432934,7.83631937,-33.55424680,-14.00151150,0.30225047
0.03393656,-0.80885450

>  <Name>
ligand

>  <RI>
0

>  <Rbt.Current_Directory>
/home/itssahil/PROJECTS/Mol_Feturizer/New_Systems/rnas/4QLN

>  <Rbt.Executable>
rbdock ($Id: //depot/dev/client3/rdock/2013.1/src/exe/rbdock.cxx#4 $)

>  <Rbt.Library>
libRbt.so (2013.1, Build901 2013/11/27)

>  <Rbt.Parameter_File>
/export/apps/rDock/src/rDock_2013.1_src/data/scripts/dock_solv.prm

>  <Rbt.Receptor>
prm/pocket_docking_7.prm

>  <SCORE>
-15.0038

>  <SCORE.INTER>
-14.9172

>  <SCORE.INTER.CONST>
1

>  <SCORE.INTER.POLAR>
0

>  <SCORE.INTER.ROT>
2

>  <SCORE.INTER.SOLV>
21.7179

>  <SCORE.INTER.VDW>
-22.1174

>  <SCORE.INTER.norm>
-0.355171

>  <SCORE.INTRA>
-0.0866465

>  <SCORE.INTRA.DIHEDRAL>
0.000604054

>  <SCORE.INTRA.DIHEDRAL.0>
2.39985

>  <SCORE.INTRA.POLAR>
0

>  <SCORE.INTRA.POLAR.0>
0

>  <SCORE.INTRA.REPUL>
0

>  <SCORE.INTRA.REPUL.0>
0

>  <SCORE.INTRA.SOLV>
-0.0810237

>  <SCORE.INTRA.SOLV.lig_0>
-110.958

>  <SCORE.INTRA.VDW>
-0.0464367

>  <SCORE.INTRA.VDW.0>
-2.34644

>  <SCORE.INTRA.norm>
-0.00206301

>  <SCORE.RESTR>
0

>  <SCORE.RESTR.CAVITY>
0

>  <SCORE.RESTR.norm>
0

>  <SCORE.SYSTEM>
0

>  <SCORE.SYSTEM.CONST>
0

>  <SCORE.SYSTEM.DIHEDRAL>
0

>  <SCORE.SYSTEM.SOLV>
0

>  <SCORE.SYSTEM.norm>
0

>  <SCORE.heavy>
42

>  <SCORE.norm>
-0.357234

>  <RMSD>
6.551

$$$$
ligand
 OpenBabel11021811513D
libRbt.so/2013.1/901 2013/11/27
 42 48  0  0  0  0  0  0  0  0999 V2000
    7.9675  -30.6954  -12.8931 P   0  0  2  0  0  0  0  0  0  0  0  0
    6.9326  -33.4968  -16.9669 P   0  0  1  0  0  0  0  0  0  0  0  0
    8.4144  -29.2655  -13.0891 O   0  5  0  0  0  0  0  0  0  0  0  0
    7.0133  -34.5517  -15.8894 O   0  5  0  0  0  0  0  0  0  0  0  0
    8.1604  -31.3679  -11.5550 O   0  0  0  0  0  0  0  0  0  0  0  0
    6.3637  -33.8445  -18.3215 O   0  0  0  0  0  0  0  0  0  0  0  0
    9.9826  -31.2847  -14.4897 C   0  0  0  0  0  0  0  0  0  0  0  0
    4.7662  -32.4000  -15.9387 C   0  0  0  0  0  0  0  0  0  0  0  0
    8.6738  -31.6026  -14.0197 O   0  0  0  0  0  0  0  0  0  0  0  0
    6.1117  -32.2409  -16.3824 O   0  0  0  0  0  0  0  0  0  0  0  0
   10.1222  -31.7274  -15.9413 C   0  0  1  0  0  0  0  0  0  0  0  0
    4.6108  -31.7899  -14.5513 C   0  0  1  0  0  0  0  0  0  0  0  0
   11.5047  -31.9101  -16.2587 O   0  0  0  0  0  0  0  0  0  0  0  0
    3.4944  -32.3847  -13.8851 O   0  0  0  0  0  0  0  0  0  0  0  0
    9.4105  -33.0473  -16.1855 C   0  0  1  0  0  0  0  0  0  0  0  0
    5.8455  -32.0358  -13.6988 C   0  0  1  0  0  0  0  0  0  0  0  0
    8.4063  -32.8839  -17.1824 O   0  0  0  0  0  0  0  0  0  0  0  0
    6.4100  -30.7944  -13.2874 O   0  0  0  0  0  0  0  0  0  0  0  0
   10.4681  -34.0226  -16.6678 C   0  0  0  0  0  0  0  0  0  0  0  0
    5.3818  -32.8227  -12.4883 C   0  0  0  0  0  0  0  0  0  0  0  0
   11.7762  -33.2459  -16.6913 C   0  0  2  0  0  0  0  0  0  0  0  0
    3.8823  -33.0170  -12.6628 C   0  0  2  0  0  0  0  0  0  0  0  0
   12.9984  -34.3525  -11.7053 N   0  0  0  0  0  0  0  0  0  0  0  0
   11.9364  -33.7012  -12.2144 C   0  0  0  0  0  0  0  0  0  0  0  0
   11.7509  -33.4873  -13.5300 N   0  0  0  0  0  0  0  0  0  0  0  0
   12.6508  -33.9307  -14.4402 C   0  0  0  0  0  0  0  0  0  0  0  0
   13.8399  -34.6531  -13.9617 C   0  0  0  0  0  0  0  0  0  0  0  0
   13.9742  -34.8487  -12.4986 C   0  0  0  0  0  0  0  0  0  0  0  0
   15.0382  -35.5034  -11.9742 N   0  0  0  0  0  0  0  0  0  0  0  0
   14.5576  -34.9769  -15.0536 N   0  0  0  0  0  0  0  0  0  0  0  0
   13.8885  -34.5042  -16.1362 C   0  0  0  0  0  0  0  0  0  0  0  0
   12.7517  -33.8808  -15.7708 N   0  0  0  0  0  0  0  0  0  0  0  0
    3.0071  -37.4269   -9.9501 N   0  0  0  0  0  0  0  0  0  0  0  0
    3.2842  -36.1829   -9.5177 C   0  0  0  0  0  0  0  0  0  0  0  0
    3.4878  -35.1350  -10.3363 N   0  0  0  0  0  0  0  0  0  0  0  0
    3.4223  -35.2821  -11.6816 C   0  0  0  0  0  0  0  0  0  0  0  0
    3.1233  -36.6131  -12.2322 C   0  0  0  0  0  0  0  0  0  0  0  0
    2.9113  -37.7164  -11.2657 C   0  0  0  0  0  0  0  0  0  0  0  0
    2.6309  -38.9735  -11.6888 N   0  0  0  0  0  0  0  0  0  0  0  0
    3.1167  -36.4815  -13.5721 N   0  0  0  0  0  0  0  0  0  0  0  0
    3.3879  -35.1812  -13.8545 C   0  0  0  0  0  0  0  0  0  0  0  0
    3.5701  -34.4669  -12.7287 N   0  0  0  0  0  0  0  0  0  0  0  0
  1  3  1  6  0  0  0
  1  5  2  0  0  0  0
  1  9  1  0  0  0  0
  1 18  1  0  0  0  0
  2  4  1  1  0  0  0
  2  6  2  0  0  0  0
  2 10  1  0  0  0  0
  2 17  1  0  0  0  0
  7  9  1  0  0  0  0
  8 10  1  0  0  0  0
 11  7  1  1  0  0  0
 11 13  1  0  0  0  0
 11 15  1  0  0  0  0
 12  8  1  6  0  0  0
 12 14  1  0  0  0  0
 12 16  1  0  0  0  0
 13 21  1  0  0  0  0
 14 22  1  0  0  0  0
 15 17  1  6  0  0  0
 15 19  1  0  0  0  0
 16 18  1  1  0  0  0
 16 20  1  0  0  0  0
 19 21  1  0  0  0  0
 20 22  1  0  0  0  0
 21 32  1  1  0  0  0
 22 42  1  6  0  0  0
 23 24  2  0  0  0  0
 23 28  1  0  0  0  0
 24 25  1  0  0  0  0
 25 26  2  0  0  0  0
 26 27  1  0  0  0  0
 26 32  1  0  0  0  0
 27 28  2  0  0  0  0
 27 30  1  0  0  0  0
 28 29  1  0  0  0  0
 30 31  2  0  0  0  0
 31 32  1  0  0  0  0
 33 34  2  0  0  0  0
 33 38  1  0  0  0  0
 34 35  1  0  0  0  0
 35 36  2  0  0  0  0
 36 37  1  0  0  0  0
 36 42  1  0  0  0  0
 37 38  2  0  0  0  0
 37 40  1  0  0  0  0
 38 39  1  0  0  0  0
 40 41  2  0  0  0  0
 41 42  1  0  0  0  0
M  CHG  2   3  -1   4  -1
M  END
>  <CHROM.1>
51.30583856,-159.06542247,7.83498875,-33.57346525,-14.00352407,0.30112883
0.03848956,-0.82176499

>  <Name>
ligand

>  <RI>
0

>  <Rbt.Current_Directory>
/home/itssahil/PROJECTS/Mol_Feturizer/New_Systems/rnas/4QLN

>  <Rbt.Executable>
rbdock ($Id: //depot/dev/client3/rdock/2013.1/src/exe/rbdock.cxx#4 $)

>  <Rbt.Library>
libRbt.so (2013.1, Build901 2013/11/27)

>  <Rbt.Parameter_File>
/export/apps/rDock/src/rDock_2013.1_src/data/scripts/dock_solv.prm

>  <Rbt.Receptor>
prm/pocket_docking_7.prm

>  <SCORE>
-14.9868

>  <SCORE.INTER>
-14.8432

>  <SCORE.INTER.CONST>
1

>  <SCORE.INTER.POLAR>
0

>  <SCORE.INTER.ROT>
2

>  <SCORE.INTER.SOLV>
21.3108

>  <SCORE.INTER.VDW>
-21.9324

>  <SCORE.INTER.norm>
-0.35341

>  <SCORE.INTRA>
-0.143547

>  <SCORE.INTRA.DIHEDRAL>
0.00070343

>  <SCORE.INTRA.DIHEDRAL.0>
2.39985

>  <SCORE.INTRA.POLAR>
0

>  <SCORE.INTRA.POLAR.0>
0

>  <SCORE.INTRA.REPUL>
0

>  <SCORE.INTRA.REPUL.0>
0

>  <SCORE.INTRA.SOLV>
-0.0798859

>  <SCORE.INTRA.SOLV.lig_0>
-110.958

>  <SCORE.INTRA.VDW>
-0.103956

>  <SCORE.INTRA.VDW.0>
-2.34644

>  <SCORE.INTRA.norm>
-0.00341779

>  <SCORE.RESTR>
0

>  <SCORE.RESTR.CAVITY>
0

>  <SCORE.RESTR.norm>
0

>  <SCORE.SYSTEM>
0

>  <SCORE.SYSTEM.CONST>
0

>  <SCORE.SYSTEM.DIHEDRAL>
0

>  <SCORE.SYSTEM.SOLV>
0

>  <SCORE.SYSTEM.norm>
0

>  <SCORE.heavy>
42

>  <SCORE.norm>
-0.356828

>  <RMSD>
6.557

$$$$
ligand
 OpenBabel11021811513D
libRbt.so/2013.1/901 2013/11/27
 42 48  0  0  0  0  0  0  0  0999 V2000
    8.3312  -31.3793  -14.9699 P   0  0  2  0  0  0  0  0  0  0  0  0
    5.9732  -35.3893  -16.9381 P   0  0  1  0  0  0  0  0  0  0  0  0
    8.8993  -30.3385  -15.9064 O   0  5  0  0  0  0  0  0  0  0  0  0
    6.1770  -35.8322  -15.5088 O   0  5  0  0  0  0  0  0  0  0  0  0
    8.7567  -31.4010  -13.5213 O   0  0  0  0  0  0  0  0  0  0  0  0
    5.0495  -36.1673  -17.8441 O   0  0  0  0  0  0  0  0  0  0  0  0
    9.7991  -33.0740  -16.3593 C   0  0  0  0  0  0  0  0  0  0  0  0
    4.2871  -33.4779  -16.2622 C   0  0  0  0  0  0  0  0  0  0  0  0
    8.6153  -32.8327  -15.6006 O   0  0  0  0  0  0  0  0  0  0  0  0
    5.4918  -33.8529  -16.9261 O   0  0  0  0  0  0  0  0  0  0  0  0
    9.5198  -34.1420  -17.4100 C   0  0  1  0  0  0  0  0  0  0  0  0
    4.5573  -32.2910  -15.3461 C   0  0  1  0  0  0  0  0  0  0  0  0
   10.7463  -34.7633  -17.8038 O   0  0  0  0  0  0  0  0  0  0  0  0
    3.5705  -32.2446  -14.3128 O   0  0  0  0  0  0  0  0  0  0  0  0
    8.6039  -35.2248  -16.8650 C   0  0  1  0  0  0  0  0  0  0  0  0
    5.9203  -32.4054  -14.6820 C   0  0  1  0  0  0  0  0  0  0  0  0
    7.4163  -35.3000  -17.6478 O   0  0  0  0  0  0  0  0  0  0  0  0
    6.7255  -31.2809  -15.0227 O   0  0  0  0  0  0  0  0  0  0  0  0
    9.3744  -36.5283  -16.9627 C   0  0  0  0  0  0  0  0  0  0  0  0
    5.6687  -32.4309  -13.1867 C   0  0  0  0  0  0  0  0  0  0  0  0
   10.7267  -36.1728  -17.5626 C   0  0  2  0  0  0  0  0  0  0  0  0
    4.1600  -32.3291  -13.0130 C   0  0  2  0  0  0  0  0  0  0  0  0
   13.0634  -35.0748  -12.9895 N   0  0  0  0  0  0  0  0  0  0  0  0
   12.0145  -34.4847  -13.5917 C   0  0  0  0  0  0  0  0  0  0  0  0
   11.5164  -34.8765  -14.7789 N   0  0  0  0  0  0  0  0  0  0  0  0
   12.0609  -35.9188  -15.4514 C   0  0  0  0  0  0  0  0  0  0  0  0
   13.2118  -36.6169  -14.8575 C   0  0  0  0  0  0  0  0  0  0  0  0
   13.7035  -36.1264  -13.5481 C   0  0  0  0  0  0  0  0  0  0  0  0
   14.7580  -36.7126  -12.9316 N   0  0  0  0  0  0  0  0  0  0  0  0
   13.5521  -37.5958  -15.7167 N   0  0  0  0  0  0  0  0  0  0  0  0
   12.6957  -37.5313  -16.7682 C   0  0  0  0  0  0  0  0  0  0  0  0
   11.8066  -36.5318  -16.6101 N   0  0  0  0  0  0  0  0  0  0  0  0
    1.2966  -36.7157  -13.3752 N   0  0  0  0  0  0  0  0  0  0  0  0
    1.5592  -35.7724  -14.2986 C   0  0  0  0  0  0  0  0  0  0  0  0
    2.3188  -34.6873  -14.0635 N   0  0  0  0  0  0  0  0  0  0  0  0
    2.8769  -34.4811  -12.8461 C   0  0  0  0  0  0  0  0  0  0  0  0
    2.6361  -35.4690  -11.7830 C   0  0  0  0  0  0  0  0  0  0  0  0
    1.7890  -36.6373  -12.1202 C   0  0  0  0  0  0  0  0  0  0  0  0
    1.5178  -37.5945  -11.1991 N   0  0  0  0  0  0  0  0  0  0  0  0
    3.2953  -35.0295  -10.6944 N   0  0  0  0  0  0  0  0  0  0  0  0
    3.9039  -33.8631  -11.0306 C   0  0  0  0  0  0  0  0  0  0  0  0
    3.6547  -33.5363  -12.3120 N   0  0  0  0  0  0  0  0  0  0  0  0
  1  3  1  6  0  0  0
  1  5  2  0  0  0  0
  1  9  1  0  0  0  0
  1 18  1  0  0  0  0
  2  4  1  1  0  0  0
  2  6  2  0  0  0  0
  2 10  1  0  0  0  0
  2 17  1  0  0  0  0
  7  9  1  0  0  0  0
  8 10  1  0  0  0  0
 11  7  1  1  0  0  0
 11 13  1  0  0  0  0
 11 15  1  0  0  0  0
 12  8  1  6  0  0  0
 12 14  1  0  0  0  0
 12 16  1  0  0  0  0
 13 21  1  0  0  0  0
 14 22  1  0  0  0  0
 15 17  1  6  0  0  0
 15 19  1  0  0  0  0
 16 18  1  1  0  0  0
 16 20  1  0  0  0  0
 19 21  1  0  0  0  0
 20 22  1  0  0  0  0
 21 32  1  1  0  0  0
 22 42  1  6  0  0  0
 23 24  2  0  0  0  0
 23 28  1  0  0  0  0
 24 25  1  0  0  0  0
 25 26  2  0  0  0  0
 26 27  1  0  0  0  0
 26 32  1  0  0  0  0
 27 28  2  0  0  0  0
 27 30  1  0  0  0  0
 28 29  1  0  0  0  0
 30 31  2  0  0  0  0
 31 32  1  0  0  0  0
 33 34  2  0  0  0  0
 33 38  1  0  0  0  0
 34 35  1  0  0  0  0
 35 36  2  0  0  0  0
 36 37  1  0  0  0  0
 36 42  1  0  0  0  0
 37 38  2  0  0  0  0
 37 40  1  0  0  0  0
 38 39  1  0  0  0  0
 40 41  2  0  0  0  0
 41 42  1  0  0  0  0
M  CHG  2   3  -1   4  -1
M  END
>  <CHROM.1>
48.57345976,6.35155570,7.38982044,-34.48775282,-14.90860661,-0.04918932,0.25004149
-0.22173481

>  <Name>
ligand

>  <RI>
0

>  <Rbt.Current_Directory>
/home/itssahil/PROJECTS/Mol_Feturizer/New_Systems/rnas/4QLN

>  <Rbt.Executable>
rbdock ($Id: //depot/dev/client3/rdock/2013.1/src/exe/rbdock.cxx#4 $)

>  <Rbt.Library>
libRbt.so (2013.1, Build901 2013/11/27)

>  <Rbt.Parameter_File>
/export/apps/rDock/src/rDock_2013.1_src/data/scripts/dock_solv.prm

>  <Rbt.Receptor>
prm/pocket_docking_8.prm

>  <SCORE>
-11.179

>  <SCORE.INTER>
-10.8613

>  <SCORE.INTER.CONST>
1

>  <SCORE.INTER.POLAR>
0

>  <SCORE.INTER.ROT>
2

>  <SCORE.INTER.SOLV>
12.1923

>  <SCORE.INTER.VDW>
-16.2383

>  <SCORE.INTER.norm>
-0.258603

>  <SCORE.INTRA>
-0.317698

>  <SCORE.INTRA.DIHEDRAL>
-0.000243198

>  <SCORE.INTRA.DIHEDRAL.0>
2.39985

>  <SCORE.INTRA.POLAR>
0

>  <SCORE.INTRA.POLAR.0>
0

>  <SCORE.INTRA.REPUL>
0

>  <SCORE.INTRA.REPUL.0>
0

>  <SCORE.INTRA.SOLV>
0.00164182

>  <SCORE.INTRA.SOLV.lig_0>
-110.958

>  <SCORE.INTRA.VDW>
-0.318397

>  <SCORE.INTRA.VDW.0>
-2.34644

>  <SCORE.INTRA.norm>
-0.00756423

>  <SCORE.RESTR>
0

>  <SCORE.RESTR.CAVITY>
0

>  <SCORE.RESTR.norm>
0

>  <SCORE.SYSTEM>
0

>  <SCORE.SYSTEM.CONST>
0

>  <SCORE.SYSTEM.DIHEDRAL>
0

>  <SCORE.SYSTEM.SOLV>
0

>  <SCORE.SYSTEM.norm>
0

>  <SCORE.heavy>
42

>  <SCORE.norm>
-0.266167

>  <RMSD>
6.595

$$$$
ligand
 OpenBabel11021811513D
libRbt.so/2013.1/901 2013/11/27
 42 48  0  0  0  0  0  0  0  0999 V2000
    5.0739  -35.7433  -16.7874 P   0  0  2  0  0  0  0  0  0  0  0  0
    6.5579  -31.8440  -13.9400 P   0  0  1  0  0  0  0  0  0  0  0  0
    3.8323  -35.5928  -17.6351 O   0  5  0  0  0  0  0  0  0  0  0  0
    7.3834  -32.9690  -13.3627 O   0  5  0  0  0  0  0  0  0  0  0  0
    5.6481  -37.1159  -16.5300 O   0  0  0  0  0  0  0  0  0  0  0  0
    6.8758  -30.4130  -13.5783 O   0  0  0  0  0  0  0  0  0  0  0  0
    3.4973  -35.0440  -14.7919 C   0  0  0  0  0  0  0  0  0  0  0  0
    7.8115  -31.9151  -16.2588 C   0  0  0  0  0  0  0  0  0  0  0  0
    4.8026  -35.0358  -15.3673 O   0  0  0  0  0  0  0  0  0  0  0  0
    6.5791  -31.9753  -15.5447 O   0  0  0  0  0  0  0  0  0  0  0  0
    3.3055  -33.7878  -13.9505 C   0  0  1  0  0  0  0  0  0  0  0  0
    7.9003  -33.0907  -17.2237 C   0  0  1  0  0  0  0  0  0  0  0  0
    2.2787  -34.0097  -12.9800 O   0  0  0  0  0  0  0  0  0  0  0  0
    9.2702  -33.3594  -17.5320 O   0  0  0  0  0  0  0  0  0  0  0  0
    4.5788  -33.4240  -13.2056 C   0  0  1  0  0  0  0  0  0  0  0  0
    7.3053  -34.3505  -16.6150 C   0  0  1  0  0  0  0  0  0  0  0  0
    5.0116  -32.1211  -13.5850 O   0  0  0  0  0  0  0  0  0  0  0  0
    6.2317  -34.8233  -17.4230 O   0  0  0  0  0  0  0  0  0  0  0  0
    4.2336  -33.4476  -11.7282 C   0  0  0  0  0  0  0  0  0  0  0  0
    8.4202  -35.3778  -16.5785 C   0  0  0  0  0  0  0  0  0  0  0  0
    2.7627  -33.8280  -11.6466 C   0  0  2  0  0  0  0  0  0  0  0  0
    9.6432  -34.6913  -17.1701 C   0  0  2  0  0  0  0  0  0  0  0  0
    5.2239  -37.7812   -9.2191 N   0  0  0  0  0  0  0  0  0  0  0  0
    5.7259  -36.7092   -9.8595 C   0  0  0  0  0  0  0  0  0  0  0  0
    4.9665  -35.7638  -10.4432 N   0  0  0  0  0  0  0  0  0  0  0  0
    3.6145  -35.8430  -10.4156 C   0  0  0  0  0  0  0  0  0  0  0  0
    2.9892  -36.9867   -9.7332 C   0  0  0  0  0  0  0  0  0  0  0  0
    3.8918  -37.9868   -9.1151 C   0  0  0  0  0  0  0  0  0  0  0  0
    3.3985  -39.0696   -8.4670 N   0  0  0  0  0  0  0  0  0  0  0  0
    1.6581  -36.8236   -9.8520 N   0  0  0  0  0  0  0  0  0  0  0  0
    1.4484  -35.6774  -10.5486 C   0  0  0  0  0  0  0  0  0  0  0  0
    2.6145  -35.0926  -10.8845 N   0  0  0  0  0  0  0  0  0  0  0  0
   11.6110  -32.2367  -12.9659 N   0  0  0  0  0  0  0  0  0  0  0  0
   10.5050  -31.9726  -13.6860 C   0  0  0  0  0  0  0  0  0  0  0  0
   10.1175  -32.6948  -14.7527 N   0  0  0  0  0  0  0  0  0  0  0  0
   10.8434  -33.7598  -15.1709 C   0  0  0  0  0  0  0  0  0  0  0  0
   12.0670  -34.1127  -14.4344 C   0  0  0  0  0  0  0  0  0  0  0  0
   12.4268  -33.2689  -13.2704 C   0  0  0  0  0  0  0  0  0  0  0  0
   13.5378  -33.5251  -12.5368 N   0  0  0  0  0  0  0  0  0  0  0  0
   12.5870  -35.1920  -15.0489 N   0  0  0  0  0  0  0  0  0  0  0  0
   11.7689  -35.5024  -16.0873 C   0  0  0  0  0  0  0  0  0  0  0  0
   10.7306  -34.6494  -16.1601 N   0  0  0  0  0  0  0  0  0  0  0  0
  1  3  1  6  0  0  0
  1  5  2  0  0  0  0
  1  9  1  0  0  0  0
  1 18  1  0  0  0  0
  2  4  1  1  0  0  0
  2  6  2  0  0  0  0
  2 10  1  0  0  0  0
  2 17  1  0  0  0  0
  7  9  1  0  0  0  0
  8 10  1  0  0  0  0
 11  7  1  1  0  0  0
 11 13  1  0  0  0  0
 11 15  1  0  0  0  0
 12  8  1  1  0  0  0
 12 14  1  0  0  0  0
 12 16  1  0  0  0  0
 13 21  1  0  0  0  0
 14 22  1  0  0  0  0
 15 17  1  6  0  0  0
 15 19  1  0  0  0  0
 16 18  1  6  0  0  0
 16 20  1  0  0  0  0
 19 21  1  0  0  0  0
 20 22  1  0  0  0  0
 21 32  1  1  0  0  0
 22 42  1  1  0  0  0
 23 24  2  0  0  0  0
 23 28  1  0  0  0  0
 24 25  1  0  0  0  0
 25 26  2  0  0  0  0
 26 27  1  0  0  0  0
 26 32  1  0  0  0  0
 27 28  2  0  0  0  0
 27 30  1  0  0  0  0
 28 29  1  0  0  0  0
 30 31  2  0  0  0  0
 31 32  1  0  0  0  0
 33 34  2  0  0  0  0
 33 38  1  0  0  0  0
 34 35  1  0  0  0  0
 35 36  2  0  0  0  0
 36 37  1  0  0  0  0
 36 42  1  0  0  0  0
 37 38  2  0  0  0  0
 37 40  1  0  0  0  0
 38 39  1  0  0  0  0
 40 41  2  0  0  0  0
 41 42  1  0  0  0  0
M  CHG  2   3  -1   4  -1
M  END
>  <CHROM.1>
114.15478875,37.22969507,6.58735005,-34.41164842,-13.89613990,2.54604535
0.17724475,1.82373468

>  <Name>
ligand

>  <RI>
0

>  <Rbt.Current_Directory>
/home/itssahil/PROJECTS/Mol_Feturizer/New_Systems/rnas/4QLN

>  <Rbt.Executable>
rbdock ($Id: //depot/dev/client3/rdock/2013.1/src/exe/rbdock.cxx#4 $)

>  <Rbt.Library>
libRbt.so (2013.1, Build901 2013/11/27)

>  <Rbt.Parameter_File>
/export/apps/rDock/src/rDock_2013.1_src/data/scripts/dock_solv.prm

>  <Rbt.Receptor>
prm/pocket_docking_5.prm

>  <SCORE>
-10.1859

>  <SCORE.INTER>
-11.8249

>  <SCORE.INTER.CONST>
1

>  <SCORE.INTER.POLAR>
0

>  <SCORE.INTER.ROT>
2

>  <SCORE.INTER.SOLV>
16.3807

>  <SCORE.INTER.VDW>
-18.2768

>  <SCORE.INTER.norm>
-0.281546

>  <SCORE.INTRA>
1.63906

>  <SCORE.INTRA.DIHEDRAL>
-0.000471091

>  <SCORE.INTRA.DIHEDRAL.0>
2.39985

>  <SCORE.INTRA.POLAR>
0

>  <SCORE.INTRA.POLAR.0>
0

>  <SCORE.INTRA.REPUL>
0

>  <SCORE.INTRA.REPUL.0>
0

>  <SCORE.INTRA.SOLV>
0.705688

>  <SCORE.INTRA.SOLV.lig_0>
-110.958

>  <SCORE.INTRA.VDW>
1.28645

>  <SCORE.INTRA.VDW.0>
-2.34644

>  <SCORE.INTRA.norm>
0.0390252

>  <SCORE.RESTR>
0

>  <SCORE.RESTR.CAVITY>
0

>  <SCORE.RESTR.norm>
0

>  <SCORE.SYSTEM>
0

>  <SCORE.SYSTEM.CONST>
0

>  <SCORE.SYSTEM.DIHEDRAL>
0

>  <SCORE.SYSTEM.SOLV>
0

>  <SCORE.SYSTEM.norm>
0

>  <SCORE.heavy>
42

>  <SCORE.norm>
-0.242521

>  <RMSD>
6.596

$$$$
ligand
 OpenBabel11021811513D
libRbt.so/2013.1/901 2013/11/27
 42 48  0  0  0  0  0  0  0  0999 V2000
    6.2882  -31.9129  -12.6324 P   0  0  2  0  0  0  0  0  0  0  0  0
    3.7886  -34.4405  -16.2209 P   0  0  1  0  0  0  0  0  0  0  0  0
    6.5975  -30.4509  -12.8550 O   0  5  0  0  0  0  0  0  0  0  0  0
    4.3035  -35.5700  -15.3611 O   0  5  0  0  0  0  0  0  0  0  0  0
    7.0018  -32.6760  -11.5422 O   0  0  0  0  0  0  0  0  0  0  0  0
    2.7405  -34.7114  -17.2734 O   0  0  0  0  0  0  0  0  0  0  0  0
    7.5263  -32.2715  -14.9335 C   0  0  0  0  0  0  0  0  0  0  0  0
    2.1797  -33.5404  -14.3355 C   0  0  0  0  0  0  0  0  0  0  0  0
    6.5122  -32.6923  -14.0228 O   0  0  0  0  0  0  0  0  0  0  0  0
    3.2406  -33.2779  -15.2510 O   0  0  0  0  0  0  0  0  0  0  0  0
    7.0936  -32.5927  -16.3591 C   0  0  1  0  0  0  0  0  0  0  0  0
    2.5698  -33.0484  -12.9474 C   0  0  1  0  0  0  0  0  0  0  0  0
    8.2441  -32.6784  -17.2044 O   0  0  0  0  0  0  0  0  0  0  0  0
    1.8144  -33.7501  -11.9570 O   0  0  0  0  0  0  0  0  0  0  0  0
    6.3662  -33.9249  -16.4270 C   0  0  1  0  0  0  0  0  0  0  0  0
    4.0439  -33.2952  -12.6685 C   0  0  1  0  0  0  0  0  0  0  0  0
    5.0490  -33.7372  -16.9355 O   0  0  0  0  0  0  0  0  0  0  0  0
    4.7028  -32.0617  -12.3973 O   0  0  0  0  0  0  0  0  0  0  0  0
    7.1671  -34.8038  -17.3697 C   0  0  0  0  0  0  0  0  0  0  0  0
    4.1056  -34.1964  -11.4505 C   0  0  0  0  0  0  0  0  0  0  0  0
    8.3475  -33.9608  -17.8288 C   0  0  2  0  0  0  0  0  0  0  0  0
    2.6612  -34.4541  -11.0452 C   0  0  2  0  0  0  0  0  0  0  0  0
   10.5914  -37.7542  -14.9733 N   0  0  0  0  0  0  0  0  0  0  0  0
    9.2937  -37.4263  -15.1138 C   0  0  0  0  0  0  0  0  0  0  0  0
    8.8575  -36.4163  -15.8890 N   0  0  0  0  0  0  0  0  0  0  0  0
    9.7285  -35.6529  -16.5915 C   0  0  0  0  0  0  0  0  0  0  0  0
   11.1661  -35.9494  -16.4905 C   0  0  0  0  0  0  0  0  0  0  0  0
   11.5686  -37.0766  -15.6162 C   0  0  0  0  0  0  0  0  0  0  0  0
   12.8716  -37.4169  -15.4674 N   0  0  0  0  0  0  0  0  0  0  0  0
   11.7983  -35.0563  -17.2748 N   0  0  0  0  0  0  0  0  0  0  0  0
   10.8505  -34.2580  -17.8294 C   0  0  0  0  0  0  0  0  0  0  0  0
    9.6167  -34.6136  -17.4224 N   0  0  0  0  0  0  0  0  0  0  0  0
    1.1355  -38.4636  -14.0730 N   0  0  0  0  0  0  0  0  0  0  0  0
    1.2986  -37.1621  -14.3742 C   0  0  0  0  0  0  0  0  0  0  0  0
    1.6999  -36.2341  -13.4869 N   0  0  0  0  0  0  0  0  0  0  0  0
    1.9696  -36.5722  -12.2028 C   0  0  0  0  0  0  0  0  0  0  0  0
    1.8150  -37.9774  -11.7958 C   0  0  0  0  0  0  0  0  0  0  0  0
    1.3693  -38.9397  -12.8310 C   0  0  0  0  0  0  0  0  0  0  0  0
    1.2021  -40.2533  -12.5402 N   0  0  0  0  0  0  0  0  0  0  0  0
    2.1424  -38.0373  -10.4912 N   0  0  0  0  0  0  0  0  0  0  0  0
    2.4766  -36.7814  -10.0976 C   0  0  0  0  0  0  0  0  0  0  0  0
    2.3736  -35.9088  -11.1168 N   0  0  0  0  0  0  0  0  0  0  0  0
  1  3  1  6  0  0  0
  1  5  2  0  0  0  0
  1  9  1  0  0  0  0
  1 18  1  0  0  0  0
  2  4  1  1  0  0  0
  2  6  2  0  0  0  0
  2 10  1  0  0  0  0
  2 17  1  0  0  0  0
  7  9  1  0  0  0  0
  8 10  1  0  0  0  0
 11  7  1  1  0  0  0
 11 13  1  0  0  0  0
 11 15  1  0  0  0  0
 12  8  1  6  0  0  0
 12 14  1  0  0  0  0
 12 16  1  0  0  0  0
 13 21  1  0  0  0  0
 14 22  1  0  0  0  0
 15 17  1  6  0  0  0
 15 19  1  0  0  0  0
 16 18  1  1  0  0  0
 16 20  1  0  0  0  0
 19 21  1  0  0  0  0
 20 22  1  0  0  0  0
 21 32  1  1  0  0  0
 22 42  1  6  0  0  0
 23 24  2  0  0  0  0
 23 28  1  0  0  0  0
 24 25  1  0  0  0  0
 25 26  2  0  0  0  0
 26 27  1  0  0  0  0
 26 32  1  0  0  0  0
 27 28  2  0  0  0  0
 27 30  1  0  0  0  0
 28 29  1  0  0  0  0
 30 31  2  0  0  0  0
 31 32  1  0  0  0  0
 33 34  2  0  0  0  0
 33 38  1  0  0  0  0
 34 35  1  0  0  0  0
 35 36  2  0  0  0  0
 36 37  1  0  0  0  0
 36 42  1  0  0  0  0
 37 38  2  0  0  0  0
 37 40  1  0  0  0  0
 38 39  1  0  0  0  0
 40 41  2  0  0  0  0
 41 42  1  0  0  0  0
M  CHG  2   3  -1   4  -1
M  END
>  <CHROM.1>
107.95452467,31.63200164,5.55843587,-34.84172265,-14.40372872,0.09715342
0.46899120,0.06535928

>  <Name>
ligand

>  <RI>
0

>  <Rbt.Current_Directory>
/home/itssahil/PROJECTS/Mol_Feturizer/New_Systems/rnas/4QLN

>  <Rbt.Executable>
rbdock ($Id: //depot/dev/client3/rdock/2013.1/src/exe/rbdock.cxx#4 $)

>  <Rbt.Library>
libRbt.so (2013.1, Build901 2013/11/27)

>  <Rbt.Parameter_File>
/export/apps/rDock/src/rDock_2013.1_src/data/scripts/dock_solv.prm

>  <Rbt.Receptor>
prm/pocket_docking_7.prm

>  <SCORE>
-9.53257

>  <SCORE.INTER>
-11.0259

>  <SCORE.INTER.CONST>
1

>  <SCORE.INTER.POLAR>
0

>  <SCORE.INTER.ROT>
2

>  <SCORE.INTER.SOLV>
17.8432

>  <SCORE.INTER.VDW>
-18.2317

>  <SCORE.INTER.norm>
-0.262521

>  <SCORE.INTRA>
1.49303

>  <SCORE.INTRA.DIHEDRAL>
-0.00044604

>  <SCORE.INTRA.DIHEDRAL.0>
2.39985

>  <SCORE.INTRA.POLAR>
0

>  <SCORE.INTRA.POLAR.0>
0

>  <SCORE.INTRA.REPUL>
0

>  <SCORE.INTRA.REPUL.0>
0

>  <SCORE.INTRA.SOLV>
0.454451

>  <SCORE.INTRA.SOLV.lig_0>
-110.958

>  <SCORE.INTRA.VDW>
1.26603

>  <SCORE.INTRA.VDW.0>
-2.34644

>  <SCORE.INTRA.norm>
0.0355483

>  <SCORE.RESTR>
0.000294334

>  <SCORE.RESTR.CAVITY>
0.000294334

>  <SCORE.RESTR.norm>
7.00795e-06

>  <SCORE.SYSTEM>
0

>  <SCORE.SYSTEM.CONST>
0

>  <SCORE.SYSTEM.DIHEDRAL>
0

>  <SCORE.SYSTEM.SOLV>
0

>  <SCORE.SYSTEM.norm>
0

>  <SCORE.heavy>
42

>  <SCORE.norm>
-0.226966

>  <RMSD>
6.597

$$$$
ligand
 OpenBabel11021811513D
libRbt.so/2013.1/901 2013/11/27
 42 48  0  0  0  0  0  0  0  0999 V2000
    8.0282  -30.5338  -12.8377 P   0  0  2  0  0  0  0  0  0  0  0  0
    7.0934  -33.3931  -16.8954 P   0  0  1  0  0  0  0  0  0  0  0  0
    8.3902  -29.0809  -13.0405 O   0  5  0  0  0  0  0  0  0  0  0  0
    7.2499  -34.4408  -15.8192 O   0  5  0  0  0  0  0  0  0  0  0  0
    8.2790  -31.1930  -11.5026 O   0  0  0  0  0  0  0  0  0  0  0  0
    6.5250  -33.7738  -18.2413 O   0  0  0  0  0  0  0  0  0  0  0  0
   10.0495  -31.0090  -14.4643 C   0  0  0  0  0  0  0  0  0  0  0  0
    4.8838  -32.4202  -15.8349 C   0  0  0  0  0  0  0  0  0  0  0  0
    8.7680  -31.4004  -13.9747 O   0  0  0  0  0  0  0  0  0  0  0  0
    6.2113  -32.1854  -16.2987 O   0  0  0  0  0  0  0  0  0  0  0  0
   10.1923  -31.4444  -15.9178 C   0  0  1  0  0  0  0  0  0  0  0  0
    4.7147  -31.8187  -14.4454 C   0  0  1  0  0  0  0  0  0  0  0  0
   11.5781  -31.5486  -16.2558 O   0  0  0  0  0  0  0  0  0  0  0  0
    3.6441  -32.4753  -13.7625 O   0  0  0  0  0  0  0  0  0  0  0  0
    9.5531  -32.8029  -16.1512 C   0  0  1  0  0  0  0  0  0  0  0  0
    5.9740  -31.9933  -13.6115 C   0  0  1  0  0  0  0  0  0  0  0  0
    8.5265  -32.6977  -17.1329 O   0  0  0  0  0  0  0  0  0  0  0  0
    6.4732  -30.7214  -13.2087 O   0  0  0  0  0  0  0  0  0  0  0  0
   10.6571  -33.7170  -16.6492 C   0  0  0  0  0  0  0  0  0  0  0  0
    5.5739  -32.8042  -12.3940 C   0  0  0  0  0  0  0  0  0  0  0  0
   11.9184  -32.8672  -16.6924 C   0  0  2  0  0  0  0  0  0  0  0  0
    4.0854  -33.0834  -12.5461 C   0  0  2  0  0  0  0  0  0  0  0  0
   13.1890  -34.0812  -11.7436 N   0  0  0  0  0  0  0  0  0  0  0  0
   12.0729  -33.5153  -12.2391 C   0  0  0  0  0  0  0  0  0  0  0  0
   11.8818  -33.2590  -13.5463 N   0  0  0  0  0  0  0  0  0  0  0  0
   12.8317  -33.5674  -14.4614 C   0  0  0  0  0  0  0  0  0  0  0  0
   14.0817  -34.1898  -13.9977 C   0  0  0  0  0  0  0  0  0  0  0  0
   14.2183  -34.4400  -12.5431 C   0  0  0  0  0  0  0  0  0  0  0  0
   15.3365  -35.0097  -12.0324 N   0  0  0  0  0  0  0  0  0  0  0  0
   14.8404  -34.3888  -15.0918 N   0  0  0  0  0  0  0  0  0  0  0  0
   14.1396  -33.9343  -16.1620 C   0  0  0  0  0  0  0  0  0  0  0  0
   12.9422  -33.4449  -15.7865 N   0  0  0  0  0  0  0  0  0  0  0  0
    3.1358  -37.4754   -9.8293 N   0  0  0  0  0  0  0  0  0  0  0  0
    3.3008  -36.2097   -9.4024 C   0  0  0  0  0  0  0  0  0  0  0  0
    3.5414  -35.1700  -10.2213 N   0  0  0  0  0  0  0  0  0  0  0  0
    3.6329  -35.3485  -11.5614 C   0  0  0  0  0  0  0  0  0  0  0  0
    3.4636  -36.7046  -12.1057 C   0  0  0  0  0  0  0  0  0  0  0  0
    3.2010  -37.7970  -11.1393 C   0  0  0  0  0  0  0  0  0  0  0  0
    3.0323  -39.0757  -11.5570 N   0  0  0  0  0  0  0  0  0  0  0  0
    3.5992  -36.6017  -13.4414 N   0  0  0  0  0  0  0  0  0  0  0  0
    3.8349  -35.2952  -13.7268 C   0  0  0  0  0  0  0  0  0  0  0  0
    3.8552  -34.5488  -12.6072 N   0  0  0  0  0  0  0  0  0  0  0  0
  1  3  1  6  0  0  0
  1  5  2  0  0  0  0
  1  9  1  0  0  0  0
  1 18  1  0  0  0  0
  2  4  1  1  0  0  0
  2  6  2  0  0  0  0
  2 10  1  0  0  0  0
  2 17  1  0  0  0  0
  7  9  1  0  0  0  0
  8 10  1  0  0  0  0
 11  7  1  1  0  0  0
 11 13  1  0  0  0  0
 11 15  1  0  0  0  0
 12  8  1  6  0  0  0
 12 14  1  0  0  0  0
 12 16  1  0  0  0  0
 13 21  1  0  0  0  0
 14 22  1  0  0  0  0
 15 17  1  6  0  0  0
 15 19  1  0  0  0  0
 16 18  1  1  0  0  0
 16 20  1  0  0  0  0
 19 21  1  0  0  0  0
 20 22  1  0  0  0  0
 21 32  1  1  0  0  0
 22 42  1  6  0  0  0
 23 24  2  0  0  0  0
 23 28  1  0  0  0  0
 24 25  1  0  0  0  0
 25 26  2  0  0  0  0
 26 27  1  0  0  0  0
 26 32  1  0  0  0  0
 27 28  2  0  0  0  0
 27 30  1  0  0  0  0
 28 29  1  0  0  0  0
 30 31  2  0  0  0  0
 31 32  1  0  0  0  0
 33 34  2  0  0  0  0
 33 38  1  0  0  0  0
 34 35  1  0  0  0  0
 35 36  2  0  0  0  0
 36 37  1  0  0  0  0
 36 42  1  0  0  0  0
 37 38  2  0  0  0  0
 37 40  1  0  0  0  0
 38 39  1  0  0  0  0
 40 41  2  0  0  0  0
 41 42  1  0  0  0  0
M  CHG  2   3  -1   4  -1
M  END
>  <CHROM.1>
55.31315182,-151.74044152,8.00555741,-33.42598385,-13.94810836,0.35192270
0.01768387,-0.81336629

>  <Name>
ligand

>  <RI>
0

>  <Rbt.Current_Directory>
/home/itssahil/PROJECTS/Mol_Feturizer/New_Systems/rnas/4QLN

>  <Rbt.Executable>
rbdock ($Id: //depot/dev/client3/rdock/2013.1/src/exe/rbdock.cxx#4 $)

>  <Rbt.Library>
libRbt.so (2013.1, Build901 2013/11/27)

>  <Rbt.Parameter_File>
/export/apps/rDock/src/rDock_2013.1_src/data/scripts/dock_solv.prm

>  <Rbt.Receptor>
prm/pocket_docking_8.prm

>  <SCORE>
-15.4505

>  <SCORE.INTER>
-15.2253

>  <SCORE.INTER.CONST>
1

>  <SCORE.INTER.POLAR>
0

>  <SCORE.INTER.ROT>
2

>  <SCORE.INTER.SOLV>
22.3575

>  <SCORE.INTER.VDW>
-22.5361

>  <SCORE.INTER.norm>
-0.362508

>  <SCORE.INTRA>
-0.225143

>  <SCORE.INTRA.DIHEDRAL>
0.000835133

>  <SCORE.INTRA.DIHEDRAL.0>
2.39985

>  <SCORE.INTRA.POLAR>
0

>  <SCORE.INTRA.POLAR.0>
0

>  <SCORE.INTRA.REPUL>
0

>  <SCORE.INTRA.REPUL.0>
0

>  <SCORE.INTRA.SOLV>
-0.0812863

>  <SCORE.INTRA.SOLV.lig_0>
-110.958

>  <SCORE.INTRA.VDW>
-0.184917

>  <SCORE.INTRA.VDW.0>
-2.34644

>  <SCORE.INTRA.norm>
-0.00536055

>  <SCORE.RESTR>
0

>  <SCORE.RESTR.CAVITY>
0

>  <SCORE.RESTR.norm>
0

>  <SCORE.SYSTEM>
0

>  <SCORE.SYSTEM.CONST>
0

>  <SCORE.SYSTEM.DIHEDRAL>
0

>  <SCORE.SYSTEM.SOLV>
0

>  <SCORE.SYSTEM.norm>
0

>  <SCORE.heavy>
42

>  <SCORE.norm>
-0.367868

>  <RMSD>
6.599

$$$$
ligand
 OpenBabel11021811513D
libRbt.so/2013.1/901 2013/11/27
 42 48  0  0  0  0  0  0  0  0999 V2000
    8.0376  -30.5361  -12.8447 P   0  0  2  0  0  0  0  0  0  0  0  0
    7.0881  -33.3917  -16.9016 P   0  0  1  0  0  0  0  0  0  0  0  0
    8.4047  -29.0846  -13.0478 O   0  5  0  0  0  0  0  0  0  0  0  0
    7.2420  -34.4401  -15.8256 O   0  5  0  0  0  0  0  0  0  0  0  0
    8.2875  -31.1963  -11.5099 O   0  0  0  0  0  0  0  0  0  0  0  0
    6.5169  -33.7703  -18.2469 O   0  0  0  0  0  0  0  0  0  0  0  0
   10.0554  -31.0186  -14.4734 C   0  0  0  0  0  0  0  0  0  0  0  0
    4.8832  -32.4109  -15.8387 C   0  0  0  0  0  0  0  0  0  0  0  0
    8.7730  -31.4053  -13.9825 O   0  0  0  0  0  0  0  0  0  0  0  0
    6.2111  -32.1809  -16.3039 O   0  0  0  0  0  0  0  0  0  0  0  0
   10.1951  -31.4544  -15.9271 C   0  0  1  0  0  0  0  0  0  0  0  0
    4.7178  -31.8089  -14.4490 C   0  0  1  0  0  0  0  0  0  0  0  0
   11.5802  -31.5636  -16.2666 O   0  0  0  0  0  0  0  0  0  0  0  0
    3.6455  -32.4617  -13.7650 O   0  0  0  0  0  0  0  0  0  0  0  0
    9.5508  -32.8105  -16.1599 C   0  0  1  0  0  0  0  0  0  0  0  0
    5.9773  -31.9881  -13.6164 C   0  0  1  0  0  0  0  0  0  0  0  0
    8.5235  -32.7015  -17.1406 O   0  0  0  0  0  0  0  0  0  0  0  0
    6.4816  -30.7181  -13.2141 O   0  0  0  0  0  0  0  0  0  0  0  0
   10.6510  -33.7286  -16.6592 C   0  0  0  0  0  0  0  0  0  0  0  0
    5.5756  -32.7976  -12.3986 C   0  0  0  0  0  0  0  0  0  0  0  0
   11.9153  -32.8834  -16.7037 C   0  0  2  0  0  0  0  0  0  0  0  0
    4.0859  -33.0714  -12.5491 C   0  0  2  0  0  0  0  0  0  0  0  0
   13.1744  -34.1294  -11.7599 N   0  0  0  0  0  0  0  0  0  0  0  0
   12.0584  -33.5629  -12.2547 C   0  0  0  0  0  0  0  0  0  0  0  0
   11.8704  -33.2978  -13.5606 N   0  0  0  0  0  0  0  0  0  0  0  0
   12.8239  -33.5971  -14.4750 C   0  0  0  0  0  0  0  0  0  0  0  0
   14.0741  -34.2195  -14.0120 C   0  0  0  0  0  0  0  0  0  0  0  0
   14.2071  -34.4798  -12.5589 C   0  0  0  0  0  0  0  0  0  0  0  0
   15.3252  -35.0502  -12.0490 N   0  0  0  0  0  0  0  0  0  0  0  0
   14.8365  -34.4087  -15.1053 N   0  0  0  0  0  0  0  0  0  0  0  0
   14.1377  -33.9484  -16.1743 C   0  0  0  0  0  0  0  0  0  0  0  0
   12.9379  -33.4648  -15.7989 N   0  0  0  0  0  0  0  0  0  0  0  0
    3.1740  -37.4685   -9.8276 N   0  0  0  0  0  0  0  0  0  0  0  0
    3.3506  -36.2045   -9.4002 C   0  0  0  0  0  0  0  0  0  0  0  0
    3.5791  -35.1632  -10.2205 N   0  0  0  0  0  0  0  0  0  0  0  0
    3.6452  -35.3380  -11.5626 C   0  0  0  0  0  0  0  0  0  0  0  0
    3.4618  -36.6921  -12.1075 C   0  0  0  0  0  0  0  0  0  0  0  0
    3.2140  -37.7865  -11.1395 C   0  0  0  0  0  0  0  0  0  0  0  0
    3.0339  -39.0635  -11.5576 N   0  0  0  0  0  0  0  0  0  0  0  0
    3.5728  -36.5857  -13.4452 N   0  0  0  0  0  0  0  0  0  0  0  0
    3.8070  -35.2791  -13.7312 C   0  0  0  0  0  0  0  0  0  0  0  0
    3.8503  -34.5360  -12.6101 N   0  0  0  0  0  0  0  0  0  0  0  0
  1  3  1  6  0  0  0
  1  5  2  0  0  0  0
  1  9  1  0  0  0  0
  1 18  1  0  0  0  0
  2  4  1  1  0  0  0
  2  6  2  0  0  0  0
  2 10  1  0  0  0  0
  2 17  1  0  0  0  0
  7  9  1  0  0  0  0
  8 10  1  0  0  0  0
 11  7  1  1  0  0  0
 11 13  1  0  0  0  0
 11 15  1  0  0  0  0
 12  8  1  6  0  0  0
 12 14  1  0  0  0  0
 12 16  1  0  0  0  0
 13 21  1  0  0  0  0
 14 22  1  0  0  0  0
 15 17  1  6  0  0  0
 15 19  1  0  0  0  0
 16 18  1  1  0  0  0
 16 20  1  0  0  0  0
 19 21  1  0  0  0  0
 20 22  1  0  0  0  0
 21 32  1  1  0  0  0
 22 42  1  6  0  0  0
 23 24  2  0  0  0  0
 23 28  1  0  0  0  0
 24 25  1  0  0  0  0
 25 26  2  0  0  0  0
 26 27  1  0  0  0  0
 26 32  1  0  0  0  0
 27 28  2  0  0  0  0
 27 30  1  0  0  0  0
 28 29  1  0  0  0  0
 30 31  2  0  0  0  0
 31 32  1  0  0  0  0
 33 34  2  0  0  0  0
 33 38  1  0  0  0  0
 34 35  1  0  0  0  0
 35 36  2  0  0  0  0
 36 37  1  0  0  0  0
 36 42  1  0  0  0  0
 37 38  2  0  0  0  0
 37 40  1  0  0  0  0
 38 39  1  0  0  0  0
 40 41  2  0  0  0  0
 41 42  1  0  0  0  0
M  CHG  2   3  -1   4  -1
M  END
>  <CHROM.1>
55.90209116,-152.75776080,8.00648084,-33.43104660,-13.95525480,0.35029221
0.02244010,-0.81099921

>  <Name>
ligand

>  <RI>
0

>  <Rbt.Current_Directory>
/home/itssahil/PROJECTS/Mol_Feturizer/New_Systems/rnas/4QLN

>  <Rbt.Executable>
rbdock ($Id: //depot/dev/client3/rdock/2013.1/src/exe/rbdock.cxx#4 $)

>  <Rbt.Library>
libRbt.so (2013.1, Build901 2013/11/27)

>  <Rbt.Parameter_File>
/export/apps/rDock/src/rDock_2013.1_src/data/scripts/dock_solv.prm

>  <Rbt.Receptor>
prm/pocket_docking_8.prm

>  <SCORE>
-15.425

>  <SCORE.INTER>
-15.2046

>  <SCORE.INTER.CONST>
1

>  <SCORE.INTER.POLAR>
0

>  <SCORE.INTER.ROT>
2

>  <SCORE.INTER.SOLV>
22.2471

>  <SCORE.INTER.VDW>
-22.4854

>  <SCORE.INTER.norm>
-0.362014

>  <SCORE.INTRA>
-0.220466

>  <SCORE.INTRA.DIHEDRAL>
0.000838254

>  <SCORE.INTRA.DIHEDRAL.0>
2.39985

>  <SCORE.INTRA.POLAR>
0

>  <SCORE.INTRA.POLAR.0>
0

>  <SCORE.INTRA.REPUL>
0

>  <SCORE.INTRA.REPUL.0>
0

>  <SCORE.INTRA.SOLV>
-0.083309

>  <SCORE.INTRA.SOLV.lig_0>
-110.958

>  <SCORE.INTRA.VDW>
-0.179231

>  <SCORE.INTRA.VDW.0>
-2.34644

>  <SCORE.INTRA.norm>
-0.0052492

>  <SCORE.RESTR>
0

>  <SCORE.RESTR.CAVITY>
0

>  <SCORE.RESTR.norm>
0

>  <SCORE.SYSTEM>
0

>  <SCORE.SYSTEM.CONST>
0

>  <SCORE.SYSTEM.DIHEDRAL>
0

>  <SCORE.SYSTEM.SOLV>
0

>  <SCORE.SYSTEM.norm>
0

>  <SCORE.heavy>
42

>  <SCORE.norm>
-0.367263

>  <RMSD>
6.605

$$$$
ligand
 OpenBabel11021811513D
libRbt.so/2013.1/901 2013/11/27
 42 48  0  0  0  0  0  0  0  0999 V2000
    8.0472  -30.5383  -12.8727 P   0  0  2  0  0  0  0  0  0  0  0  0
    7.1518  -33.4299  -16.9162 P   0  0  1  0  0  0  0  0  0  0  0  0
    8.4245  -29.0905  -13.0840 O   0  5  0  0  0  0  0  0  0  0  0  0
    7.2829  -34.4682  -15.8275 O   0  5  0  0  0  0  0  0  0  0  0  0
    8.2717  -31.1862  -11.5274 O   0  0  0  0  0  0  0  0  0  0  0  0
    6.6013  -33.8193  -18.2671 O   0  0  0  0  0  0  0  0  0  0  0  0
   10.0895  -31.0462  -14.4626 C   0  0  0  0  0  0  0  0  0  0  0  0
    4.9342  -32.4285  -15.9001 C   0  0  0  0  0  0  0  0  0  0  0  0
    8.7974  -31.4221  -13.9894 O   0  0  0  0  0  0  0  0  0  0  0  0
    6.2707  -32.2092  -16.3454 O   0  0  0  0  0  0  0  0  0  0  0  0
   10.2513  -31.4971  -15.9094 C   0  0  1  0  0  0  0  0  0  0  0  0
    4.7486  -31.8119  -14.5193 C   0  0  1  0  0  0  0  0  0  0  0  0
   11.6413  -31.6160  -16.2247 O   0  0  0  0  0  0  0  0  0  0  0  0
    3.6620  -32.4529  -13.8469 O   0  0  0  0  0  0  0  0  0  0  0  0
    9.6046  -32.8525  -16.1395 C   0  0  1  0  0  0  0  0  0  0  0  0
    5.9932  -31.9885  -13.6641 C   0  0  1  0  0  0  0  0  0  0  0  0
    8.5943  -32.7487  -17.1382 O   0  0  0  0  0  0  0  0  0  0  0  0
    6.4967  -30.7168  -13.2661 O   0  0  0  0  0  0  0  0  0  0  0  0
   10.7085  -33.7806  -16.6112 C   0  0  0  0  0  0  0  0  0  0  0  0
    5.5675  -32.7840  -12.4452 C   0  0  0  0  0  0  0  0  0  0  0  0
   11.9774  -32.9416  -16.6430 C   0  0  2  0  0  0  0  0  0  0  0  0
    4.0792  -33.0525  -12.6178 C   0  0  2  0  0  0  0  0  0  0  0  0
   13.0970  -34.2626  -11.6852 N   0  0  0  0  0  0  0  0  0  0  0  0
   11.9855  -33.7113  -12.2064 C   0  0  0  0  0  0  0  0  0  0  0  0
   11.8357  -33.4230  -13.5124 N   0  0  0  0  0  0  0  0  0  0  0  0
   12.8263  -33.6813  -14.3994 C   0  0  0  0  0  0  0  0  0  0  0  0
   14.0744  -34.2848  -13.9064 C   0  0  0  0  0  0  0  0  0  0  0  0
   14.1641  -34.5725  -12.4551 C   0  0  0  0  0  0  0  0  0  0  0  0
   15.2774  -35.1281  -11.9188 N   0  0  0  0  0  0  0  0  0  0  0  0
   14.8777  -34.4336  -14.9764 N   0  0  0  0  0  0  0  0  0  0  0  0
   14.2049  -33.9668  -16.0593 C   0  0  0  0  0  0  0  0  0  0  0  0
   12.9820  -33.5186  -15.7156 N   0  0  0  0  0  0  0  0  0  0  0  0
    3.1467  -37.4255   -9.8648 N   0  0  0  0  0  0  0  0  0  0  0  0
    3.3279  -36.1591   -9.4466 C   0  0  0  0  0  0  0  0  0  0  0  0
    3.5615  -35.1248  -10.2743 N   0  0  0  0  0  0  0  0  0  0  0  0
    3.6283  -35.3099  -11.6149 C   0  0  0  0  0  0  0  0  0  0  0  0
    3.4400  -36.6672  -12.1501 C   0  0  0  0  0  0  0  0  0  0  0  0
    3.1868  -37.7534  -11.1742 C   0  0  0  0  0  0  0  0  0  0  0  0
    3.0019  -39.0328  -11.5830 N   0  0  0  0  0  0  0  0  0  0  0  0
    3.5529  -36.5712  -13.4883 N   0  0  0  0  0  0  0  0  0  0  0  0
    3.7927  -35.2677  -13.7838 C   0  0  0  0  0  0  0  0  0  0  0  0
    3.8378  -34.5165  -12.6682 N   0  0  0  0  0  0  0  0  0  0  0  0
  1  3  1  6  0  0  0
  1  5  2  0  0  0  0
  1  9  1  0  0  0  0
  1 18  1  0  0  0  0
  2  4  1  1  0  0  0
  2  6  2  0  0  0  0
  2 10  1  0  0  0  0
  2 17  1  0  0  0  0
  7  9  1  0  0  0  0
  8 10  1  0  0  0  0
 11  7  1  1  0  0  0
 11 13  1  0  0  0  0
 11 15  1  0  0  0  0
 12  8  1  6  0  0  0
 12 14  1  0  0  0  0
 12 16  1  0  0  0  0
 13 21  1  0  0  0  0
 14 22  1  0  0  0  0
 15 17  1  6  0  0  0
 15 19  1  0  0  0  0
 16 18  1  1  0  0  0
 16 20  1  0  0  0  0
 19 21  1  0  0  0  0
 20 22  1  0  0  0  0
 21 32  1  1  0  0  0
 22 42  1  6  0  0  0
 23 24  2  0  0  0  0
 23 28  1  0  0  0  0
 24 25  1  0  0  0  0
 25 26  2  0  0  0  0
 26 27  1  0  0  0  0
 26 32  1  0  0  0  0
 27 28  2  0  0  0  0
 27 30  1  0  0  0  0
 28 29  1  0  0  0  0
 30 31  2  0  0  0  0
 31 32  1  0  0  0  0
 33 34  2  0  0  0  0
 33 38  1  0  0  0  0
 34 35  1  0  0  0  0
 35 36  2  0  0  0  0
 36 37  1  0  0  0  0
 36 42  1  0  0  0  0
 37 38  2  0  0  0  0
 37 40  1  0  0  0  0
 38 39  1  0  0  0  0
 40 41  2  0  0  0  0
 41 42  1  0  0  0  0
M  CHG  2   3  -1   4  -1
M  END
>  <CHROM.1>
58.47139234,-153.66180139,8.02040891,-33.45435742,-13.95599483,0.33511121
0.02088662,-0.81085780

>  <Name>
ligand

>  <RI>
0

>  <Rbt.Current_Directory>
/home/itssahil/PROJECTS/Mol_Feturizer/New_Systems/rnas/4QLN

>  <Rbt.Executable>
rbdock ($Id: //depot/dev/client3/rdock/2013.1/src/exe/rbdock.cxx#4 $)

>  <Rbt.Library>
libRbt.so (2013.1, Build901 2013/11/27)

>  <Rbt.Parameter_File>
/export/apps/rDock/src/rDock_2013.1_src/data/scripts/dock_solv.prm

>  <Rbt.Receptor>
prm/pocket_docking_8.prm

>  <SCORE>
-15.285

>  <SCORE.INTER>
-15.0917

>  <SCORE.INTER.CONST>
1

>  <SCORE.INTER.POLAR>
0

>  <SCORE.INTER.ROT>
2

>  <SCORE.INTER.SOLV>
22.2663

>  <SCORE.INTER.VDW>
-22.4165

>  <SCORE.INTER.norm>
-0.359325

>  <SCORE.INTRA>
-0.193329

>  <SCORE.INTRA.DIHEDRAL>
0.000867061

>  <SCORE.INTRA.DIHEDRAL.0>
2.39985

>  <SCORE.INTRA.POLAR>
0

>  <SCORE.INTRA.POLAR.0>
0

>  <SCORE.INTRA.REPUL>
0

>  <SCORE.INTRA.REPUL.0>
0

>  <SCORE.INTRA.SOLV>
-0.0858196

>  <SCORE.INTRA.SOLV.lig_0>
-110.958

>  <SCORE.INTRA.VDW>
-0.150853

>  <SCORE.INTRA.VDW.0>
-2.34644

>  <SCORE.INTRA.norm>
-0.00460307

>  <SCORE.RESTR>
0

>  <SCORE.RESTR.CAVITY>
0

>  <SCORE.RESTR.norm>
0

>  <SCORE.SYSTEM>
0

>  <SCORE.SYSTEM.CONST>
0

>  <SCORE.SYSTEM.DIHEDRAL>
0

>  <SCORE.SYSTEM.SOLV>
0

>  <SCORE.SYSTEM.norm>
0

>  <SCORE.heavy>
42

>  <SCORE.norm>
-0.363928

>  <RMSD>
6.609

$$$$
ligand
 OpenBabel11021811513D
libRbt.so/2013.1/901 2013/11/27
 42 48  0  0  0  0  0  0  0  0999 V2000
    2.8008  -36.0469  -16.9809 P   0  0  2  0  0  0  0  0  0  0  0  0
    4.7278  -32.2843  -14.2161 P   0  0  1  0  0  0  0  0  0  0  0  0
    1.5621  -35.7825  -17.8047 O   0  5  0  0  0  0  0  0  0  0  0  0
    5.4495  -33.4797  -13.6413 O   0  5  0  0  0  0  0  0  0  0  0  0
    3.2409  -37.4670  -16.7175 O   0  0  0  0  0  0  0  0  0  0  0  0
    5.1944  -30.8883  -13.8799 O   0  0  0  0  0  0  0  0  0  0  0  0
    1.3457  -35.1717  -14.9626 C   0  0  0  0  0  0  0  0  0  0  0  0
    5.9171  -32.5056  -16.5592 C   0  0  0  0  0  0  0  0  0  0  0  0
    2.6325  -35.3003  -15.5649 O   0  0  0  0  0  0  0  0  0  0  0  0
    4.7006  -32.4346  -15.8190 O   0  0  0  0  0  0  0  0  0  0  0  0
    1.2985  -33.8935  -14.1340 C   0  0  1  0  0  0  0  0  0  0  0  0
    5.8672  -33.6948  -17.5103 C   0  0  1  0  0  0  0  0  0  0  0  0
    0.2761  -34.0011  -13.1397 O   0  0  0  0  0  0  0  0  0  0  0  0
    7.1964  -34.1023  -17.8432 O   0  0  0  0  0  0  0  0  0  0  0  0
    2.6176  -33.6506  -13.4204 C   0  0  1  0  0  0  0  0  0  0  0  0
    5.1631  -34.8821  -16.8729 C   0  0  1  0  0  0  0  0  0  0  0  0
    3.1697  -32.4016  -13.8256 O   0  0  0  0  0  0  0  0  0  0  0  0
    4.0303  -35.2542  -17.6524 O   0  0  0  0  0  0  0  0  0  0  0  0
    2.3042  -33.6234  -11.9360 C   0  0  0  0  0  0  0  0  0  0  0  0
    6.1707  -36.0151  -16.8461 C   0  0  0  0  0  0  0  0  0  0  0  0
    0.8049  -33.8540  -11.8190 C   0  0  2  0  0  0  0  0  0  0  0  0
    7.4427  -35.4608  -17.4717 C   0  0  2  0  0  0  0  0  0  0  0  0
    1.6155  -39.0281  -11.4320 N   0  0  0  0  0  0  0  0  0  0  0  0
    2.0407  -38.1501  -12.3592 C   0  0  0  0  0  0  0  0  0  0  0  0
    1.7523  -36.8359  -12.3321 N   0  0  0  0  0  0  0  0  0  0  0  0
    0.9958  -36.3105  -11.3388 C   0  0  0  0  0  0  0  0  0  0  0  0
    0.4930  -37.2071  -10.2861 C   0  0  0  0  0  0  0  0  0  0  0  0
    0.8524  -38.6416  -10.3852 C   0  0  0  0  0  0  0  0  0  0  0  0
    0.4312  -39.5349   -9.4577 N   0  0  0  0  0  0  0  0  0  0  0  0
   -0.2184  -36.4416   -9.4374 N   0  0  0  0  0  0  0  0  0  0  0  0
   -0.1759  -35.1675   -9.9043 C   0  0  0  0  0  0  0  0  0  0  0  0
    0.5481  -35.0891  -11.0375 N   0  0  0  0  0  0  0  0  0  0  0  0
   10.4702  -32.7553  -14.1419 N   0  0  0  0  0  0  0  0  0  0  0  0
    9.4752  -32.3365  -14.9457 C   0  0  0  0  0  0  0  0  0  0  0  0
    8.7763  -33.1511  -15.7566 N   0  0  0  0  0  0  0  0  0  0  0  0
    9.0462  -34.4779  -15.8080 C   0  0  0  0  0  0  0  0  0  0  0  0
   10.1209  -35.0128  -14.9577 C   0  0  0  0  0  0  0  0  0  0  0  0
   10.8443  -34.0519  -14.0918 C   0  0  0  0  0  0  0  0  0  0  0  0
   11.8478  -34.4616  -13.2774 N   0  0  0  0  0  0  0  0  0  0  0  0
   10.1782  -36.3362  -15.1987 N   0  0  0  0  0  0  0  0  0  0  0  0
    9.2248  -36.6232  -16.1220 C   0  0  0  0  0  0  0  0  0  0  0  0
    8.5507  -35.5165  -16.4851 N   0  0  0  0  0  0  0  0  0  0  0  0
  1  3  1  6  0  0  0
  1  5  2  0  0  0  0
  1  9  1  0  0  0  0
  1 18  1  0  0  0  0
  2  4  1  1  0  0  0
  2  6  2  0  0  0  0
  2 10  1  0  0  0  0
  2 17  1  0  0  0  0
  7  9  1  0  0  0  0
  8 10  1  0  0  0  0
 11  7  1  1  0  0  0
 11 13  1  0  0  0  0
 11 15  1  0  0  0  0
 12  8  1  1  0  0  0
 12 14  1  0  0  0  0
 12 16  1  0  0  0  0
 13 21  1  0  0  0  0
 14 22  1  0  0  0  0
 15 17  1  6  0  0  0
 15 19  1  0  0  0  0
 16 18  1  6  0  0  0
 16 20  1  0  0  0  0
 19 21  1  0  0  0  0
 20 22  1  0  0  0  0
 21 32  1  1  0  0  0
 22 42  1  1  0  0  0
 23 24  2  0  0  0  0
 23 28  1  0  0  0  0
 24 25  1  0  0  0  0
 25 26  2  0  0  0  0
 26 27  1  0  0  0  0
 26 32  1  0  0  0  0
 27 28  2  0  0  0  0
 27 30  1  0  0  0  0
 28 29  1  0  0  0  0
 30 31  2  0  0  0  0
 31 32  1  0  0  0  0
 33 34  2  0  0  0  0
 33 38  1  0  0  0  0
 34 35  1  0  0  0  0
 35 36  2  0  0  0  0
 36 37  1  0  0  0  0
 36 42  1  0  0  0  0
 37 38  2  0  0  0  0
 37 40  1  0  0  0  0
 38 39  1  0  0  0  0
 40 41  2  0  0  0  0
 41 42  1  0  0  0  0
M  CHG  2   3  -1   4  -1
M  END
>  <CHROM.1>
60.58637436,14.20377604,4.45597538,-34.89134566,-14.37267952,2.64228862,0.17798148
1.75545150

>  <Name>
ligand

>  <RI>
0

>  <Rbt.Current_Directory>
/home/itssahil/PROJECTS/Mol_Feturizer/New_Systems/rnas/4QLN

>  <Rbt.Executable>
rbdock ($Id: //depot/dev/client3/rdock/2013.1/src/exe/rbdock.cxx#4 $)

>  <Rbt.Library>
libRbt.so (2013.1, Build901 2013/11/27)

>  <Rbt.Parameter_File>
/export/apps/rDock/src/rDock_2013.1_src/data/scripts/dock_solv.prm

>  <Rbt.Receptor>
prm/pocket_docking_6.prm

>  <SCORE>
-10.17

>  <SCORE.INTER>
-9.67752

>  <SCORE.INTER.CONST>
1

>  <SCORE.INTER.POLAR>
0

>  <SCORE.INTER.ROT>
2

>  <SCORE.INTER.SOLV>
16.3222

>  <SCORE.INTER.VDW>
-16.8257

>  <SCORE.INTER.norm>
-0.230417

>  <SCORE.INTRA>
-0.530691

>  <SCORE.INTRA.DIHEDRAL>
-0.00035171

>  <SCORE.INTRA.DIHEDRAL.0>
2.39985

>  <SCORE.INTRA.POLAR>
0

>  <SCORE.INTRA.POLAR.0>
0

>  <SCORE.INTRA.REPUL>
0

>  <SCORE.INTRA.REPUL.0>
0

>  <SCORE.INTRA.SOLV>
0.033547

>  <SCORE.INTRA.SOLV.lig_0>
-110.958

>  <SCORE.INTRA.VDW>
-0.547289

>  <SCORE.INTRA.VDW.0>
-2.34644

>  <SCORE.INTRA.norm>
-0.0126355

>  <SCORE.RESTR>
0.0382564

>  <SCORE.RESTR.CAVITY>
0.0382564

>  <SCORE.RESTR.norm>
0.000910867

>  <SCORE.SYSTEM>
0

>  <SCORE.SYSTEM.CONST>
0

>  <SCORE.SYSTEM.DIHEDRAL>
0

>  <SCORE.SYSTEM.SOLV>
0

>  <SCORE.SYSTEM.norm>
0

>  <SCORE.heavy>
42

>  <SCORE.norm>
-0.242142

>  <RMSD>
6.615

$$$$
ligand
 OpenBabel11021811513D
libRbt.so/2013.1/901 2013/11/27
 42 48  0  0  0  0  0  0  0  0999 V2000
    8.0082  -30.4466  -12.8976 P   0  0  2  0  0  0  0  0  0  0  0  0
    7.1890  -33.4101  -16.9052 P   0  0  1  0  0  0  0  0  0  0  0  0
    8.3606  -28.9954  -13.1271 O   0  5  0  0  0  0  0  0  0  0  0  0
    7.3321  -34.4305  -15.8012 O   0  5  0  0  0  0  0  0  0  0  0  0
    8.2362  -31.0715  -11.5421 O   0  0  0  0  0  0  0  0  0  0  0  0
    6.6536  -33.8282  -18.2535 O   0  0  0  0  0  0  0  0  0  0  0  0
   10.0687  -30.9398  -14.4686 C   0  0  0  0  0  0  0  0  0  0  0  0
    4.9477  -32.4347  -15.9159 C   0  0  0  0  0  0  0  0  0  0  0  0
    8.7807  -31.3323  -13.9975 O   0  0  0  0  0  0  0  0  0  0  0  0
    6.2827  -32.1976  -16.3566 O   0  0  0  0  0  0  0  0  0  0  0  0
   10.2472  -31.4079  -15.9079 C   0  0  1  0  0  0  0  0  0  0  0  0
    4.7428  -31.8024  -14.5451 C   0  0  1  0  0  0  0  0  0  0  0  0
   11.6409  -31.5061  -16.2135 O   0  0  0  0  0  0  0  0  0  0  0  0
    3.6638  -32.4534  -13.8699 O   0  0  0  0  0  0  0  0  0  0  0  0
    9.6262  -32.7778  -16.1226 C   0  0  1  0  0  0  0  0  0  0  0  0
    5.9852  -31.9445  -13.6803 C   0  0  1  0  0  0  0  0  0  0  0  0
    8.6202  -32.7062  -17.1284 O   0  0  0  0  0  0  0  0  0  0  0  0
    6.4634  -30.6585  -13.2973 O   0  0  0  0  0  0  0  0  0  0  0  0
   10.7495  -33.6923  -16.5749 C   0  0  0  0  0  0  0  0  0  0  0  0
    5.5666  -32.7304  -12.4528 C   0  0  0  0  0  0  0  0  0  0  0  0
   12.0033  -32.8312  -16.6112 C   0  0  2  0  0  0  0  0  0  0  0  0
    4.0845  -33.0281  -12.6302 C   0  0  2  0  0  0  0  0  0  0  0  0
   13.0252  -34.3192  -11.6797 N   0  0  0  0  0  0  0  0  0  0  0  0
   11.8952  -33.8283  -12.2214 C   0  0  0  0  0  0  0  0  0  0  0  0
   11.7754  -33.4847  -13.5170 N   0  0  0  0  0  0  0  0  0  0  0  0
   12.8178  -33.6195  -14.3714 C   0  0  0  0  0  0  0  0  0  0  0  0
   14.0889  -34.1504  -13.8544 C   0  0  0  0  0  0  0  0  0  0  0  0
   14.1432  -34.5057  -12.4164 C   0  0  0  0  0  0  0  0  0  0  0  0
   15.2745  -35.0014  -11.8596 N   0  0  0  0  0  0  0  0  0  0  0  0
   14.9435  -34.1810  -14.8942 N   0  0  0  0  0  0  0  0  0  0  0  0
   14.2796  -33.7114  -15.9813 C   0  0  0  0  0  0  0  0  0  0  0  0
   13.0125  -33.3769  -15.6700 N   0  0  0  0  0  0  0  0  0  0  0  0
    3.1568  -37.3699   -9.8264 N   0  0  0  0  0  0  0  0  0  0  0  0
    3.3055  -36.0936   -9.4257 C   0  0  0  0  0  0  0  0  0  0  0  0
    3.5424  -35.0694  -10.2651 N   0  0  0  0  0  0  0  0  0  0  0  0
    3.6468  -35.2759  -11.6001 C   0  0  0  0  0  0  0  0  0  0  0  0
    3.4957  -36.6451  -12.1163 C   0  0  0  0  0  0  0  0  0  0  0  0
    3.2362  -37.7190  -11.1285 C   0  0  0  0  0  0  0  0  0  0  0  0
    3.0839  -39.0082  -11.5197 N   0  0  0  0  0  0  0  0  0  0  0  0
    3.6413  -36.5697  -13.4527 N   0  0  0  0  0  0  0  0  0  0  0  0
    3.8661  -35.2674  -13.7645 C   0  0  0  0  0  0  0  0  0  0  0  0
    3.8696  -34.4968  -12.6613 N   0  0  0  0  0  0  0  0  0  0  0  0
  1  3  1  6  0  0  0
  1  5  2  0  0  0  0
  1  9  1  0  0  0  0
  1 18  1  0  0  0  0
  2  4  1  1  0  0  0
  2  6  2  0  0  0  0
  2 10  1  0  0  0  0
  2 17  1  0  0  0  0
  7  9  1  0  0  0  0
  8 10  1  0  0  0  0
 11  7  1  1  0  0  0
 11 13  1  0  0  0  0
 11 15  1  0  0  0  0
 12  8  1  6  0  0  0
 12 14  1  0  0  0  0
 12 16  1  0  0  0  0
 13 21  1  0  0  0  0
 14 22  1  0  0  0  0
 15 17  1  6  0  0  0
 15 19  1  0  0  0  0
 16 18  1  1  0  0  0
 16 20  1  0  0  0  0
 19 21  1  0  0  0  0
 20 22  1  0  0  0  0
 21 32  1  1  0  0  0
 22 42  1  6  0  0  0
 23 24  2  0  0  0  0
 23 28  1  0  0  0  0
 24 25  1  0  0  0  0
 25 26  2  0  0  0  0
 26 27  1  0  0  0  0
 26 32  1  0  0  0  0
 27 28  2  0  0  0  0
 27 30  1  0  0  0  0
 28 29  1  0  0  0  0
 30 31  2  0  0  0  0
 31 32  1  0  0  0  0
 33 34  2  0  0  0  0
 33 38  1  0  0  0  0
 34 35  1  0  0  0  0
 35 36  2  0  0  0  0
 36 37  1  0  0  0  0
 36 42  1  0  0  0  0
 37 38  2  0  0  0  0
 37 40  1  0  0  0  0
 38 39  1  0  0  0  0
 40 41  2  0  0  0  0
 41 42  1  0  0  0  0
M  CHG  2   3  -1   4  -1
M  END
>  <CHROM.1>
63.92842283,-152.51857285,8.02789665,-33.39794087,-13.94454009,0.34315437
0.01858948,-0.80320414

>  <Name>
ligand

>  <RI>
0

>  <Rbt.Current_Directory>
/home/itssahil/PROJECTS/Mol_Feturizer/New_Systems/rnas/4QLN

>  <Rbt.Executable>
rbdock ($Id: //depot/dev/client3/rdock/2013.1/src/exe/rbdock.cxx#4 $)

>  <Rbt.Library>
libRbt.so (2013.1, Build901 2013/11/27)

>  <Rbt.Parameter_File>
/export/apps/rDock/src/rDock_2013.1_src/data/scripts/dock_solv.prm

>  <Rbt.Receptor>
prm/pocket_docking_8.prm

>  <SCORE>
-15.2388

>  <SCORE.INTER>
-15.0998

>  <SCORE.INTER.CONST>
1

>  <SCORE.INTER.POLAR>
0

>  <SCORE.INTER.ROT>
2

>  <SCORE.INTER.SOLV>
22.9889

>  <SCORE.INTER.VDW>
-22.6628

>  <SCORE.INTER.norm>
-0.359518

>  <SCORE.INTRA>
-0.139005

>  <SCORE.INTRA.DIHEDRAL>
0.000948697

>  <SCORE.INTRA.DIHEDRAL.0>
2.39985

>  <SCORE.INTRA.POLAR>
0

>  <SCORE.INTRA.POLAR.0>
0

>  <SCORE.INTRA.REPUL>
0

>  <SCORE.INTRA.REPUL.0>
0

>  <SCORE.INTRA.SOLV>
-0.0907978

>  <SCORE.INTRA.SOLV.lig_0>
-110.958

>  <SCORE.INTRA.VDW>
-0.0940803

>  <SCORE.INTRA.VDW.0>
-2.34644

>  <SCORE.INTRA.norm>
-0.00330964

>  <SCORE.RESTR>
0

>  <SCORE.RESTR.CAVITY>
0

>  <SCORE.RESTR.norm>
0

>  <SCORE.SYSTEM>
0

>  <SCORE.SYSTEM.CONST>
0

>  <SCORE.SYSTEM.DIHEDRAL>
0

>  <SCORE.SYSTEM.SOLV>
0

>  <SCORE.SYSTEM.norm>
0

>  <SCORE.heavy>
42

>  <SCORE.norm>
-0.362828

>  <RMSD>
6.620

$$$$
ligand
 OpenBabel11021811513D
libRbt.so/2013.1/901 2013/11/27
 42 48  0  0  0  0  0  0  0  0999 V2000
    3.3626  -34.0862  -16.1990 P   0  0  2  0  0  0  0  0  0  0  0  0
    6.5254  -32.6753  -12.5220 P   0  0  1  0  0  0  0  0  0  0  0  0
    2.0635  -33.3335  -16.3684 O   0  5  0  0  0  0  0  0  0  0  0  0
    7.0908  -34.0224  -12.9041 O   0  5  0  0  0  0  0  0  0  0  0  0
    3.5500  -35.4254  -16.8708 O   0  0  0  0  0  0  0  0  0  0  0  0
    7.3226  -31.7462  -11.6383 O   0  0  0  0  0  0  0  0  0  0  0  0
    2.5497  -34.4372  -13.7145 C   0  0  0  0  0  0  0  0  0  0  0  0
    7.1507  -31.5886  -14.8418 C   0  0  0  0  0  0  0  0  0  0  0  0
    3.6363  -34.2698  -14.6235 O   0  0  0  0  0  0  0  0  0  0  0  0
    6.1475  -31.8855  -13.8732 O   0  0  0  0  0  0  0  0  0  0  0  0
    2.9292  -33.8569  -12.3573 C   0  0  1  0  0  0  0  0  0  0  0  0
    6.6716  -32.0209  -16.2219 C   0  0  1  0  0  0  0  0  0  0  0  0
    2.1268  -34.4554  -11.3357 O   0  0  0  0  0  0  0  0  0  0  0  0
    7.7965  -32.2380  -17.0770 O   0  0  0  0  0  0  0  0  0  0  0  0
    4.3859  -34.1349  -12.0272 C   0  0  1  0  0  0  0  0  0  0  0  0
    5.8843  -33.3197  -16.1511 C   0  0  1  0  0  0  0  0  0  0  0  0
    5.0865  -32.9093  -11.8374 O   0  0  0  0  0  0  0  0  0  0  0  0
    4.5669  -33.1203  -16.6548 O   0  0  0  0  0  0  0  0  0  0  0  0
    4.3887  -34.9400  -10.7410 C   0  0  0  0  0  0  0  0  0  0  0  0
    6.6263  -34.3194  -17.0169 C   0  0  0  0  0  0  0  0  0  0  0  0
    2.9283  -35.1145  -10.3516 C   0  0  2  0  0  0  0  0  0  0  0  0
    7.8323  -33.5775  -17.5754 C   0  0  2  0  0  0  0  0  0  0  0  0
    2.7841  -39.6357  -13.0193 N   0  0  0  0  0  0  0  0  0  0  0  0
    3.1894  -38.4122  -13.4066 C   0  0  0  0  0  0  0  0  0  0  0  0
    3.1700  -37.3303  -12.6066 N   0  0  0  0  0  0  0  0  0  0  0  0
    2.7286  -37.4181  -11.3290 C   0  0  0  0  0  0  0  0  0  0  0  0
    2.2683  -38.7236  -10.8303 C   0  0  0  0  0  0  0  0  0  0  0  0
    2.3194  -39.8678  -11.7712 C   0  0  0  0  0  0  0  0  0  0  0  0
    1.9150  -41.1043  -11.3928 N   0  0  0  0  0  0  0  0  0  0  0  0
    1.8894  -38.5346   -9.5524 N   0  0  0  0  0  0  0  0  0  0  0  0
    2.0887  -37.2244   -9.2577 C   0  0  0  0  0  0  0  0  0  0  0  0
    2.5891  -36.5588  -10.3164 N   0  0  0  0  0  0  0  0  0  0  0  0
   12.9852  -34.1952  -18.3747 N   0  0  0  0  0  0  0  0  0  0  0  0
   12.0888  -33.4406  -19.0370 C   0  0  0  0  0  0  0  0  0  0  0  0
   10.7834  -33.3782  -18.7181 N   0  0  0  0  0  0  0  0  0  0  0  0
   10.2873  -34.0944  -17.6804 C   0  0  0  0  0  0  0  0  0  0  0  0
   11.2055  -34.9441  -16.9065 C   0  0  0  0  0  0  0  0  0  0  0  0
   12.6287  -34.9590  -17.3195 C   0  0  0  0  0  0  0  0  0  0  0  0
   13.5412  -35.7143  -16.6601 N   0  0  0  0  0  0  0  0  0  0  0  0
   10.4663  -35.5351  -15.9488 N   0  0  0  0  0  0  0  0  0  0  0  0
    9.1877  -35.1023  -16.0968 C   0  0  0  0  0  0  0  0  0  0  0  0
    9.0810  -34.2445  -17.1281 N   0  0  0  0  0  0  0  0  0  0  0  0
  1  3  1  6  0  0  0
  1  5  2  0  0  0  0
  1  9  1  0  0  0  0
  1 18  1  0  0  0  0
  2  4  1  6  0  0  0
  2  6  2  0  0  0  0
  2 10  1  0  0  0  0
  2 17  1  0  0  0  0
  7  9  1  0  0  0  0
  8 10  1  0  0  0  0
 11  7  1  6  0  0  0
 11 13  1  0  0  0  0
 11 15  1  0  0  0  0
 12  8  1  1  0  0  0
 12 14  1  0  0  0  0
 12 16  1  0  0  0  0
 13 21  1  0  0  0  0
 14 22  1  0  0  0  0
 15 17  1  1  0  0  0
 15 19  1  0  0  0  0
 16 18  1  6  0  0  0
 16 20  1  0  0  0  0
 19 21  1  0  0  0  0
 20 22  1  0  0  0  0
 21 32  1  6  0  0  0
 22 42  1  1  0  0  0
 23 24  2  0  0  0  0
 23 28  1  0  0  0  0
 24 25  1  0  0  0  0
 25 26  2  0  0  0  0
 26 27  1  0  0  0  0
 26 32  1  0  0  0  0
 27 28  2  0  0  0  0
 27 30  1  0  0  0  0
 28 29  1  0  0  0  0
 30 31  2  0  0  0  0
 31 32  1  0  0  0  0
 33 34  2  0  0  0  0
 33 38  1  0  0  0  0
 34 35  1  0  0  0  0
 35 36  2  0  0  0  0
 36 37  1  0  0  0  0
 36 42  1  0  0  0  0
 37 38  2  0  0  0  0
 37 40  1  0  0  0  0
 38 39  1  0  0  0  0
 40 41  2  0  0  0  0
 41 42  1  0  0  0  0
M  CHG  2   3  -1   4  -1
M  END
>  <CHROM.1>
61.59472618,-79.78143993,5.79516225,-34.77603920,-14.29578132,2.65493834
-0.52243418,2.82980324

>  <Name>
ligand

>  <RI>
0

>  <Rbt.Current_Directory>
/home/itssahil/PROJECTS/Mol_Feturizer/New_Systems/rnas/4QLN

>  <Rbt.Executable>
rbdock ($Id: //depot/dev/client3/rdock/2013.1/src/exe/rbdock.cxx#4 $)

>  <Rbt.Library>
libRbt.so (2013.1, Build901 2013/11/27)

>  <Rbt.Parameter_File>
/export/apps/rDock/src/rDock_2013.1_src/data/scripts/dock_solv.prm

>  <Rbt.Receptor>
prm/pocket_docking_8.prm

>  <SCORE>
-13.4125

>  <SCORE.INTER>
-14.2011

>  <SCORE.INTER.CONST>
1

>  <SCORE.INTER.POLAR>
0

>  <SCORE.INTER.ROT>
2

>  <SCORE.INTER.SOLV>
16.7042

>  <SCORE.INTER.VDW>
-19.9688

>  <SCORE.INTER.norm>
-0.338121

>  <SCORE.INTRA>
0.78861

>  <SCORE.INTRA.DIHEDRAL>
-0.000476386

>  <SCORE.INTRA.DIHEDRAL.0>
2.39985

>  <SCORE.INTRA.POLAR>
0

>  <SCORE.INTRA.POLAR.0>
0

>  <SCORE.INTRA.REPUL>
0

>  <SCORE.INTRA.REPUL.0>
0

>  <SCORE.INTRA.SOLV>
-0.0399001

>  <SCORE.INTRA.SOLV.lig_0>
-110.958

>  <SCORE.INTRA.VDW>
0.808799

>  <SCORE.INTRA.VDW.0>
-2.34644

>  <SCORE.INTRA.norm>
0.0187764

>  <SCORE.RESTR>
0

>  <SCORE.RESTR.CAVITY>
0

>  <SCORE.RESTR.norm>
0

>  <SCORE.SYSTEM>
0

>  <SCORE.SYSTEM.CONST>
0

>  <SCORE.SYSTEM.DIHEDRAL>
0

>  <SCORE.SYSTEM.SOLV>
0

>  <SCORE.SYSTEM.norm>
0

>  <SCORE.heavy>
42

>  <SCORE.norm>
-0.319345

>  <RMSD>
6.641

$$$$
ligand
 OpenBabel11021811513D
libRbt.so/2013.1/901 2013/11/27
 42 48  0  0  0  0  0  0  0  0999 V2000
    6.5512  -31.6718  -12.6619 P   0  0  2  0  0  0  0  0  0  0  0  0
    4.5809  -34.4288  -16.4077 P   0  0  1  0  0  0  0  0  0  0  0  0
    6.8755  -30.2191  -12.9220 O   0  5  0  0  0  0  0  0  0  0  0  0
    4.9844  -35.5020  -15.4249 O   0  5  0  0  0  0  0  0  0  0  0  0
    7.1174  -32.3634  -11.4449 O   0  0  0  0  0  0  0  0  0  0  0  0
    3.6870  -34.7728  -17.5747 O   0  0  0  0  0  0  0  0  0  0  0  0
    8.0920  -32.1344  -14.7521 C   0  0  0  0  0  0  0  0  0  0  0  0
    2.7244  -33.4539  -14.8088 C   0  0  0  0  0  0  0  0  0  0  0  0
    6.9676  -32.5214  -13.9641 O   0  0  0  0  0  0  0  0  0  0  0  0
    3.8971  -33.2244  -15.5864 O   0  0  0  0  0  0  0  0  0  0  0  0
    7.8586  -32.5390  -16.2028 C   0  0  1  0  0  0  0  0  0  0  0  0
    2.9193  -32.8815  -13.4104 C   0  0  1  0  0  0  0  0  0  0  0  0
    9.1134  -32.6519  -16.8797 O   0  0  0  0  0  0  0  0  0  0  0  0
    2.0429  -33.5405  -12.4930 O   0  0  0  0  0  0  0  0  0  0  0  0
    7.1583  -33.8843  -16.2936 C   0  0  1  0  0  0  0  0  0  0  0  0
    4.3442  -33.0894  -12.9225 C   0  0  1  0  0  0  0  0  0  0  0  0
    5.9204  -33.7452  -16.9843 O   0  0  0  0  0  0  0  0  0  0  0  0
    4.9499  -31.8328  -12.6343 O   0  0  0  0  0  0  0  0  0  0  0  0
    8.0866  -34.8000  -17.0697 C   0  0  0  0  0  0  0  0  0  0  0  0
    4.2483  -33.9224  -11.6589 C   0  0  0  0  0  0  0  0  0  0  0  0
    9.3111  -33.9644  -17.4121 C   0  0  2  0  0  0  0  0  0  0  0  0
    2.7646  -34.1807  -11.4378 C   0  0  2  0  0  0  0  0  0  0  0  0
   11.8365  -38.4141  -16.2283 N   0  0  0  0  0  0  0  0  0  0  0  0
   10.6513  -38.2246  -16.8372 C   0  0  0  0  0  0  0  0  0  0  0  0
   10.1200  -37.0118  -17.0780 N   0  0  0  0  0  0  0  0  0  0  0  0
   10.7705  -35.8822  -16.7095 C   0  0  0  0  0  0  0  0  0  0  0  0
   12.0737  -36.0064  -16.0380 C   0  0  0  0  0  0  0  0  0  0  0  0
   12.5926  -37.3755  -15.8074 C   0  0  0  0  0  0  0  0  0  0  0  0
   13.7846  -37.5791  -15.1963 N   0  0  0  0  0  0  0  0  0  0  0  0
   12.4958  -34.7535  -15.7843 N   0  0  0  0  0  0  0  0  0  0  0  0
   11.5475  -33.9015  -16.2513 C   0  0  0  0  0  0  0  0  0  0  0  0
   10.5192  -34.5741  -16.8030 N   0  0  0  0  0  0  0  0  0  0  0  0
    2.2897  -38.4786  -14.4169 N   0  0  0  0  0  0  0  0  0  0  0  0
    2.5577  -37.2065  -14.7656 C   0  0  0  0  0  0  0  0  0  0  0  0
    2.6510  -36.1939  -13.8850 N   0  0  0  0  0  0  0  0  0  0  0  0
    2.4747  -36.4088  -12.5588 C   0  0  0  0  0  0  0  0  0  0  0  0
    2.1785  -37.7742  -12.0985 C   0  0  0  0  0  0  0  0  0  0  0  0
    2.0921  -38.8353  -13.1295 C   0  0  0  0  0  0  0  0  0  0  0  0
    1.8236  -40.1203  -12.7909 N   0  0  0  0  0  0  0  0  0  0  0  0
    2.0527  -37.7090  -10.7595 N   0  0  0  0  0  0  0  0  0  0  0  0
    2.2504  -36.4160  -10.3949 C   0  0  0  0  0  0  0  0  0  0  0  0
    2.5016  -35.6415  -11.4664 N   0  0  0  0  0  0  0  0  0  0  0  0
  1  3  1  6  0  0  0
  1  5  2  0  0  0  0
  1  9  1  0  0  0  0
  1 18  1  0  0  0  0
  2  4  1  1  0  0  0
  2  6  2  0  0  0  0
  2 10  1  0  0  0  0
  2 17  1  0  0  0  0
  7  9  1  0  0  0  0
  8 10  1  0  0  0  0
 11  7  1  1  0  0  0
 11 13  1  0  0  0  0
 11 15  1  0  0  0  0
 12  8  1  6  0  0  0
 12 14  1  0  0  0  0
 12 16  1  0  0  0  0
 13 21  1  0  0  0  0
 14 22  1  0  0  0  0
 15 17  1  6  0  0  0
 15 19  1  0  0  0  0
 16 18  1  1  0  0  0
 16 20  1  0  0  0  0
 19 21  1  0  0  0  0
 20 22  1  0  0  0  0
 21 32  1  1  0  0  0
 22 42  1  6  0  0  0
 23 24  2  0  0  0  0
 23 28  1  0  0  0  0
 24 25  1  0  0  0  0
 25 26  2  0  0  0  0
 26 27  1  0  0  0  0
 26 32  1  0  0  0  0
 27 28  2  0  0  0  0
 27 30  1  0  0  0  0
 28 29  1  0  0  0  0
 30 31  2  0  0  0  0
 31 32  1  0  0  0  0
 33 34  2  0  0  0  0
 33 38  1  0  0  0  0
 34 35  1  0  0  0  0
 35 36  2  0  0  0  0
 36 37  1  0  0  0  0
 36 42  1  0  0  0  0
 37 38  2  0  0  0  0
 37 40  1  0  0  0  0
 38 39  1  0  0  0  0
 40 41  2  0  0  0  0
 41 42  1  0  0  0  0
M  CHG  2   3  -1   4  -1
M  END
>  <CHROM.1>
156.78313112,43.53218016,6.19500056,-34.78194452,-14.52660069,-3.10908551
-0.39995638,-2.99583216

>  <Name>
ligand

>  <RI>
0

>  <Rbt.Current_Directory>
/home/itssahil/PROJECTS/Mol_Feturizer/New_Systems/rnas/4QLN

>  <Rbt.Executable>
rbdock ($Id: //depot/dev/client3/rdock/2013.1/src/exe/rbdock.cxx#4 $)

>  <Rbt.Library>
libRbt.so (2013.1, Build901 2013/11/27)

>  <Rbt.Parameter_File>
/export/apps/rDock/src/rDock_2013.1_src/data/scripts/dock_solv.prm

>  <Rbt.Receptor>
prm/pocket_docking_6.prm

>  <SCORE>
-11.198

>  <SCORE.INTER>
-11.9095

>  <SCORE.INTER.CONST>
1

>  <SCORE.INTER.POLAR>
0

>  <SCORE.INTER.ROT>
2

>  <SCORE.INTER.SOLV>
17.8759

>  <SCORE.INTER.VDW>
-18.8316

>  <SCORE.INTER.norm>
-0.283559

>  <SCORE.INTRA>
0.711478

>  <SCORE.INTRA.DIHEDRAL>
-0.000667574

>  <SCORE.INTRA.DIHEDRAL.0>
2.39985

>  <SCORE.INTRA.POLAR>
0

>  <SCORE.INTRA.POLAR.0>
0

>  <SCORE.INTRA.REPUL>
0

>  <SCORE.INTRA.REPUL.0>
0

>  <SCORE.INTRA.SOLV>
0.928438

>  <SCORE.INTRA.SOLV.lig_0>
-110.958

>  <SCORE.INTRA.VDW>
0.247592

>  <SCORE.INTRA.VDW.0>
-2.34644

>  <SCORE.INTRA.norm>
0.0169399

>  <SCORE.RESTR>
0

>  <SCORE.RESTR.CAVITY>
0

>  <SCORE.RESTR.norm>
0

>  <SCORE.SYSTEM>
0

>  <SCORE.SYSTEM.CONST>
0

>  <SCORE.SYSTEM.DIHEDRAL>
0

>  <SCORE.SYSTEM.SOLV>
0

>  <SCORE.SYSTEM.norm>
0

>  <SCORE.heavy>
42

>  <SCORE.norm>
-0.266619

>  <RMSD>
6.671

$$$$
ligand
 OpenBabel11021811513D
libRbt.so/2013.1/901 2013/11/27
 42 48  0  0  0  0  0  0  0  0999 V2000
    2.9510  -35.0219  -16.7974 P   0  0  2  0  0  0  0  0  0  0  0  0
    5.4656  -32.3920  -13.2939 P   0  0  1  0  0  0  0  0  0  0  0  0
    1.7463  -34.3897  -17.4548 O   0  5  0  0  0  0  0  0  0  0  0  0
    6.0178  -33.7812  -13.0806 O   0  5  0  0  0  0  0  0  0  0  0  0
    3.1850  -36.5081  -16.9250 O   0  0  0  0  0  0  0  0  0  0  0  0
    6.1380  -31.2057  -12.6458 O   0  0  0  0  0  0  0  0  0  0  0  0
    1.6834  -34.5057  -14.5427 C   0  0  0  0  0  0  0  0  0  0  0  0
    6.5585  -32.1631  -15.6827 C   0  0  0  0  0  0  0  0  0  0  0  0
    2.9242  -34.6483  -15.2320 O   0  0  0  0  0  0  0  0  0  0  0  0
    5.3819  -32.1206  -14.8788 O   0  0  0  0  0  0  0  0  0  0  0  0
    1.8410  -33.4889  -13.4185 C   0  0  1  0  0  0  0  0  0  0  0  0
    6.3151  -33.0501  -16.8972 C   0  0  1  0  0  0  0  0  0  0  0  0
    0.8358  -33.7088  -12.4251 O   0  0  0  0  0  0  0  0  0  0  0  0
    7.5631  -33.5346  -17.3988 O   0  0  0  0  0  0  0  0  0  0  0  0
    3.1968  -33.6182  -12.7449 C   0  0  1  0  0  0  0  0  0  0  0  0
    5.4596  -34.2547  -16.5384 C   0  0  1  0  0  0  0  0  0  0  0  0
    3.9160  -32.3937  -12.8551 O   0  0  0  0  0  0  0  0  0  0  0  0
    4.2679  -34.2573  -17.3189 O   0  0  0  0  0  0  0  0  0  0  0  0
    2.9231  -33.9309  -11.2855 C   0  0  0  0  0  0  0  0  0  0  0  0
    6.2916  -35.4822  -16.8556 C   0  0  0  0  0  0  0  0  0  0  0  0
    1.4091  -33.9787  -11.1430 C   0  0  2  0  0  0  0  0  0  0  0  0
    7.6169  -34.9633  -17.3951 C   0  0  2  0  0  0  0  0  0  0  0  0
    1.8979  -39.1658  -11.8012 N   0  0  0  0  0  0  0  0  0  0  0  0
    2.4818  -38.1486  -12.4611 C   0  0  0  0  0  0  0  0  0  0  0  0
    2.2600  -36.8510  -12.1817 N   0  0  0  0  0  0  0  0  0  0  0  0
    1.4114  -36.4886  -11.1900 C   0  0  0  0  0  0  0  0  0  0  0  0
    0.7337  -37.5442  -10.4212 C   0  0  0  0  0  0  0  0  0  0  0  0
    1.0288  -38.9496  -10.7886 C   0  0  0  0  0  0  0  0  0  0  0  0
    0.4479  -39.9821  -10.1313 N   0  0  0  0  0  0  0  0  0  0  0  0
   -0.0397  -36.9210   -9.5125 N   0  0  0  0  0  0  0  0  0  0  0  0
    0.1270  -35.5845   -9.6832 C   0  0  0  0  0  0  0  0  0  0  0  0
    0.9922  -35.3266  -10.6829 N   0  0  0  0  0  0  0  0  0  0  0  0
   10.2406  -34.2078  -12.9098 N   0  0  0  0  0  0  0  0  0  0  0  0
    9.1918  -33.5395  -13.4246 C   0  0  0  0  0  0  0  0  0  0  0  0
    8.6133  -33.8470  -14.5995 N   0  0  0  0  0  0  0  0  0  0  0  0
    9.0706  -34.8786  -15.3495 C   0  0  0  0  0  0  0  0  0  0  0  0
   10.2152  -35.6585  -14.8537 C   0  0  0  0  0  0  0  0  0  0  0  0
   10.7973  -35.2579  -13.5510 C   0  0  0  0  0  0  0  0  0  0  0  0
   11.8531  -35.9236  -13.0217 N   0  0  0  0  0  0  0  0  0  0  0  0
   10.4608  -36.6082  -15.7759 N   0  0  0  0  0  0  0  0  0  0  0  0
    9.5540  -36.4500  -16.7742 C   0  0  0  0  0  0  0  0  0  0  0  0
    8.7261  -35.4199  -16.5205 N   0  0  0  0  0  0  0  0  0  0  0  0
  1  3  1  6  0  0  0
  1  5  2  0  0  0  0
  1  9  1  0  0  0  0
  1 18  1  0  0  0  0
  2  4  1  1  0  0  0
  2  6  2  0  0  0  0
  2 10  1  0  0  0  0
  2 17  1  0  0  0  0
  7  9  1  0  0  0  0
  8 10  1  0  0  0  0
 11  7  1  6  0  0  0
 11 13  1  0  0  0  0
 11 15  1  0  0  0  0
 12  8  1  1  0  0  0
 12 14  1  0  0  0  0
 12 16  1  0  0  0  0
 13 21  1  0  0  0  0
 14 22  1  0  0  0  0
 15 17  1  1  0  0  0
 15 19  1  0  0  0  0
 16 18  1  6  0  0  0
 16 20  1  0  0  0  0
 19 21  1  0  0  0  0
 20 22  1  0  0  0  0
 21 32  1  6  0  0  0
 22 42  1  1  0  0  0
 23 24  2  0  0  0  0
 23 28  1  0  0  0  0
 24 25  1  0  0  0  0
 25 26  2  0  0  0  0
 26 27  1  0  0  0  0
 26 32  1  0  0  0  0
 27 28  2  0  0  0  0
 27 30  1  0  0  0  0
 28 29  1  0  0  0  0
 30 31  2  0  0  0  0
 31 32  1  0  0  0  0
 33 34  2  0  0  0  0
 33 38  1  0  0  0  0
 34 35  1  0  0  0  0
 35 36  2  0  0  0  0
 36 37  1  0  0  0  0
 36 42  1  0  0  0  0
 37 38  2  0  0  0  0
 37 40  1  0  0  0  0
 38 39  1  0  0  0  0
 40 41  2  0  0  0  0
 41 42  1  0  0  0  0
M  CHG  2   3  -1   4  -1
M  END
>  <CHROM.1>
71.12953376,39.39569511,4.78011747,-34.85878204,-13.99502999,2.62677675,-0.03310497
2.07725520

>  <Name>
ligand

>  <RI>
0

>  <Rbt.Current_Directory>
/home/itssahil/PROJECTS/Mol_Feturizer/New_Systems/rnas/4QLN

>  <Rbt.Executable>
rbdock ($Id: //depot/dev/client3/rdock/2013.1/src/exe/rbdock.cxx#4 $)

>  <Rbt.Library>
libRbt.so (2013.1, Build901 2013/11/27)

>  <Rbt.Parameter_File>
/export/apps/rDock/src/rDock_2013.1_src/data/scripts/dock_solv.prm

>  <Rbt.Receptor>
prm/pocket_docking_6.prm

>  <SCORE>
-11.6698

>  <SCORE.INTER>
-11.2161

>  <SCORE.INTER.CONST>
1

>  <SCORE.INTER.POLAR>
0

>  <SCORE.INTER.ROT>
2

>  <SCORE.INTER.SOLV>
14.2162

>  <SCORE.INTER.VDW>
-17.1495

>  <SCORE.INTER.norm>
-0.26705

>  <SCORE.INTRA>
-0.453716

>  <SCORE.INTRA.DIHEDRAL>
-0.000370131

>  <SCORE.INTRA.DIHEDRAL.0>
2.39985

>  <SCORE.INTRA.POLAR>
0

>  <SCORE.INTRA.POLAR.0>
0

>  <SCORE.INTRA.REPUL>
0

>  <SCORE.INTRA.REPUL.0>
0

>  <SCORE.INTRA.SOLV>
0.837695

>  <SCORE.INTRA.SOLV.lig_0>
-110.958

>  <SCORE.INTRA.VDW>
-0.872379

>  <SCORE.INTRA.VDW.0>
-2.34644

>  <SCORE.INTRA.norm>
-0.0108028

>  <SCORE.RESTR>
0

>  <SCORE.RESTR.CAVITY>
0

>  <SCORE.RESTR.norm>
0

>  <SCORE.SYSTEM>
0

>  <SCORE.SYSTEM.CONST>
0

>  <SCORE.SYSTEM.DIHEDRAL>
0

>  <SCORE.SYSTEM.SOLV>
0

>  <SCORE.SYSTEM.norm>
0

>  <SCORE.heavy>
42

>  <SCORE.norm>
-0.277853

>  <RMSD>
6.685

$$$$
ligand
 OpenBabel11021811513D
libRbt.so/2013.1/901 2013/11/27
 42 48  0  0  0  0  0  0  0  0999 V2000
    8.5625  -31.4481  -15.0071 P   0  0  2  0  0  0  0  0  0  0  0  0
    5.9911  -35.3353  -16.9544 P   0  0  1  0  0  0  0  0  0  0  0  0
    9.1730  -30.4363  -15.9485 O   0  5  0  0  0  0  0  0  0  0  0  0
    6.1855  -35.7885  -15.5271 O   0  5  0  0  0  0  0  0  0  0  0  0
    8.9993  -31.4917  -13.5623 O   0  0  0  0  0  0  0  0  0  0  0  0
    5.0218  -36.0660  -17.8521 O   0  0  0  0  0  0  0  0  0  0  0  0
    9.9320  -33.2128  -16.4098 C   0  0  0  0  0  0  0  0  0  0  0  0
    4.4079  -33.3431  -16.2631 C   0  0  0  0  0  0  0  0  0  0  0  0
    8.7685  -32.9135  -15.6405 O   0  0  0  0  0  0  0  0  0  0  0  0
    5.5865  -33.7769  -16.9379 O   0  0  0  0  0  0  0  0  0  0  0  0
    9.5907  -34.2650  -17.4581 C   0  0  1  0  0  0  0  0  0  0  0  0
    4.7449  -32.1715  -15.3493 C   0  0  1  0  0  0  0  0  0  0  0  0
   10.7814  -34.9461  -17.8629 O   0  0  0  0  0  0  0  0  0  0  0  0
    3.7708  -32.0768  -14.3072 O   0  0  0  0  0  0  0  0  0  0  0  0
    8.6272  -35.3014  -16.9049 C   0  0  1  0  0  0  0  0  0  0  0  0
    6.1063  -32.3537  -14.6975 C   0  0  1  0  0  0  0  0  0  0  0  0
    7.4303  -35.3172  -17.6770 O   0  0  0  0  0  0  0  0  0  0  0  0
    6.9632  -31.2702  -15.0453 O   0  0  0  0  0  0  0  0  0  0  0  0
    9.3313  -36.6414  -17.0097 C   0  0  0  0  0  0  0  0  0  0  0  0
    5.8672  -32.3675  -13.2001 C   0  0  0  0  0  0  0  0  0  0  0  0
   10.6941  -36.3530  -17.6217 C   0  0  2  0  0  0  0  0  0  0  0  0
    4.3670  -32.1911  -13.0128 C   0  0  2  0  0  0  0  0  0  0  0  0
   13.8617  -34.8923  -13.6961 N   0  0  0  0  0  0  0  0  0  0  0  0
   12.9330  -34.1884  -14.3693 C   0  0  0  0  0  0  0  0  0  0  0  0
   12.1857  -34.6982  -15.3658 N   0  0  0  0  0  0  0  0  0  0  0  0
   12.3328  -35.9871  -15.7556 C   0  0  0  0  0  0  0  0  0  0  0  0
   13.3290  -36.8226  -15.0669 C   0  0  0  0  0  0  0  0  0  0  0  0
   14.1137  -36.1897  -13.9804 C   0  0  0  0  0  0  0  0  0  0  0  0
   15.0507  -36.8879  -13.2948 N   0  0  0  0  0  0  0  0  0  0  0  0
   13.2717  -38.0394  -15.6400 N   0  0  0  0  0  0  0  0  0  0  0  0
   12.3233  -37.9888  -16.6101 C   0  0  0  0  0  0  0  0  0  0  0  0
   11.7633  -36.7657  -16.6790 N   0  0  0  0  0  0  0  0  0  0  0  0
    0.6791  -35.9289  -12.9910 N   0  0  0  0  0  0  0  0  0  0  0  0
    0.9014  -34.9345  -13.8704 C   0  0  0  0  0  0  0  0  0  0  0  0
    1.8965  -34.0376  -13.7487 N   0  0  0  0  0  0  0  0  0  0  0  0
    2.7544  -34.0904  -12.7012 C   0  0  0  0  0  0  0  0  0  0  0  0
    2.5767  -35.1501  -11.6964 C   0  0  0  0  0  0  0  0  0  0  0  0
    1.4576  -36.0999  -11.9009 C   0  0  0  0  0  0  0  0  0  0  0  0
    1.2239  -37.1060  -11.0227 N   0  0  0  0  0  0  0  0  0  0  0  0
    3.5472  -34.9762  -10.7795 N   0  0  0  0  0  0  0  0  0  0  0  0
    4.2811  -33.8999  -11.1631 C   0  0  0  0  0  0  0  0  0  0  0  0
    3.8088  -33.3723  -12.3075 N   0  0  0  0  0  0  0  0  0  0  0  0
  1  3  1  6  0  0  0
  1  5  2  0  0  0  0
  1  9  1  0  0  0  0
  1 18  1  0  0  0  0
  2  4  1  1  0  0  0
  2  6  2  0  0  0  0
  2 10  1  0  0  0  0
  2 17  1  0  0  0  0
  7  9  1  0  0  0  0
  8 10  1  0  0  0  0
 11  7  1  1  0  0  0
 11 13  1  0  0  0  0
 11 15  1  0  0  0  0
 12  8  1  6  0  0  0
 12 14  1  0  0  0  0
 12 16  1  0  0  0  0
 13 21  1  0  0  0  0
 14 22  1  0  0  0  0
 15 17  1  6  0  0  0
 15 19  1  0  0  0  0
 16 18  1  1  0  0  0
 16 20  1  0  0  0  0
 19 21  1  0  0  0  0
 20 22  1  0  0  0  0
 21 32  1  1  0  0  0
 22 42  1  6  0  0  0
 23 24  2  0  0  0  0
 23 28  1  0  0  0  0
 24 25  1  0  0  0  0
 25 26  2  0  0  0  0
 26 27  1  0  0  0  0
 26 32  1  0  0  0  0
 27 28  2  0  0  0  0
 27 30  1  0  0  0  0
 28 29  1  0  0  0  0
 30 31  2  0  0  0  0
 31 32  1  0  0  0  0
 33 34  2  0  0  0  0
 33 38  1  0  0  0  0
 34 35  1  0  0  0  0
 35 36  2  0  0  0  0
 36 37  1  0  0  0  0
 36 42  1  0  0  0  0
 37 38  2  0  0  0  0
 37 40  1  0  0  0  0
 38 39  1  0  0  0  0
 40 41  2  0  0  0  0
 41 42  1  0  0  0  0
M  CHG  2   3  -1   4  -1
M  END
>  <CHROM.1>
27.16713947,-10.75190683,7.47951797,-34.42532702,-14.95962807,-0.12322493
0.25892439,-0.04497235

>  <Name>
ligand

>  <RI>
0

>  <Rbt.Current_Directory>
/home/itssahil/PROJECTS/Mol_Feturizer/New_Systems/rnas/4QLN

>  <Rbt.Executable>
rbdock ($Id: //depot/dev/client3/rdock/2013.1/src/exe/rbdock.cxx#4 $)

>  <Rbt.Library>
libRbt.so (2013.1, Build901 2013/11/27)

>  <Rbt.Parameter_File>
/export/apps/rDock/src/rDock_2013.1_src/data/scripts/dock_solv.prm

>  <Rbt.Receptor>
prm/pocket_docking_7.prm

>  <SCORE>
-11.1337

>  <SCORE.INTER>
-11.5908

>  <SCORE.INTER.CONST>
1

>  <SCORE.INTER.POLAR>
0

>  <SCORE.INTER.ROT>
2

>  <SCORE.INTER.SOLV>
12.1636

>  <SCORE.INTER.VDW>
-16.715

>  <SCORE.INTER.norm>
-0.27597

>  <SCORE.INTRA>
0.457023

>  <SCORE.INTRA.DIHEDRAL>
0.000292687

>  <SCORE.INTRA.DIHEDRAL.0>
2.39985

>  <SCORE.INTRA.POLAR>
0

>  <SCORE.INTRA.POLAR.0>
0

>  <SCORE.INTRA.REPUL>
0

>  <SCORE.INTRA.REPUL.0>
0

>  <SCORE.INTRA.SOLV>
0.00928402

>  <SCORE.INTRA.SOLV.lig_0>
-110.958

>  <SCORE.INTRA.VDW>
0.452235

>  <SCORE.INTRA.VDW.0>
-2.34644

>  <SCORE.INTRA.norm>
0.0108815

>  <SCORE.RESTR>
0

>  <SCORE.RESTR.CAVITY>
0

>  <SCORE.RESTR.norm>
0

>  <SCORE.SYSTEM>
0

>  <SCORE.SYSTEM.CONST>
0

>  <SCORE.SYSTEM.DIHEDRAL>
0

>  <SCORE.SYSTEM.SOLV>
0

>  <SCORE.SYSTEM.norm>
0

>  <SCORE.heavy>
42

>  <SCORE.norm>
-0.265089

>  <RMSD>
6.685

$$$$
ligand
 OpenBabel11021811513D
libRbt.so/2013.1/901 2013/11/27
 42 48  0  0  0  0  0  0  0  0999 V2000
    4.0899  -34.7798  -16.6472 P   0  0  2  0  0  0  0  0  0  0  0  0
    6.2661  -31.9034  -13.1111 P   0  0  1  0  0  0  0  0  0  0  0  0
    2.7958  -34.3106  -17.2702 O   0  5  0  0  0  0  0  0  0  0  0  0
    7.0146  -33.2041  -12.9428 O   0  5  0  0  0  0  0  0  0  0  0  0
    4.5312  -36.2138  -16.8176 O   0  0  0  0  0  0  0  0  0  0  0  0
    6.7739  -30.6492  -12.4412 O   0  0  0  0  0  0  0  0  0  0  0  0
    2.8022  -34.5053  -14.3617 C   0  0  0  0  0  0  0  0  0  0  0  0
    7.2722  -31.4625  -15.5083 C   0  0  0  0  0  0  0  0  0  0  0  0
    4.0382  -34.4521  -15.0721 O   0  0  0  0  0  0  0  0  0  0  0  0
    6.1162  -31.6083  -14.6868 O   0  0  0  0  0  0  0  0  0  0  0  0
    2.8334  -33.5041  -13.2131 C   0  0  1  0  0  0  0  0  0  0  0  0
    7.1360  -32.3453  -16.7424 C   0  0  1  0  0  0  0  0  0  0  0  0
    1.8878  -33.8896  -12.2117 O   0  0  0  0  0  0  0  0  0  0  0  0
    8.4312  -32.6339  -17.2744 O   0  0  0  0  0  0  0  0  0  0  0  0
    4.2056  -33.4545  -12.5627 C   0  0  1  0  0  0  0  0  0  0  0  0
    6.4677  -33.6682  -16.4036 C   0  0  1  0  0  0  0  0  0  0  0  0
    4.7407  -32.1374  -12.6505 O   0  0  0  0  0  0  0  0  0  0  0  0
    5.2748  -33.8223  -17.1668 O   0  0  0  0  0  0  0  0  0  0  0  0
    4.0055  -33.8385  -11.1084 C   0  0  0  0  0  0  0  0  0  0  0  0
    7.4604  -34.7560  -16.7653 C   0  0  0  0  0  0  0  0  0  0  0  0
    2.5166  -34.1059  -10.9456 C   0  0  2  0  0  0  0  0  0  0  0  0
    8.6883  -34.0399  -17.3096 C   0  0  2  0  0  0  0  0  0  0  0  0
    4.7227  -38.4713   -9.0338 N   0  0  0  0  0  0  0  0  0  0  0  0
    5.2717  -37.2776   -9.3253 C   0  0  0  0  0  0  0  0  0  0  0  0
    4.5767  -36.2350   -9.8162 N   0  0  0  0  0  0  0  0  0  0  0  0
    3.2461  -36.3344  -10.0494 C   0  0  0  0  0  0  0  0  0  0  0  0
    2.5721  -37.6088   -9.7554 C   0  0  0  0  0  0  0  0  0  0  0  0
    3.4049  -38.7107   -9.2176 C   0  0  0  0  0  0  0  0  0  0  0  0
    2.8637  -39.9165   -8.9195 N   0  0  0  0  0  0  0  0  0  0  0  0
    1.2748  -37.4392  -10.0726 N   0  0  0  0  0  0  0  0  0  0  0  0
    1.1297  -36.1690  -10.5296 C   0  0  0  0  0  0  0  0  0  0  0  0
    2.3045  -35.5103  -10.5157 N   0  0  0  0  0  0  0  0  0  0  0  0
   11.7427  -32.5023  -13.3249 N   0  0  0  0  0  0  0  0  0  0  0  0
   10.6629  -31.9108  -13.8687 C   0  0  0  0  0  0  0  0  0  0  0  0
    9.9689  -32.4251  -14.8999 N   0  0  0  0  0  0  0  0  0  0  0  0
   10.3321  -33.6030  -15.4625 C   0  0  0  0  0  0  0  0  0  0  0  0
   11.5033  -34.3112  -14.9231 C   0  0  0  0  0  0  0  0  0  0  0  0
   12.2149  -33.6803  -13.7865 C   0  0  0  0  0  0  0  0  0  0  0  0
   13.3032  -34.2665  -13.2297 N   0  0  0  0  0  0  0  0  0  0  0  0
   11.6410  -35.4353  -15.6513 N   0  0  0  0  0  0  0  0  0  0  0  0
   10.6463  -35.4456  -16.5755 C   0  0  0  0  0  0  0  0  0  0  0  0
    9.8668  -34.3543  -16.4633 N   0  0  0  0  0  0  0  0  0  0  0  0
  1  3  1  6  0  0  0
  1  5  2  0  0  0  0
  1  9  1  0  0  0  0
  1 18  1  0  0  0  0
  2  4  1  1  0  0  0
  2  6  2  0  0  0  0
  2 10  1  0  0  0  0
  2 17  1  0  0  0  0
  7  9  1  0  0  0  0
  8 10  1  0  0  0  0
 11  7  1  6  0  0  0
 11 13  1  0  0  0  0
 11 15  1  0  0  0  0
 12  8  1  1  0  0  0
 12 14  1  0  0  0  0
 12 16  1  0  0  0  0
 13 21  1  0  0  0  0
 14 22  1  0  0  0  0
 15 17  1  1  0  0  0
 15 19  1  0  0  0  0
 16 18  1  6  0  0  0
 16 20  1  0  0  0  0
 19 21  1  0  0  0  0
 20 22  1  0  0  0  0
 21 32  1  6  0  0  0
 22 42  1  1  0  0  0
 23 24  2  0  0  0  0
 23 28  1  0  0  0  0
 24 25  1  0  0  0  0
 25 26  2  0  0  0  0
 26 27  1  0  0  0  0
 26 32  1  0  0  0  0
 27 28  2  0  0  0  0
 27 30  1  0  0  0  0
 28 29  1  0  0  0  0
 30 31  2  0  0  0  0
 31 32  1  0  0  0  0
 33 34  2  0  0  0  0
 33 38  1  0  0  0  0
 34 35  1  0  0  0  0
 35 36  2  0  0  0  0
 36 37  1  0  0  0  0
 36 42  1  0  0  0  0
 37 38  2  0  0  0  0
 37 40  1  0  0  0  0
 38 39  1  0  0  0  0
 40 41  2  0  0  0  0
 41 42  1  0  0  0  0
M  CHG  2   3  -1   4  -1
M  END
>  <CHROM.1>
132.44721558,22.37774309,6.04852523,-34.32602030,-13.68429261,2.45986369
0.08111303,2.03943374

>  <Name>
ligand

>  <RI>
0

>  <Rbt.Current_Directory>
/home/itssahil/PROJECTS/Mol_Feturizer/New_Systems/rnas/4QLN

>  <Rbt.Executable>
rbdock ($Id: //depot/dev/client3/rdock/2013.1/src/exe/rbdock.cxx#4 $)

>  <Rbt.Library>
libRbt.so (2013.1, Build901 2013/11/27)

>  <Rbt.Parameter_File>
/export/apps/rDock/src/rDock_2013.1_src/data/scripts/dock_solv.prm

>  <Rbt.Receptor>
prm/pocket_docking_6.prm

>  <SCORE>
-12.6782

>  <SCORE.INTER>
-14.2787

>  <SCORE.INTER.CONST>
1

>  <SCORE.INTER.POLAR>
0

>  <SCORE.INTER.ROT>
2

>  <SCORE.INTER.SOLV>
14.5342

>  <SCORE.INTER.VDW>
-19.2972

>  <SCORE.INTER.norm>
-0.33997

>  <SCORE.INTRA>
1.60052

>  <SCORE.INTRA.DIHEDRAL>
-0.000702394

>  <SCORE.INTRA.DIHEDRAL.0>
2.39985

>  <SCORE.INTRA.POLAR>
0

>  <SCORE.INTRA.POLAR.0>
0

>  <SCORE.INTRA.REPUL>
0

>  <SCORE.INTRA.REPUL.0>
0

>  <SCORE.INTRA.SOLV>
0.113841

>  <SCORE.INTRA.SOLV.lig_0>
-110.958

>  <SCORE.INTRA.VDW>
1.54395

>  <SCORE.INTRA.VDW.0>
-2.34644

>  <SCORE.INTRA.norm>
0.0381076

>  <SCORE.RESTR>
0

>  <SCORE.RESTR.CAVITY>
0

>  <SCORE.RESTR.norm>
0

>  <SCORE.SYSTEM>
0

>  <SCORE.SYSTEM.CONST>
0

>  <SCORE.SYSTEM.DIHEDRAL>
0

>  <SCORE.SYSTEM.SOLV>
0

>  <SCORE.SYSTEM.norm>
0

>  <SCORE.heavy>
42

>  <SCORE.norm>
-0.301862

>  <RMSD>
6.689

$$$$
ligand
 OpenBabel11021811513D
libRbt.so/2013.1/901 2013/11/27
 42 48  0  0  0  0  0  0  0  0999 V2000
    4.0024  -34.7082  -16.6230 P   0  0  2  0  0  0  0  0  0  0  0  0
    6.2835  -31.9375  -13.0685 P   0  0  1  0  0  0  0  0  0  0  0  0
    2.7121  -34.2005  -17.2231 O   0  5  0  0  0  0  0  0  0  0  0  0
    7.0044  -33.2571  -12.9295 O   0  5  0  0  0  0  0  0  0  0  0  0
    4.4094  -36.1487  -16.8211 O   0  0  0  0  0  0  0  0  0  0  0  0
    6.8270  -30.7057  -12.3852 O   0  0  0  0  0  0  0  0  0  0  0  0
    2.7478  -34.4415  -14.3182 C   0  0  0  0  0  0  0  0  0  0  0  0
    7.2714  -31.4810  -15.4704 C   0  0  0  0  0  0  0  0  0  0  0  0
    3.9763  -34.4045  -15.0425 O   0  0  0  0  0  0  0  0  0  0  0  0
    6.1219  -31.6141  -14.6375 O   0  0  0  0  0  0  0  0  0  0  0  0
    2.8147  -33.4596  -13.1546 C   0  0  1  0  0  0  0  0  0  0  0  0
    7.1011  -32.3408  -16.7164 C   0  0  1  0  0  0  0  0  0  0  0  0
    1.8724  -33.8399  -12.1482 O   0  0  0  0  0  0  0  0  0  0  0  0
    8.3832  -32.6497  -17.2683 O   0  0  0  0  0  0  0  0  0  0  0  0
    4.1951  -33.4509  -12.5199 C   0  0  1  0  0  0  0  0  0  0  0  0
    6.4072  -33.6538  -16.3904 C   0  0  1  0  0  0  0  0  0  0  0  0
    4.7586  -32.1448  -12.5934 O   0  0  0  0  0  0  0  0  0  0  0  0
    5.2024  -33.7691  -17.1417 O   0  0  0  0  0  0  0  0  0  0  0  0
    4.0033  -33.8535  -11.0695 C   0  0  0  0  0  0  0  0  0  0  0  0
    7.3710  -34.7575  -16.7809 C   0  0  0  0  0  0  0  0  0  0  0  0
    2.5108  -34.0902  -10.8931 C   0  0  2  0  0  0  0  0  0  0  0  0
    8.6082  -34.0603  -17.3286 C   0  0  2  0  0  0  0  0  0  0  0  0
    4.6377  -38.5287   -9.0616 N   0  0  0  0  0  0  0  0  0  0  0  0
    5.2096  -37.3425   -9.3391 C   0  0  0  0  0  0  0  0  0  0  0  0
    4.5333  -36.2783   -9.8096 N   0  0  0  0  0  0  0  0  0  0  0  0
    3.1994  -36.3466  -10.0353 C   0  0  0  0  0  0  0  0  0  0  0  0
    2.5009  -37.6110   -9.7556 C   0  0  0  0  0  0  0  0  0  0  0  0
    3.3141  -38.7379   -9.2400 C   0  0  0  0  0  0  0  0  0  0  0  0
    2.7497  -39.9366   -8.9563 N   0  0  0  0  0  0  0  0  0  0  0  0
    1.2054  -37.4097  -10.0615 N   0  0  0  0  0  0  0  0  0  0  0  0
    1.0838  -36.1302  -10.4985 C   0  0  0  0  0  0  0  0  0  0  0  0
    2.2722  -35.4962  -10.4827 N   0  0  0  0  0  0  0  0  0  0  0  0
   11.9482  -32.5055  -13.5870 N   0  0  0  0  0  0  0  0  0  0  0  0
   10.9023  -31.8622  -14.1382 C   0  0  0  0  0  0  0  0  0  0  0  0
   10.1237  -32.3889  -15.1006 N   0  0  0  0  0  0  0  0  0  0  0  0
   10.3594  -33.6340  -15.5802 C   0  0  0  0  0  0  0  0  0  0  0  0
   11.4859  -34.4017  -15.0272 C   0  0  0  0  0  0  0  0  0  0  0  0
   12.2964  -33.7528  -13.9697 C   0  0  0  0  0  0  0  0  0  0  0  0
   13.3518  -34.3906  -13.4063 N   0  0  0  0  0  0  0  0  0  0  0  0
   11.4948  -35.5857  -15.6682 N   0  0  0  0  0  0  0  0  0  0  0  0
   10.4653  -35.5767  -16.5537 C   0  0  0  0  0  0  0  0  0  0  0  0
    9.7892  -34.4143  -16.5015 N   0  0  0  0  0  0  0  0  0  0  0  0
  1  3  1  6  0  0  0
  1  5  2  0  0  0  0
  1  9  1  0  0  0  0
  1 18  1  0  0  0  0
  2  4  1  1  0  0  0
  2  6  2  0  0  0  0
  2 10  1  0  0  0  0
  2 17  1  0  0  0  0
  7  9  1  0  0  0  0
  8 10  1  0  0  0  0
 11  7  1  6  0  0  0
 11 13  1  0  0  0  0
 11 15  1  0  0  0  0
 12  8  1  1  0  0  0
 12 14  1  0  0  0  0
 12 16  1  0  0  0  0
 13 21  1  0  0  0  0
 14 22  1  0  0  0  0
 15 17  1  1  0  0  0
 15 19  1  0  0  0  0
 16 18  1  6  0  0  0
 16 20  1  0  0  0  0
 19 21  1  0  0  0  0
 20 22  1  0  0  0  0
 21 32  1  6  0  0  0
 22 42  1  1  0  0  0
 23 24  2  0  0  0  0
 23 28  1  0  0  0  0
 24 25  1  0  0  0  0
 25 26  2  0  0  0  0
 26 27  1  0  0  0  0
 26 32  1  0  0  0  0
 27 28  2  0  0  0  0
 27 30  1  0  0  0  0
 28 29  1  0  0  0  0
 30 31  2  0  0  0  0
 31 32  1  0  0  0  0
 33 34  2  0  0  0  0
 33 38  1  0  0  0  0
 34 35  1  0  0  0  0
 35 36  2  0  0  0  0
 36 37  1  0  0  0  0
 36 42  1  0  0  0  0
 37 38  2  0  0  0  0
 37 40  1  0  0  0  0
 38 39  1  0  0  0  0
 40 41  2  0  0  0  0
 41 42  1  0  0  0  0
M  CHG  2   3  -1   4  -1
M  END
>  <CHROM.1>
132.75617916,15.62534741,6.02161049,-34.33262210,-13.69461434,2.46315722
0.05744112,2.05829134

>  <Name>
ligand

>  <RI>
0

>  <Rbt.Current_Directory>
/home/itssahil/PROJECTS/Mol_Feturizer/New_Systems/rnas/4QLN

>  <Rbt.Executable>
rbdock ($Id: //depot/dev/client3/rdock/2013.1/src/exe/rbdock.cxx#4 $)

>  <Rbt.Library>
libRbt.so (2013.1, Build901 2013/11/27)

>  <Rbt.Parameter_File>
/export/apps/rDock/src/rDock_2013.1_src/data/scripts/dock_solv.prm

>  <Rbt.Receptor>
prm/pocket_docking_7.prm

>  <SCORE>
-12.5779

>  <SCORE.INTER>
-14.2219

>  <SCORE.INTER.CONST>
1

>  <SCORE.INTER.POLAR>
0

>  <SCORE.INTER.ROT>
2

>  <SCORE.INTER.SOLV>
14.49

>  <SCORE.INTER.VDW>
-19.2446

>  <SCORE.INTER.norm>
-0.338617

>  <SCORE.INTRA>
1.64401

>  <SCORE.INTRA.DIHEDRAL>
-0.000561471

>  <SCORE.INTRA.DIHEDRAL.0>
2.39985

>  <SCORE.INTRA.POLAR>
0

>  <SCORE.INTRA.POLAR.0>
0

>  <SCORE.INTRA.REPUL>
0

>  <SCORE.INTRA.REPUL.0>
0

>  <SCORE.INTRA.SOLV>
-0.0118507

>  <SCORE.INTRA.SOLV.lig_0>
-110.958

>  <SCORE.INTRA.VDW>
1.65021

>  <SCORE.INTRA.VDW.0>
-2.34644

>  <SCORE.INTRA.norm>
0.039143

>  <SCORE.RESTR>
0

>  <SCORE.RESTR.CAVITY>
0

>  <SCORE.RESTR.norm>
0

>  <SCORE.SYSTEM>
0

>  <SCORE.SYSTEM.CONST>
0

>  <SCORE.SYSTEM.DIHEDRAL>
0

>  <SCORE.SYSTEM.SOLV>
0

>  <SCORE.SYSTEM.norm>
0

>  <SCORE.heavy>
42

>  <SCORE.norm>
-0.299474

>  <RMSD>
6.704

$$$$
ligand
 OpenBabel11021811513D
libRbt.so/2013.1/901 2013/11/27
 42 48  0  0  0  0  0  0  0  0999 V2000
    9.0363  -32.4859  -14.1663 P   0  0  2  0  0  0  0  0  0  0  0  0
    6.8823  -36.1749  -16.8618 P   0  0  1  0  0  0  0  0  0  0  0  0
   10.3452  -31.9040  -14.6471 O   0  5  0  0  0  0  0  0  0  0  0  0
    6.1072  -36.2560  -15.5683 O   0  5  0  0  0  0  0  0  0  0  0  0
    8.5690  -32.2232  -12.7547 O   0  0  0  0  0  0  0  0  0  0  0  0
    6.3925  -36.9168  -18.0821 O   0  0  0  0  0  0  0  0  0  0  0  0
   10.3070  -34.7948  -14.2734 C   0  0  0  0  0  0  0  0  0  0  0  0
    5.9081  -33.8011  -17.4699 C   0  0  0  0  0  0  0  0  0  0  0  0
    9.0792  -34.0786  -14.3950 O   0  0  0  0  0  0  0  0  0  0  0  0
    7.0532  -34.6217  -17.2506 O   0  0  0  0  0  0  0  0  0  0  0  0
   10.2842  -36.0028  -15.2022 C   0  0  1  0  0  0  0  0  0  0  0  0
    6.0390  -32.5159  -16.6624 C   0  0  1  0  0  0  0  0  0  0  0  0
   11.2124  -36.9863  -14.7368 O   0  0  0  0  0  0  0  0  0  0  0  0
    4.7437  -31.9562  -16.4331 O   0  0  0  0  0  0  0  0  0  0  0  0
    8.9070  -36.6435  -15.2390 C   0  0  1  0  0  0  0  0  0  0  0  0
    6.6783  -32.7777  -15.3080 C   0  0  1  0  0  0  0  0  0  0  0  0
    8.3984  -36.6329  -16.5694 O   0  0  0  0  0  0  0  0  0  0  0  0
    7.8753  -32.0166  -15.1776 O   0  0  0  0  0  0  0  0  0  0  0  0
    9.0856  -38.0729  -14.7619 C   0  0  0  0  0  0  0  0  0  0  0  0
    5.6682  -32.3411  -14.2646 C   0  0  0  0  0  0  0  0  0  0  0  0
   10.5674  -38.2313  -14.4554 C   0  0  2  0  0  0  0  0  0  0  0  0
    4.4598  -31.8318  -15.0373 C   0  0  2  0  0  0  0  0  0  0  0  0
    9.4295  -36.9801   -9.4837 N   0  0  0  0  0  0  0  0  0  0  0  0
    9.0574  -36.3891  -10.6341 C   0  0  0  0  0  0  0  0  0  0  0  0
    9.4293  -36.8239  -11.8522 N   0  0  0  0  0  0  0  0  0  0  0  0
   10.2219  -37.9137  -11.9894 C   0  0  0  0  0  0  0  0  0  0  0  0
   10.6709  -38.6159  -10.7769 C   0  0  0  0  0  0  0  0  0  0  0  0
   10.2202  -38.0765   -9.4719 C   0  0  0  0  0  0  0  0  0  0  0  0
   10.5874  -38.6630   -8.3071 N   0  0  0  0  0  0  0  0  0  0  0  0
   11.4334  -39.6457  -11.1898 N   0  0  0  0  0  0  0  0  0  0  0  0
   11.4703  -39.6073  -12.5463 C   0  0  0  0  0  0  0  0  0  0  0  0
   10.7481  -38.5752  -13.0231 N   0  0  0  0  0  0  0  0  0  0  0  0
    0.7207  -35.0653  -16.8081 N   0  0  0  0  0  0  0  0  0  0  0  0
    1.7296  -34.4634  -17.4649 C   0  0  0  0  0  0  0  0  0  0  0  0
    2.6247  -33.6499  -16.8762 N   0  0  0  0  0  0  0  0  0  0  0  0
    2.5551  -33.3860  -15.5490 C   0  0  0  0  0  0  0  0  0  0  0  0
    1.4792  -34.0074  -14.7614 C   0  0  0  0  0  0  0  0  0  0  0  0
    0.5328  -34.8912  -15.4822 C   0  0  0  0  0  0  0  0  0  0  0  0
   -0.4869  -35.5037  -14.8317 N   0  0  0  0  0  0  0  0  0  0  0  0
    1.6394  -33.5856  -13.4928 N   0  0  0  0  0  0  0  0  0  0  0  0
    2.7220  -32.7662  -13.4703 C   0  0  0  0  0  0  0  0  0  0  0  0
    3.2673  -32.6470  -14.6948 N   0  0  0  0  0  0  0  0  0  0  0  0
  1  3  1  6  0  0  0
  1  5  2  0  0  0  0
  1  9  1  0  0  0  0
  1 18  1  0  0  0  0
  2  4  1  1  0  0  0
  2  6  2  0  0  0  0
  2 10  1  0  0  0  0
  2 17  1  0  0  0  0
  7  9  1  0  0  0  0
  8 10  1  0  0  0  0
 11  7  1  1  0  0  0
 11 13  1  0  0  0  0
 11 15  1  0  0  0  0
 12  8  1  1  0  0  0
 12 14  1  0  0  0  0
 12 16  1  0  0  0  0
 13 21  1  0  0  0  0
 14 22  1  0  0  0  0
 15 17  1  6  0  0  0
 15 19  1  0  0  0  0
 16 18  1  6  0  0  0
 16 20  1  0  0  0  0
 19 21  1  0  0  0  0
 20 22  1  0  0  0  0
 21 32  1  1  0  0  0
 22 42  1  1  0  0  0
 23 24  2  0  0  0  0
 23 28  1  0  0  0  0
 24 25  1  0  0  0  0
 25 26  2  0  0  0  0
 26 27  1  0  0  0  0
 26 32  1  0  0  0  0
 27 28  2  0  0  0  0
 27 30  1  0  0  0  0
 28 29  1  0  0  0  0
 30 31  2  0  0  0  0
 31 32  1  0  0  0  0
 33 34  2  0  0  0  0
 33 38  1  0  0  0  0
 34 35  1  0  0  0  0
 35 36  2  0  0  0  0
 36 37  1  0  0  0  0
 36 42  1  0  0  0  0
 37 38  2  0  0  0  0
 37 40  1  0  0  0  0
 38 39  1  0  0  0  0
 40 41  2  0  0  0  0
 41 42  1  0  0  0  0
M  CHG  2   3  -1   4  -1
M  END
>  <CHROM.1>
67.04756844,-0.18577982,7.09894768,-35.15194099,-14.46544461,-0.61093604
-0.07606923,-0.65785566

>  <Name>
ligand

>  <RI>
0

>  <Rbt.Current_Directory>
/home/itssahil/PROJECTS/Mol_Feturizer/New_Systems/rnas/4QLN

>  <Rbt.Executable>
rbdock ($Id: //depot/dev/client3/rdock/2013.1/src/exe/rbdock.cxx#4 $)

>  <Rbt.Library>
libRbt.so (2013.1, Build901 2013/11/27)

>  <Rbt.Parameter_File>
/export/apps/rDock/src/rDock_2013.1_src/data/scripts/dock_solv.prm

>  <Rbt.Receptor>
prm/pocket_docking_8.prm

>  <SCORE>
-13.2884

>  <SCORE.INTER>
-13.2874

>  <SCORE.INTER.CONST>
1

>  <SCORE.INTER.POLAR>
0

>  <SCORE.INTER.ROT>
2

>  <SCORE.INTER.SOLV>
16.216

>  <SCORE.INTER.VDW>
-19.1969

>  <SCORE.INTER.norm>
-0.316366

>  <SCORE.INTRA>
-0.00103134

>  <SCORE.INTRA.DIHEDRAL>
0.000251525

>  <SCORE.INTRA.DIHEDRAL.0>
2.39985

>  <SCORE.INTRA.POLAR>
0

>  <SCORE.INTRA.POLAR.0>
0

>  <SCORE.INTRA.REPUL>
0

>  <SCORE.INTRA.REPUL.0>
0

>  <SCORE.INTRA.SOLV>
-0.0189913

>  <SCORE.INTRA.SOLV.lig_0>
-110.958

>  <SCORE.INTRA.VDW>
0.00833855

>  <SCORE.INTRA.VDW.0>
-2.34644

>  <SCORE.INTRA.norm>
-2.45557e-05

>  <SCORE.RESTR>
0

>  <SCORE.RESTR.CAVITY>
0

>  <SCORE.RESTR.norm>
0

>  <SCORE.SYSTEM>
0

>  <SCORE.SYSTEM.CONST>
0

>  <SCORE.SYSTEM.DIHEDRAL>
0

>  <SCORE.SYSTEM.SOLV>
0

>  <SCORE.SYSTEM.norm>
0

>  <SCORE.heavy>
42

>  <SCORE.norm>
-0.316391

>  <RMSD>
6.706

$$$$
ligand
 OpenBabel11021811513D
libRbt.so/2013.1/901 2013/11/27
 42 48  0  0  0  0  0  0  0  0999 V2000
    7.0285  -31.7694  -12.5581 P   0  0  2  0  0  0  0  0  0  0  0  0
    8.5296  -35.1199  -16.0272 P   0  0  1  0  0  0  0  0  0  0  0  0
    8.0077  -30.7169  -12.0931 O   0  5  0  0  0  0  0  0  0  0  0  0
    7.2576  -35.7589  -15.5231 O   0  5  0  0  0  0  0  0  0  0  0  0
    5.7702  -32.0299  -11.7652 O   0  0  0  0  0  0  0  0  0  0  0  0
    9.1866  -35.6377  -17.2841 O   0  0  0  0  0  0  0  0  0  0  0  0
    8.9061  -33.4789  -11.8442 C   0  0  0  0  0  0  0  0  0  0  0  0
    7.2536  -33.0788  -17.1039 C   0  0  0  0  0  0  0  0  0  0  0  0
    7.8222  -33.1609  -12.7155 O   0  0  0  0  0  0  0  0  0  0  0  0
    8.2632  -33.5426  -16.2104 O   0  0  0  0  0  0  0  0  0  0  0  0
    9.9091  -34.3581  -12.5815 C   0  0  1  0  0  0  0  0  0  0  0  0
    6.3676  -32.0651  -16.3909 C   0  0  1  0  0  0  0  0  0  0  0  0
   10.6857  -35.0998  -11.6369 O   0  0  0  0  0  0  0  0  0  0  0  0
    5.0931  -32.0008  -17.0354 O   0  0  0  0  0  0  0  0  0  0  0  0
    9.2063  -35.3531  -13.4895 C   0  0  1  0  0  0  0  0  0  0  0  0
    6.1356  -32.4583  -14.9407 C   0  0  1  0  0  0  0  0  0  0  0  0
    9.6165  -35.1573  -14.8394 O   0  0  0  0  0  0  0  0  0  0  0  0
    6.6082  -31.4309  -14.0745 O   0  0  0  0  0  0  0  0  0  0  0  0
    9.6203  -36.7338  -13.0153 C   0  0  0  0  0  0  0  0  0  0  0  0
    4.6377  -32.6288  -14.7763 C   0  0  0  0  0  0  0  0  0  0  0  0
   10.5562  -36.5100  -11.8368 C   0  0  2  0  0  0  0  0  0  0  0  0
    4.0289  -32.3287  -16.1387 C   0  0  2  0  0  0  0  0  0  0  0  0
    6.2415  -37.3379   -8.9598 N   0  0  0  0  0  0  0  0  0  0  0  0
    6.3994  -36.6606  -10.1120 C   0  0  0  0  0  0  0  0  0  0  0  0
    7.5793  -36.5282  -10.7457 N   0  0  0  0  0  0  0  0  0  0  0  0
    8.7055  -37.0878  -10.2422 C   0  0  0  0  0  0  0  0  0  0  0  0
    8.6145  -37.8456   -8.9843 C   0  0  0  0  0  0  0  0  0  0  0  0
    7.2808  -37.9464   -8.3456 C   0  0  0  0  0  0  0  0  0  0  0  0
    7.1090  -38.6261   -7.1863 N   0  0  0  0  0  0  0  0  0  0  0  0
    9.8565  -38.2877   -8.7118 N   0  0  0  0  0  0  0  0  0  0  0  0
   10.6716  -37.8521   -9.7063 C   0  0  0  0  0  0  0  0  0  0  0  0
    9.9857  -37.1370  -10.6187 N   0  0  0  0  0  0  0  0  0  0  0  0
    4.4004  -36.9444  -18.6147 N   0  0  0  0  0  0  0  0  0  0  0  0
    5.3534  -36.0441  -18.3101 C   0  0  0  0  0  0  0  0  0  0  0  0
    5.1114  -34.8889  -17.6646 N   0  0  0  0  0  0  0  0  0  0  0  0
    3.8557  -34.5613  -17.2748 C   0  0  0  0  0  0  0  0  0  0  0  0
    2.7586  -35.4953  -17.5715 C   0  0  0  0  0  0  0  0  0  0  0  0
    3.1057  -36.7467  -18.2854 C   0  0  0  0  0  0  0  0  0  0  0  0
    2.1550  -37.6617  -18.5971 N   0  0  0  0  0  0  0  0  0  0  0  0
    1.6356  -34.9358  -17.0828 N   0  0  0  0  0  0  0  0  0  0  0  0
    1.9831  -33.7484  -16.5231 C   0  0  0  0  0  0  0  0  0  0  0  0
    3.3052  -33.5252  -16.6375 N   0  0  0  0  0  0  0  0  0  0  0  0
  1  3  1  1  0  0  0
  1  5  2  0  0  0  0
  1  9  1  0  0  0  0
  1 18  1  0  0  0  0
  2  4  1  1  0  0  0
  2  6  2  0  0  0  0
  2 10  1  0  0  0  0
  2 17  1  0  0  0  0
  7  9  1  0  0  0  0
  8 10  1  0  0  0  0
 11  7  1  1  0  0  0
 11 13  1  0  0  0  0
 11 15  1  0  0  0  0
 12  8  1  6  0  0  0
 12 14  1  0  0  0  0
 12 16  1  0  0  0  0
 13 21  1  0  0  0  0
 14 22  1  0  0  0  0
 15 17  1  6  0  0  0
 15 19  1  0  0  0  0
 16 18  1  1  0  0  0
 16 20  1  0  0  0  0
 19 21  1  0  0  0  0
 20 22  1  0  0  0  0
 21 32  1  1  0  0  0
 22 42  1  6  0  0  0
 23 24  2  0  0  0  0
 23 28  1  0  0  0  0
 24 25  1  0  0  0  0
 25 26  2  0  0  0  0
 26 27  1  0  0  0  0
 26 32  1  0  0  0  0
 27 28  2  0  0  0  0
 27 30  1  0  0  0  0
 28 29  1  0  0  0  0
 30 31  2  0  0  0  0
 31 32  1  0  0  0  0
 33 34  2  0  0  0  0
 33 38  1  0  0  0  0
 34 35  1  0  0  0  0
 35 36  2  0  0  0  0
 36 37  1  0  0  0  0
 36 42  1  0  0  0  0
 37 38  2  0  0  0  0
 37 40  1  0  0  0  0
 38 39  1  0  0  0  0
 40 41  2  0  0  0  0
 41 42  1  0  0  0  0
M  CHG  2   3  -1   4  -1
M  END
>  <CHROM.1>
75.92956634,35.04550235,6.93139473,-34.83639681,-13.94959662,-0.64228154
-0.86538425,-0.46903890

>  <Name>
ligand

>  <RI>
0

>  <Rbt.Current_Directory>
/home/itssahil/PROJECTS/Mol_Feturizer/New_Systems/rnas/4QLN

>  <Rbt.Executable>
rbdock ($Id: //depot/dev/client3/rdock/2013.1/src/exe/rbdock.cxx#4 $)

>  <Rbt.Library>
libRbt.so (2013.1, Build901 2013/11/27)

>  <Rbt.Parameter_File>
/export/apps/rDock/src/rDock_2013.1_src/data/scripts/dock_solv.prm

>  <Rbt.Receptor>
prm/pocket_docking_8.prm

>  <SCORE>
-17.0758

>  <SCORE.INTER>
-16.8612

>  <SCORE.INTER.CONST>
1

>  <SCORE.INTER.POLAR>
0

>  <SCORE.INTER.ROT>
2

>  <SCORE.INTER.SOLV>
26.3282

>  <SCORE.INTER.VDW>
-24.9502

>  <SCORE.INTER.norm>
-0.401458

>  <SCORE.INTRA>
-0.214531

>  <SCORE.INTRA.DIHEDRAL>
-0.000383352

>  <SCORE.INTRA.DIHEDRAL.0>
2.39985

>  <SCORE.INTRA.POLAR>
0

>  <SCORE.INTRA.POLAR.0>
0

>  <SCORE.INTRA.REPUL>
0

>  <SCORE.INTRA.REPUL.0>
0

>  <SCORE.INTRA.SOLV>
0.656756

>  <SCORE.INTRA.SOLV.lig_0>
-110.958

>  <SCORE.INTRA.VDW>
-0.542717

>  <SCORE.INTRA.VDW.0>
-2.34644

>  <SCORE.INTRA.norm>
-0.00510787

>  <SCORE.RESTR>
0

>  <SCORE.RESTR.CAVITY>
0

>  <SCORE.RESTR.norm>
0

>  <SCORE.SYSTEM>
0

>  <SCORE.SYSTEM.CONST>
0

>  <SCORE.SYSTEM.DIHEDRAL>
0

>  <SCORE.SYSTEM.SOLV>
0

>  <SCORE.SYSTEM.norm>
0

>  <SCORE.heavy>
42

>  <SCORE.norm>
-0.406566

>  <RMSD>
6.717

$$$$
ligand
 OpenBabel11021811513D
libRbt.so/2013.1/901 2013/11/27
 42 48  0  0  0  0  0  0  0  0999 V2000
    3.8099  -33.9770  -16.4870 P   0  0  2  0  0  0  0  0  0  0  0  0
    6.6220  -32.3055  -12.6383 P   0  0  1  0  0  0  0  0  0  0  0  0
    2.5272  -33.2505  -16.8188 O   0  5  0  0  0  0  0  0  0  0  0  0
    7.2265  -33.6676  -12.8828 O   0  5  0  0  0  0  0  0  0  0  0  0
    4.0639  -35.3533  -17.0537 O   0  0  0  0  0  0  0  0  0  0  0  0
    7.3317  -31.3146  -11.7473 O   0  0  0  0  0  0  0  0  0  0  0  0
    2.7789  -34.1815  -14.0678 C   0  0  0  0  0  0  0  0  0  0  0  0
    7.4474  -31.3586  -14.9568 C   0  0  0  0  0  0  0  0  0  0  0  0
    3.9419  -34.0592  -14.8849 O   0  0  0  0  0  0  0  0  0  0  0  0
    6.3629  -31.6055  -14.0650 O   0  0  0  0  0  0  0  0  0  0  0  0
    3.0318  -33.5138  -12.7214 C   0  0  1  0  0  0  0  0  0  0  0  0
    7.0965  -31.8811  -16.3442 C   0  0  1  0  0  0  0  0  0  0  0  0
    2.1441  -34.0562  -11.7400 O   0  0  0  0  0  0  0  0  0  0  0  0
    8.2948  -32.1388  -17.0801 O   0  0  0  0  0  0  0  0  0  0  0  0
    4.4545  -33.7547  -12.2457 C   0  0  1  0  0  0  0  0  0  0  0  0
    6.3130  -33.1815  -16.2624 C   0  0  1  0  0  0  0  0  0  0  0  0
    5.1287  -32.5121  -12.0717 O   0  0  0  0  0  0  0  0  0  0  0  0
    5.0451  -33.0283  -16.8933 O   0  0  0  0  0  0  0  0  0  0  0  0
    4.3460  -34.4781  -10.9162 C   0  0  0  0  0  0  0  0  0  0  0  0
    7.1350  -34.2250  -16.9938 C   0  0  0  0  0  0  0  0  0  0  0  0
    2.8574  -34.6440  -10.6487 C   0  0  2  0  0  0  0  0  0  0  0  0
    8.3824  -33.5062  -17.4880 C   0  0  2  0  0  0  0  0  0  0  0  0
    1.8534  -39.0803  -13.2734 N   0  0  0  0  0  0  0  0  0  0  0  0
    2.1408  -37.8476  -13.7307 C   0  0  0  0  0  0  0  0  0  0  0  0
    2.3783  -36.7906  -12.9323 N   0  0  0  0  0  0  0  0  0  0  0  0
    2.3403  -36.9154  -11.5840 C   0  0  0  0  0  0  0  0  0  0  0  0
    2.0329  -38.2332  -11.0063 C   0  0  0  0  0  0  0  0  0  0  0  0
    1.7823  -39.3482  -11.9503 C   0  0  0  0  0  0  0  0  0  0  0  0
    1.4929  -40.5936  -11.5021 N   0  0  0  0  0  0  0  0  0  0  0  0
    2.0585  -38.0815   -9.6689 N   0  0  0  0  0  0  0  0  0  0  0  0
    2.3558  -36.7821   -9.4117 C   0  0  0  0  0  0  0  0  0  0  0  0
    2.5240  -36.0869  -10.5530 N   0  0  0  0  0  0  0  0  0  0  0  0
   12.9116  -36.0060  -18.3876 N   0  0  0  0  0  0  0  0  0  0  0  0
   11.9871  -35.5478  -19.2517 C   0  0  0  0  0  0  0  0  0  0  0  0
   10.8595  -34.9180  -18.8755 N   0  0  0  0  0  0  0  0  0  0  0  0
   10.5873  -34.7051  -17.5653 C   0  0  0  0  0  0  0  0  0  0  0  0
   11.5507  -35.1770  -16.5588 C   0  0  0  0  0  0  0  0  0  0  0  0
   12.7689  -35.8615  -17.0525 C   0  0  0  0  0  0  0  0  0  0  0  0
   13.7078  -36.3268  -16.1922 N   0  0  0  0  0  0  0  0  0  0  0  0
   11.0450  -34.8420  -15.3568 N   0  0  0  0  0  0  0  0  0  0  0  0
    9.8620  -34.2118  -15.5745 C   0  0  0  0  0  0  0  0  0  0  0  0
    9.5893  -34.1304  -16.8898 N   0  0  0  0  0  0  0  0  0  0  0  0
  1  3  1  6  0  0  0
  1  5  2  0  0  0  0
  1  9  1  0  0  0  0
  1 18  1  0  0  0  0
  2  4  1  6  0  0  0
  2  6  2  0  0  0  0
  2 10  1  0  0  0  0
  2 17  1  0  0  0  0
  7  9  1  0  0  0  0
  8 10  1  0  0  0  0
 11  7  1  6  0  0  0
 11 13  1  0  0  0  0
 11 15  1  0  0  0  0
 12  8  1  1  0  0  0
 12 14  1  0  0  0  0
 12 16  1  0  0  0  0
 13 21  1  0  0  0  0
 14 22  1  0  0  0  0
 15 17  1  1  0  0  0
 15 19  1  0  0  0  0
 16 18  1  6  0  0  0
 16 20  1  0  0  0  0
 19 21  1  0  0  0  0
 20 22  1  0  0  0  0
 21 32  1  6  0  0  0
 22 42  1  1  0  0  0
 23 24  2  0  0  0  0
 23 28  1  0  0  0  0
 24 25  1  0  0  0  0
 25 26  2  0  0  0  0
 26 27  1  0  0  0  0
 26 32  1  0  0  0  0
 27 28  2  0  0  0  0
 27 30  1  0  0  0  0
 28 29  1  0  0  0  0
 30 31  2  0  0  0  0
 31 32  1  0  0  0  0
 33 34  2  0  0  0  0
 33 38  1  0  0  0  0
 34 35  1  0  0  0  0
 35 36  2  0  0  0  0
 36 37  1  0  0  0  0
 36 42  1  0  0  0  0
 37 38  2  0  0  0  0
 37 40  1  0  0  0  0
 38 39  1  0  0  0  0
 40 41  2  0  0  0  0
 41 42  1  0  0  0  0
M  CHG  2   3  -1   4  -1
M  END
>  <CHROM.1>
38.30453652,-122.00686697,5.91716794,-34.65568003,-14.40427231,2.89784681
-0.56558602,3.08726811

>  <Name>
ligand

>  <RI>
0

>  <Rbt.Current_Directory>
/home/itssahil/PROJECTS/Mol_Feturizer/New_Systems/rnas/4QLN

>  <Rbt.Executable>
rbdock ($Id: //depot/dev/client3/rdock/2013.1/src/exe/rbdock.cxx#4 $)

>  <Rbt.Library>
libRbt.so (2013.1, Build901 2013/11/27)

>  <Rbt.Parameter_File>
/export/apps/rDock/src/rDock_2013.1_src/data/scripts/dock_solv.prm

>  <Rbt.Receptor>
prm/pocket_docking_6.prm

>  <SCORE>
-13.3847

>  <SCORE.INTER>
-13.511

>  <SCORE.INTER.CONST>
1

>  <SCORE.INTER.POLAR>
0

>  <SCORE.INTER.ROT>
2

>  <SCORE.INTER.SOLV>
17.9063

>  <SCORE.INTER.VDW>
-19.9094

>  <SCORE.INTER.norm>
-0.321689

>  <SCORE.INTRA>
0.126233

>  <SCORE.INTRA.DIHEDRAL>
-8.48087e-06

>  <SCORE.INTRA.DIHEDRAL.0>
2.39985

>  <SCORE.INTRA.POLAR>
0

>  <SCORE.INTRA.POLAR.0>
0

>  <SCORE.INTRA.REPUL>
0

>  <SCORE.INTRA.REPUL.0>
0

>  <SCORE.INTRA.SOLV>
0.0155104

>  <SCORE.INTRA.SOLV.lig_0>
-110.958

>  <SCORE.INTRA.VDW>
0.118482

>  <SCORE.INTRA.VDW.0>
-2.34644

>  <SCORE.INTRA.norm>
0.00300554

>  <SCORE.RESTR>
0

>  <SCORE.RESTR.CAVITY>
0

>  <SCORE.RESTR.norm>
0

>  <SCORE.SYSTEM>
0

>  <SCORE.SYSTEM.CONST>
0

>  <SCORE.SYSTEM.DIHEDRAL>
0

>  <SCORE.SYSTEM.SOLV>
0

>  <SCORE.SYSTEM.norm>
0

>  <SCORE.heavy>
42

>  <SCORE.norm>
-0.318684

>  <RMSD>
6.722

$$$$
ligand
 OpenBabel11021811513D
libRbt.so/2013.1/901 2013/11/27
 42 48  0  0  0  0  0  0  0  0999 V2000
    4.0059  -34.7044  -16.6173 P   0  0  2  0  0  0  0  0  0  0  0  0
    6.2458  -31.9587  -13.0176 P   0  0  1  0  0  0  0  0  0  0  0  0
    2.7248  -34.1903  -17.2317 O   0  5  0  0  0  0  0  0  0  0  0  0
    6.9618  -33.2808  -12.8763 O   0  5  0  0  0  0  0  0  0  0  0  0
    4.4121  -36.1448  -16.8179 O   0  0  0  0  0  0  0  0  0  0  0  0
    6.7831  -30.7320  -12.3204 O   0  0  0  0  0  0  0  0  0  0  0  0
    2.7213  -34.4474  -14.3280 C   0  0  0  0  0  0  0  0  0  0  0  0
    7.2667  -31.4914  -15.4035 C   0  0  0  0  0  0  0  0  0  0  0  0
    3.9594  -34.4093  -15.0356 O   0  0  0  0  0  0  0  0  0  0  0  0
    6.1059  -31.6263  -14.5868 O   0  0  0  0  0  0  0  0  0  0  0  0
    2.7750  -33.4720  -13.1582 C   0  0  1  0  0  0  0  0  0  0  0  0
    7.1111  -32.3440  -16.6565 C   0  0  1  0  0  0  0  0  0  0  0  0
    1.8185  -33.8556  -12.1665 O   0  0  0  0  0  0  0  0  0  0  0  0
    8.3997  -32.6529  -17.1929 O   0  0  0  0  0  0  0  0  0  0  0  0
    4.1468  -33.4701  -12.5051 C   0  0  1  0  0  0  0  0  0  0  0  0
    6.4098  -33.6571  -16.3470 C   0  0  1  0  0  0  0  0  0  0  0  0
    4.7143  -32.1650  -12.5640 O   0  0  0  0  0  0  0  0  0  0  0  0
    5.2149  -33.7654  -17.1148 O   0  0  0  0  0  0  0  0  0  0  0  0
    3.9348  -33.8802  -11.0597 C   0  0  0  0  0  0  0  0  0  0  0  0
    7.3762  -34.7610  -16.7307 C   0  0  0  0  0  0  0  0  0  0  0  0
    2.4395  -34.1143  -10.9045 C   0  0  2  0  0  0  0  0  0  0  0  0
    8.6222  -34.0637  -17.2580 C   0  0  2  0  0  0  0  0  0  0  0  0
    4.4952  -38.5168   -8.9120 N   0  0  0  0  0  0  0  0  0  0  0  0
    5.0689  -37.3239   -9.1551 C   0  0  0  0  0  0  0  0  0  0  0  0
    4.4123  -36.2708   -9.6755 N   0  0  0  0  0  0  0  0  0  0  0  0
    3.0979  -36.3580   -9.9915 C   0  0  0  0  0  0  0  0  0  0  0  0
    2.3989  -37.6308   -9.7546 C   0  0  0  0  0  0  0  0  0  0  0  0
    3.1899  -38.7447   -9.1795 C   0  0  0  0  0  0  0  0  0  0  0  0
    2.6235  -39.9499   -8.9297 N   0  0  0  0  0  0  0  0  0  0  0  0
    1.1248  -37.4483  -10.1491 N   0  0  0  0  0  0  0  0  0  0  0  0
    1.0163  -36.1721  -10.5992 C   0  0  0  0  0  0  0  0  0  0  0  0
    2.1922  -35.5220  -10.5051 N   0  0  0  0  0  0  0  0  0  0  0  0
   11.5329  -32.8410  -13.0622 N   0  0  0  0  0  0  0  0  0  0  0  0
   10.4466  -32.2315  -13.5719 C   0  0  0  0  0  0  0  0  0  0  0  0
    9.7935  -32.6607  -14.6668 N   0  0  0  0  0  0  0  0  0  0  0  0
   10.2085  -33.7642  -15.3347 C   0  0  0  0  0  0  0  0  0  0  0  0
   11.3901  -34.4865  -14.8386 C   0  0  0  0  0  0  0  0  0  0  0  0
   12.0545  -33.9514  -13.6267 C   0  0  0  0  0  0  0  0  0  0  0  0
   13.1488  -34.5567  -13.1033 N   0  0  0  0  0  0  0  0  0  0  0  0
   11.5817  -35.5268  -15.6715 N   0  0  0  0  0  0  0  0  0  0  0  0
   10.6089  -35.4749  -16.6176 C   0  0  0  0  0  0  0  0  0  0  0  0
    9.7912  -34.4251  -16.4172 N   0  0  0  0  0  0  0  0  0  0  0  0
  1  3  1  6  0  0  0
  1  5  2  0  0  0  0
  1  9  1  0  0  0  0
  1 18  1  0  0  0  0
  2  4  1  1  0  0  0
  2  6  2  0  0  0  0
  2 10  1  0  0  0  0
  2 17  1  0  0  0  0
  7  9  1  0  0  0  0
  8 10  1  0  0  0  0
 11  7  1  6  0  0  0
 11 13  1  0  0  0  0
 11 15  1  0  0  0  0
 12  8  1  1  0  0  0
 12 14  1  0  0  0  0
 12 16  1  0  0  0  0
 13 21  1  0  0  0  0
 14 22  1  0  0  0  0
 15 17  1  1  0  0  0
 15 19  1  0  0  0  0
 16 18  1  6  0  0  0
 16 20  1  0  0  0  0
 19 21  1  0  0  0  0
 20 22  1  0  0  0  0
 21 32  1  6  0  0  0
 22 42  1  1  0  0  0
 23 24  2  0  0  0  0
 23 28  1  0  0  0  0
 24 25  1  0  0  0  0
 25 26  2  0  0  0  0
 26 27  1  0  0  0  0
 26 32  1  0  0  0  0
 27 28  2  0  0  0  0
 27 30  1  0  0  0  0
 28 29  1  0  0  0  0
 30 31  2  0  0  0  0
 31 32  1  0  0  0  0
 33 34  2  0  0  0  0
 33 38  1  0  0  0  0
 34 35  1  0  0  0  0
 35 36  2  0  0  0  0
 36 37  1  0  0  0  0
 36 42  1  0  0  0  0
 37 38  2  0  0  0  0
 37 40  1  0  0  0  0
 38 39  1  0  0  0  0
 40 41  2  0  0  0  0
 41 42  1  0  0  0  0
M  CHG  2   3  -1   4  -1
M  END
>  <CHROM.1>
136.08723866,28.09904094,5.95236376,-34.37051644,-13.61439409,2.46257547
0.06123116,2.04631903

>  <Name>
ligand

>  <RI>
0

>  <Rbt.Current_Directory>
/home/itssahil/PROJECTS/Mol_Feturizer/New_Systems/rnas/4QLN

>  <Rbt.Executable>
rbdock ($Id: //depot/dev/client3/rdock/2013.1/src/exe/rbdock.cxx#4 $)

>  <Rbt.Library>
libRbt.so (2013.1, Build901 2013/11/27)

>  <Rbt.Parameter_File>
/export/apps/rDock/src/rDock_2013.1_src/data/scripts/dock_solv.prm

>  <Rbt.Receptor>
prm/pocket_docking_6.prm

>  <SCORE>
-12.9012

>  <SCORE.INTER>
-14.3622

>  <SCORE.INTER.CONST>
1

>  <SCORE.INTER.POLAR>
0

>  <SCORE.INTER.ROT>
2

>  <SCORE.INTER.SOLV>
14.5498

>  <SCORE.INTER.VDW>
-19.3581

>  <SCORE.INTER.norm>
-0.341957

>  <SCORE.INTRA>
1.46099

>  <SCORE.INTRA.DIHEDRAL>
-0.00079448

>  <SCORE.INTRA.DIHEDRAL.0>
2.39985

>  <SCORE.INTRA.POLAR>
0

>  <SCORE.INTRA.POLAR.0>
0

>  <SCORE.INTRA.REPUL>
0

>  <SCORE.INTRA.REPUL.0>
0

>  <SCORE.INTRA.SOLV>
0.295803

>  <SCORE.INTRA.SOLV.lig_0>
-110.958

>  <SCORE.INTRA.VDW>
1.31349

>  <SCORE.INTRA.VDW.0>
-2.34644

>  <SCORE.INTRA.norm>
0.0347856

>  <SCORE.RESTR>
0

>  <SCORE.RESTR.CAVITY>
0

>  <SCORE.RESTR.norm>
0

>  <SCORE.SYSTEM>
0

>  <SCORE.SYSTEM.CONST>
0

>  <SCORE.SYSTEM.DIHEDRAL>
0

>  <SCORE.SYSTEM.SOLV>
0

>  <SCORE.SYSTEM.norm>
0

>  <SCORE.heavy>
42

>  <SCORE.norm>
-0.307172

>  <RMSD>
6.723

$$$$
ligand
 OpenBabel11021811513D
libRbt.so/2013.1/901 2013/11/27
 42 48  0  0  0  0  0  0  0  0999 V2000
    2.8666  -35.0490  -16.7823 P   0  0  2  0  0  0  0  0  0  0  0  0
    5.4181  -32.4267  -13.2999 P   0  0  1  0  0  0  0  0  0  0  0  0
    1.6574  -34.4139  -17.4285 O   0  5  0  0  0  0  0  0  0  0  0  0
    5.9692  -33.8173  -13.0924 O   0  5  0  0  0  0  0  0  0  0  0  0
    3.0963  -36.5357  -16.9129 O   0  0  0  0  0  0  0  0  0  0  0  0
    6.0987  -31.2422  -12.6571 O   0  0  0  0  0  0  0  0  0  0  0  0
    1.6203  -34.5317  -14.5160 C   0  0  0  0  0  0  0  0  0  0  0  0
    6.4900  -32.1986  -15.6983 C   0  0  0  0  0  0  0  0  0  0  0  0
    2.8546  -34.6764  -15.2165 O   0  0  0  0  0  0  0  0  0  0  0  0
    5.3207  -32.1541  -14.8838 O   0  0  0  0  0  0  0  0  0  0  0  0
    1.7902  -33.5160  -13.3926 C   0  0  1  0  0  0  0  0  0  0  0  0
    6.2338  -33.0843  -16.9111 C   0  0  1  0  0  0  0  0  0  0  0  0
    0.7935  -33.7344  -12.3904 O   0  0  0  0  0  0  0  0  0  0  0  0
    7.4762  -33.5710  -17.4241 O   0  0  0  0  0  0  0  0  0  0  0  0
    3.1516  -33.6485  -12.7313 C   0  0  1  0  0  0  0  0  0  0  0  0
    5.3790  -34.2873  -16.5454 C   0  0  1  0  0  0  0  0  0  0  0  0
    3.8724  -32.4255  -12.8472 O   0  0  0  0  0  0  0  0  0  0  0  0
    4.1804  -34.2869  -17.3151 O   0  0  0  0  0  0  0  0  0  0  0  0
    2.8904  -33.9616  -11.2697 C   0  0  0  0  0  0  0  0  0  0  0  0
    6.2056  -35.5163  -16.8708 C   0  0  0  0  0  0  0  0  0  0  0  0
    1.3777  -34.0063  -11.1137 C   0  0  2  0  0  0  0  0  0  0  0  0
    7.5270  -34.9998  -17.4219 C   0  0  2  0  0  0  0  0  0  0  0  0
    1.8502  -39.1941  -11.7791 N   0  0  0  0  0  0  0  0  0  0  0  0
    2.4304  -38.1776  -12.4435 C   0  0  0  0  0  0  0  0  0  0  0  0
    2.2136  -36.8797  -12.1614 N   0  0  0  0  0  0  0  0  0  0  0  0
    1.3745  -36.5162  -11.1621 C   0  0  0  0  0  0  0  0  0  0  0  0
    0.7013  -37.5709  -10.3880 C   0  0  0  0  0  0  0  0  0  0  0  0
    0.9904  -38.9766  -10.7588 C   0  0  0  0  0  0  0  0  0  0  0  0
    0.4132  -40.0084  -10.0970 N   0  0  0  0  0  0  0  0  0  0  0  0
   -0.0628  -36.9467   -9.4722 N   0  0  0  0  0  0  0  0  0  0  0  0
    0.1052  -35.6104   -9.6436 C   0  0  0  0  0  0  0  0  0  0  0  0
    0.9620  -35.3536  -10.6507 N   0  0  0  0  0  0  0  0  0  0  0  0
   10.0967  -34.3517  -12.8888 N   0  0  0  0  0  0  0  0  0  0  0  0
    9.0324  -33.6936  -13.3845 C   0  0  0  0  0  0  0  0  0  0  0  0
    8.4712  -33.9698  -14.5754 N   0  0  0  0  0  0  0  0  0  0  0  0
    8.9636  -34.9564  -15.3629 C   0  0  0  0  0  0  0  0  0  0  0  0
   10.1270  -35.7223  -14.8898 C   0  0  0  0  0  0  0  0  0  0  0  0
   10.6882  -35.3583  -13.5673 C   0  0  0  0  0  0  0  0  0  0  0  0
   11.7594  -36.0141  -13.0569 N   0  0  0  0  0  0  0  0  0  0  0  0
   10.4067  -36.6263  -15.8476 N   0  0  0  0  0  0  0  0  0  0  0  0
    9.5025  -36.4540  -16.8460 C   0  0  0  0  0  0  0  0  0  0  0  0
    8.6431  -35.4594  -16.5575 N   0  0  0  0  0  0  0  0  0  0  0  0
  1  3  1  6  0  0  0
  1  5  2  0  0  0  0
  1  9  1  0  0  0  0
  1 18  1  0  0  0  0
  2  4  1  1  0  0  0
  2  6  2  0  0  0  0
  2 10  1  0  0  0  0
  2 17  1  0  0  0  0
  7  9  1  0  0  0  0
  8 10  1  0  0  0  0
 11  7  1  6  0  0  0
 11 13  1  0  0  0  0
 11 15  1  0  0  0  0
 12  8  1  1  0  0  0
 12 14  1  0  0  0  0
 12 16  1  0  0  0  0
 13 21  1  0  0  0  0
 14 22  1  0  0  0  0
 15 17  1  1  0  0  0
 15 19  1  0  0  0  0
 16 18  1  6  0  0  0
 16 20  1  0  0  0  0
 19 21  1  0  0  0  0
 20 22  1  0  0  0  0
 21 32  1  6  0  0  0
 22 42  1  1  0  0  0
 23 24  2  0  0  0  0
 23 28  1  0  0  0  0
 24 25  1  0  0  0  0
 25 26  2  0  0  0  0
 26 27  1  0  0  0  0
 26 32  1  0  0  0  0
 27 28  2  0  0  0  0
 27 30  1  0  0  0  0
 28 29  1  0  0  0  0
 30 31  2  0  0  0  0
 31 32  1  0  0  0  0
 33 34  2  0  0  0  0
 33 38  1  0  0  0  0
 34 35  1  0  0  0  0
 35 36  2  0  0  0  0
 36 37  1  0  0  0  0
 36 42  1  0  0  0  0
 37 38  2  0  0  0  0
 37 40  1  0  0  0  0
 38 39  1  0  0  0  0
 40 41  2  0  0  0  0
 41 42  1  0  0  0  0
M  CHG  2   3  -1   4  -1
M  END
>  <CHROM.1>
71.14346574,42.44516228,4.71328686,-34.89975115,-13.99050589,2.61871324,-0.04566584
2.08231553

>  <Name>
ligand

>  <RI>
0

>  <Rbt.Current_Directory>
/home/itssahil/PROJECTS/Mol_Feturizer/New_Systems/rnas/4QLN

>  <Rbt.Executable>
rbdock ($Id: //depot/dev/client3/rdock/2013.1/src/exe/rbdock.cxx#4 $)

>  <Rbt.Library>
libRbt.so (2013.1, Build901 2013/11/27)

>  <Rbt.Parameter_File>
/export/apps/rDock/src/rDock_2013.1_src/data/scripts/dock_solv.prm

>  <Rbt.Receptor>
prm/pocket_docking_6.prm

>  <SCORE>
-11.7807

>  <SCORE.INTER>
-11.3254

>  <SCORE.INTER.CONST>
1

>  <SCORE.INTER.POLAR>
0

>  <SCORE.INTER.ROT>
2

>  <SCORE.INTER.SOLV>
14.114

>  <SCORE.INTER.VDW>
-17.1882

>  <SCORE.INTER.norm>
-0.269651

>  <SCORE.INTRA>
-0.455322

>  <SCORE.INTRA.DIHEDRAL>
-0.000305086

>  <SCORE.INTRA.DIHEDRAL.0>
2.39985

>  <SCORE.INTRA.POLAR>
0

>  <SCORE.INTRA.POLAR.0>
0

>  <SCORE.INTRA.REPUL>
0

>  <SCORE.INTRA.REPUL.0>
0

>  <SCORE.INTRA.SOLV>
0.945059

>  <SCORE.INTRA.SOLV.lig_0>
-110.958

>  <SCORE.INTRA.VDW>
-0.927699

>  <SCORE.INTRA.VDW.0>
-2.34644

>  <SCORE.INTRA.norm>
-0.010841

>  <SCORE.RESTR>
0

>  <SCORE.RESTR.CAVITY>
0

>  <SCORE.RESTR.norm>
0

>  <SCORE.SYSTEM>
0

>  <SCORE.SYSTEM.CONST>
0

>  <SCORE.SYSTEM.DIHEDRAL>
0

>  <SCORE.SYSTEM.SOLV>
0

>  <SCORE.SYSTEM.norm>
0

>  <SCORE.heavy>
42

>  <SCORE.norm>
-0.280492

>  <RMSD>
6.724

$$$$
ligand
 OpenBabel11021811513D
libRbt.so/2013.1/901 2013/11/27
 42 48  0  0  0  0  0  0  0  0999 V2000
    3.1146  -34.1886  -16.2154 P   0  0  2  0  0  0  0  0  0  0  0  0
    6.2998  -32.6889  -12.5933 P   0  0  1  0  0  0  0  0  0  0  0  0
    1.8427  -33.4034  -16.4352 O   0  5  0  0  0  0  0  0  0  0  0  0
    6.8219  -34.0726  -12.8985 O   0  5  0  0  0  0  0  0  0  0  0  0
    3.2611  -35.5674  -16.8134 O   0  0  0  0  0  0  0  0  0  0  0  0
    7.1221  -31.7409  -11.7540 O   0  0  0  0  0  0  0  0  0  0  0  0
    2.2747  -34.3790  -13.7224 C   0  0  0  0  0  0  0  0  0  0  0  0
    6.9759  -31.7493  -14.9625 C   0  0  0  0  0  0  0  0  0  0  0  0
    3.3720  -34.2967  -14.6302 O   0  0  0  0  0  0  0  0  0  0  0  0
    5.9572  -31.9604  -13.9877 O   0  0  0  0  0  0  0  0  0  0  0  0
    2.6648  -33.7398  -12.3950 C   0  0  1  0  0  0  0  0  0  0  0  0
    6.4912  -32.2386  -16.3215 C   0  0  1  0  0  0  0  0  0  0  0  0
    1.8364  -34.2558  -11.3496 O   0  0  0  0  0  0  0  0  0  0  0  0
    7.6136  -32.5385  -17.1547 O   0  0  0  0  0  0  0  0  0  0  0  0
    4.1093  -34.0480  -12.0388 C   0  0  1  0  0  0  0  0  0  0  0  0
    5.6603  -33.5049  -16.1880 C   0  0  1  0  0  0  0  0  0  0  0  0
    4.8495  -32.8380  -11.9089 O   0  0  0  0  0  0  0  0  0  0  0  0
    4.3536  -33.2891  -16.7123 O   0  0  0  0  0  0  0  0  0  0  0  0
    4.0769  -34.7827  -10.7115 C   0  0  0  0  0  0  0  0  0  0  0  0
    6.3738  -34.5737  -16.9932 C   0  0  0  0  0  0  0  0  0  0  0  0
    2.6090  -34.8875  -10.3253 C   0  0  2  0  0  0  0  0  0  0  0  0
    7.6075  -33.9032  -17.5807 C   0  0  2  0  0  0  0  0  0  0  0  0
    0.0297  -38.8963  -12.5287 N   0  0  0  0  0  0  0  0  0  0  0  0
    0.1824  -37.6269  -12.9489 C   0  0  0  0  0  0  0  0  0  0  0  0
    0.8788  -36.6944  -12.2731 N   0  0  0  0  0  0  0  0  0  0  0  0
    1.4824  -36.9936  -11.0979 C   0  0  0  0  0  0  0  0  0  0  0  0
    1.3617  -38.3622  -10.5717 C   0  0  0  0  0  0  0  0  0  0  0  0
    0.5781  -39.3325  -11.3727 C   0  0  0  0  0  0  0  0  0  0  0  0
    0.4180  -40.6133  -10.9608 N   0  0  0  0  0  0  0  0  0  0  0  0
    2.0430  -38.3888   -9.4110 N   0  0  0  0  0  0  0  0  0  0  0  0
    2.5550  -37.1475   -9.2104 C   0  0  0  0  0  0  0  0  0  0  0  0
    2.2212  -36.3158  -10.2159 N   0  0  0  0  0  0  0  0  0  0  0  0
   12.7695  -34.6231  -18.2196 N   0  0  0  0  0  0  0  0  0  0  0  0
   11.9068  -33.8614  -18.9175 C   0  0  0  0  0  0  0  0  0  0  0  0
   10.5940  -33.7716  -18.6382 N   0  0  0  0  0  0  0  0  0  0  0  0
   10.0547  -34.4651  -17.6066 C   0  0  0  0  0  0  0  0  0  0  0  0
   10.9342  -35.3208  -16.7953 C   0  0  0  0  0  0  0  0  0  0  0  0
   12.3684  -35.3665  -17.1660 C   0  0  0  0  0  0  0  0  0  0  0  0
   13.2473  -36.1293  -16.4704 N   0  0  0  0  0  0  0  0  0  0  0  0
   10.1566  -35.8860  -15.8525 N   0  0  0  0  0  0  0  0  0  0  0  0
    8.8910  -35.4325  -16.0437 C   0  0  0  0  0  0  0  0  0  0  0  0
    8.8302  -34.5864  -17.0884 N   0  0  0  0  0  0  0  0  0  0  0  0
  1  3  1  6  0  0  0
  1  5  2  0  0  0  0
  1  9  1  0  0  0  0
  1 18  1  0  0  0  0
  2  4  1  6  0  0  0
  2  6  2  0  0  0  0
  2 10  1  0  0  0  0
  2 17  1  0  0  0  0
  7  9  1  0  0  0  0
  8 10  1  0  0  0  0
 11  7  1  6  0  0  0
 11 13  1  0  0  0  0
 11 15  1  0  0  0  0
 12  8  1  1  0  0  0
 12 14  1  0  0  0  0
 12 16  1  0  0  0  0
 13 21  1  0  0  0  0
 14 22  1  0  0  0  0
 15 17  1  1  0  0  0
 15 19  1  0  0  0  0
 16 18  1  6  0  0  0
 16 20  1  0  0  0  0
 19 21  1  0  0  0  0
 20 22  1  0  0  0  0
 21 32  1  6  0  0  0
 22 42  1  1  0  0  0
 23 24  2  0  0  0  0
 23 28  1  0  0  0  0
 24 25  1  0  0  0  0
 25 26  2  0  0  0  0
 26 27  1  0  0  0  0
 26 32  1  0  0  0  0
 27 28  2  0  0  0  0
 27 30  1  0  0  0  0
 28 29  1  0  0  0  0
 30 31  2  0  0  0  0
 31 32  1  0  0  0  0
 33 34  2  0  0  0  0
 33 38  1  0  0  0  0
 34 35  1  0  0  0  0
 35 36  2  0  0  0  0
 36 37  1  0  0  0  0
 36 42  1  0  0  0  0
 37 38  2  0  0  0  0
 37 40  1  0  0  0  0
 38 39  1  0  0  0  0
 40 41  2  0  0  0  0
 41 42  1  0  0  0  0
M  CHG  2   3  -1   4  -1
M  END
>  <CHROM.1>
12.97539630,-76.98638373,5.32382368,-34.79432749,-14.23348140,2.61277961
-0.36684617,2.56066134

>  <Name>
ligand

>  <RI>
0

>  <Rbt.Current_Directory>
/home/itssahil/PROJECTS/Mol_Feturizer/New_Systems/rnas/4QLN

>  <Rbt.Executable>
rbdock ($Id: //depot/dev/client3/rdock/2013.1/src/exe/rbdock.cxx#4 $)

>  <Rbt.Library>
libRbt.so (2013.1, Build901 2013/11/27)

>  <Rbt.Parameter_File>
/export/apps/rDock/src/rDock_2013.1_src/data/scripts/dock_solv.prm

>  <Rbt.Receptor>
prm/pocket_docking_7.prm

>  <SCORE>
-13.4252

>  <SCORE.INTER>
-14.7035

>  <SCORE.INTER.CONST>
1

>  <SCORE.INTER.POLAR>
0

>  <SCORE.INTER.ROT>
2

>  <SCORE.INTER.SOLV>
16.8312

>  <SCORE.INTER.VDW>
-20.346

>  <SCORE.INTER.norm>
-0.350083

>  <SCORE.INTRA>
1.27831

>  <SCORE.INTRA.DIHEDRAL>
-0.000599671

>  <SCORE.INTRA.DIHEDRAL.0>
2.39985

>  <SCORE.INTRA.POLAR>
0

>  <SCORE.INTRA.POLAR.0>
0

>  <SCORE.INTRA.REPUL>
0

>  <SCORE.INTRA.REPUL.0>
0

>  <SCORE.INTRA.SOLV>
-0.0177272

>  <SCORE.INTRA.SOLV.lig_0>
-110.958

>  <SCORE.INTRA.VDW>
1.28747

>  <SCORE.INTRA.VDW.0>
-2.34644

>  <SCORE.INTRA.norm>
0.030436

>  <SCORE.RESTR>
0

>  <SCORE.RESTR.CAVITY>
0

>  <SCORE.RESTR.norm>
0

>  <SCORE.SYSTEM>
0

>  <SCORE.SYSTEM.CONST>
0

>  <SCORE.SYSTEM.DIHEDRAL>
0

>  <SCORE.SYSTEM.SOLV>
0

>  <SCORE.SYSTEM.norm>
0

>  <SCORE.heavy>
42

>  <SCORE.norm>
-0.319647

>  <RMSD>
6.727

$$$$
ligand
 OpenBabel11021811513D
libRbt.so/2013.1/901 2013/11/27
 42 48  0  0  0  0  0  0  0  0999 V2000
    3.6899  -34.0731  -16.4729 P   0  0  2  0  0  0  0  0  0  0  0  0
    6.5635  -32.4399  -12.6532 P   0  0  1  0  0  0  0  0  0  0  0  0
    2.4196  -33.3227  -16.7988 O   0  5  0  0  0  0  0  0  0  0  0  0
    7.1388  -33.8149  -12.8954 O   0  5  0  0  0  0  0  0  0  0  0  0
    3.9122  -35.4569  -17.0346 O   0  0  0  0  0  0  0  0  0  0  0  0
    7.2994  -31.4591  -11.7723 O   0  0  0  0  0  0  0  0  0  0  0  0
    2.6731  -34.2454  -14.0453 C   0  0  0  0  0  0  0  0  0  0  0  0
    7.3904  -31.5208  -14.9824 C   0  0  0  0  0  0  0  0  0  0  0  0
    3.8322  -34.1503  -14.8714 O   0  0  0  0  0  0  0  0  0  0  0  0
    6.3078  -31.7417  -14.0814 O   0  0  0  0  0  0  0  0  0  0  0  0
    2.9493  -33.5764  -12.7041 C   0  0  1  0  0  0  0  0  0  0  0  0
    7.0188  -32.0428  -16.3646 C   0  0  1  0  0  0  0  0  0  0  0  0
    2.0583  -34.0963  -11.7135 O   0  0  0  0  0  0  0  0  0  0  0  0
    8.2062  -32.3279  -17.1079 O   0  0  0  0  0  0  0  0  0  0  0  0
    4.3704  -33.8435  -12.2376 C   0  0  1  0  0  0  0  0  0  0  0  0
    6.2100  -33.3268  -16.2705 C   0  0  1  0  0  0  0  0  0  0  0  0
    5.0706  -32.6139  -12.0746 O   0  0  0  0  0  0  0  0  0  0  0  0
    4.9408  -33.1513  -16.8929 O   0  0  0  0  0  0  0  0  0  0  0  0
    4.2573  -34.5582  -10.9038 C   0  0  0  0  0  0  0  0  0  0  0  0
    7.0056  -34.3901  -17.0028 C   0  0  0  0  0  0  0  0  0  0  0  0
    2.7678  -34.6930  -10.6245 C   0  0  2  0  0  0  0  0  0  0  0  0
    8.2634  -33.6988  -17.5097 C   0  0  2  0  0  0  0  0  0  0  0  0
    0.7811  -38.8901  -13.0772 N   0  0  0  0  0  0  0  0  0  0  0  0
    0.9771  -37.6359  -13.5242 C   0  0  0  0  0  0  0  0  0  0  0  0
    1.5019  -36.6487  -12.7751 N   0  0  0  0  0  0  0  0  0  0  0  0
    1.8730  -36.8722  -11.4917 C   0  0  0  0  0  0  0  0  0  0  0  0
    1.6905  -38.2195  -10.9294 C   0  0  0  0  0  0  0  0  0  0  0  0
    1.1057  -39.2534  -11.8162 C   0  0  0  0  0  0  0  0  0  0  0  0
    0.9043  -40.5195  -11.3780 N   0  0  0  0  0  0  0  0  0  0  0  0
    2.1330  -38.1686   -9.6590 N   0  0  0  0  0  0  0  0  0  0  0  0
    2.5610  -36.9012   -9.4270 C   0  0  0  0  0  0  0  0  0  0  0  0
    2.4064  -36.1284  -10.5193 N   0  0  0  0  0  0  0  0  0  0  0  0
   12.9255  -35.9345  -18.4252 N   0  0  0  0  0  0  0  0  0  0  0  0
   12.0285  -35.4158  -19.2841 C   0  0  0  0  0  0  0  0  0  0  0  0
   10.8599  -34.8683  -18.9043 N   0  0  0  0  0  0  0  0  0  0  0  0
   10.5142  -34.8085  -17.5955 C   0  0  0  0  0  0  0  0  0  0  0  0
   11.4434  -35.3551  -16.5946 C   0  0  0  0  0  0  0  0  0  0  0  0
   12.7105  -35.9411  -17.0920 C   0  0  0  0  0  0  0  0  0  0  0  0
   13.6223  -36.4660  -16.2369 N   0  0  0  0  0  0  0  0  0  0  0  0
   10.8653  -35.1699  -15.3927 N   0  0  0  0  0  0  0  0  0  0  0  0
    9.6713  -34.5592  -15.6055 C   0  0  0  0  0  0  0  0  0  0  0  0
    9.4620  -34.3441  -16.9173 N   0  0  0  0  0  0  0  0  0  0  0  0
  1  3  1  6  0  0  0
  1  5  2  0  0  0  0
  1  9  1  0  0  0  0
  1 18  1  0  0  0  0
  2  4  1  6  0  0  0
  2  6  2  0  0  0  0
  2 10  1  0  0  0  0
  2 17  1  0  0  0  0
  7  9  1  0  0  0  0
  8 10  1  0  0  0  0
 11  7  1  6  0  0  0
 11 13  1  0  0  0  0
 11 15  1  0  0  0  0
 12  8  1  1  0  0  0
 12 14  1  0  0  0  0
 12 16  1  0  0  0  0
 13 21  1  0  0  0  0
 14 22  1  0  0  0  0
 15 17  1  1  0  0  0
 15 19  1  0  0  0  0
 16 18  1  6  0  0  0
 16 20  1  0  0  0  0
 19 21  1  0  0  0  0
 20 22  1  0  0  0  0
 21 32  1  6  0  0  0
 22 42  1  1  0  0  0
 23 24  2  0  0  0  0
 23 28  1  0  0  0  0
 24 25  1  0  0  0  0
 25 26  2  0  0  0  0
 26 27  1  0  0  0  0
 26 32  1  0  0  0  0
 27 28  2  0  0  0  0
 27 30  1  0  0  0  0
 28 29  1  0  0  0  0
 30 31  2  0  0  0  0
 31 32  1  0  0  0  0
 33 34  2  0  0  0  0
 33 38  1  0  0  0  0
 34 35  1  0  0  0  0
 35 36  2  0  0  0  0
 36 37  1  0  0  0  0
 36 42  1  0  0  0  0
 37 38  2  0  0  0  0
 37 40  1  0  0  0  0
 38 39  1  0  0  0  0
 40 41  2  0  0  0  0
 41 42  1  0  0  0  0
M  CHG  2   3  -1   4  -1
M  END
>  <CHROM.1>
20.21393150,-114.00665785,5.74248338,-34.73548083,-14.39023611,2.91147346
-0.55290446,3.09686864

>  <Name>
ligand

>  <RI>
0

>  <Rbt.Current_Directory>
/home/itssahil/PROJECTS/Mol_Feturizer/New_Systems/rnas/4QLN

>  <Rbt.Executable>
rbdock ($Id: //depot/dev/client3/rdock/2013.1/src/exe/rbdock.cxx#4 $)

>  <Rbt.Library>
libRbt.so (2013.1, Build901 2013/11/27)

>  <Rbt.Parameter_File>
/export/apps/rDock/src/rDock_2013.1_src/data/scripts/dock_solv.prm

>  <Rbt.Receptor>
prm/pocket_docking_8.prm

>  <SCORE>
-13.7032

>  <SCORE.INTER>
-14.0998

>  <SCORE.INTER.CONST>
1

>  <SCORE.INTER.POLAR>
0

>  <SCORE.INTER.ROT>
2

>  <SCORE.INTER.SOLV>
17.3699

>  <SCORE.INTER.VDW>
-20.1232

>  <SCORE.INTER.norm>
-0.33571

>  <SCORE.INTRA>
0.396589

>  <SCORE.INTRA.DIHEDRAL>
-0.000310405

>  <SCORE.INTRA.DIHEDRAL.0>
2.39985

>  <SCORE.INTRA.POLAR>
0

>  <SCORE.INTRA.POLAR.0>
0

>  <SCORE.INTRA.REPUL>
0

>  <SCORE.INTRA.REPUL.0>
0

>  <SCORE.INTRA.SOLV>
0.0315202

>  <SCORE.INTRA.SOLV.lig_0>
-110.958

>  <SCORE.INTRA.VDW>
0.380984

>  <SCORE.INTRA.VDW.0>
-2.34644

>  <SCORE.INTRA.norm>
0.00944259

>  <SCORE.RESTR>
0

>  <SCORE.RESTR.CAVITY>
0

>  <SCORE.RESTR.norm>
0

>  <SCORE.SYSTEM>
0

>  <SCORE.SYSTEM.CONST>
0

>  <SCORE.SYSTEM.DIHEDRAL>
0

>  <SCORE.SYSTEM.SOLV>
0

>  <SCORE.SYSTEM.norm>
0

>  <SCORE.heavy>
42

>  <SCORE.norm>
-0.326268

>  <RMSD>
6.738

$$$$
ligand
 OpenBabel11021811513D
libRbt.so/2013.1/901 2013/11/27
 42 48  0  0  0  0  0  0  0  0999 V2000
    7.2127  -31.6649  -13.1824 P   0  0  2  0  0  0  0  0  0  0  0  0
    5.5588  -34.5804  -16.9611 P   0  0  1  0  0  0  0  0  0  0  0  0
    7.7556  -30.2928  -13.5074 O   0  5  0  0  0  0  0  0  0  0  0  0
    5.6559  -35.5784  -15.8320 O   0  5  0  0  0  0  0  0  0  0  0  0
    7.4781  -32.2783  -11.8284 O   0  0  0  0  0  0  0  0  0  0  0  0
    4.8344  -34.9494  -18.2333 O   0  0  0  0  0  0  0  0  0  0  0  0
    9.0076  -32.5157  -14.9177 C   0  0  0  0  0  0  0  0  0  0  0  0
    3.6008  -33.2422  -15.8083 C   0  0  0  0  0  0  0  0  0  0  0  0
    7.7287  -32.6907  -14.3104 O   0  0  0  0  0  0  0  0  0  0  0  0
    4.9055  -33.2270  -16.3830 O   0  0  0  0  0  0  0  0  0  0  0  0
    8.9686  -33.0470  -16.3456 C   0  0  1  0  0  0  0  0  0  0  0  0
    3.6319  -32.5465  -14.4533 C   0  0  1  0  0  0  0  0  0  0  0  0
   10.2939  -33.3683  -16.7768 O   0  0  0  0  0  0  0  0  0  0  0  0
    2.5400  -33.0032  -13.6514 O   0  0  0  0  0  0  0  0  0  0  0  0
    8.1295  -34.3101  -16.4405 C   0  0  1  0  0  0  0  0  0  0  0  0
    4.9187  -32.8541  -13.7043 C   0  0  1  0  0  0  0  0  0  0  0  0
    7.0504  -34.1129  -17.3490 O   0  0  0  0  0  0  0  0  0  0  0  0
    5.6215  -31.6470  -13.4248 O   0  0  0  0  0  0  0  0  0  0  0  0
    9.0509  -35.3999  -16.9563 C   0  0  0  0  0  0  0  0  0  0  0  0
    4.5111  -33.5301  -12.4096 C   0  0  0  0  0  0  0  0  0  0  0  0
   10.4103  -34.7443  -17.1485 C   0  0  2  0  0  0  0  0  0  0  0  0
    2.9908  -33.6001  -12.4330 C   0  0  2  0  0  0  0  0  0  0  0  0
   12.7462  -39.2662  -15.8544 N   0  0  0  0  0  0  0  0  0  0  0  0
   11.7914  -39.0133  -16.7685 C   0  0  0  0  0  0  0  0  0  0  0  0
   11.2792  -37.7897  -16.9956 N   0  0  0  0  0  0  0  0  0  0  0  0
   11.7115  -36.7141  -16.2948 C   0  0  0  0  0  0  0  0  0  0  0  0
   12.7552  -36.9092  -15.2764 C   0  0  0  0  0  0  0  0  0  0  0  0
   13.2690  -38.2862  -15.0838 C   0  0  0  0  0  0  0  0  0  0  0  0
   14.2305  -38.5533  -14.1674 N   0  0  0  0  0  0  0  0  0  0  0  0
   12.9970  -35.6994  -14.7377 N   0  0  0  0  0  0  0  0  0  0  0  0
   12.1807  -34.8077  -15.3554 C   0  0  0  0  0  0  0  0  0  0  0  0
   11.4146  -35.4122  -16.2838 N   0  0  0  0  0  0  0  0  0  0  0  0
    1.2358  -37.7387  -15.1468 N   0  0  0  0  0  0  0  0  0  0  0  0
    1.5551  -36.4996  -15.5642 C   0  0  0  0  0  0  0  0  0  0  0  0
    1.9976  -35.5266  -14.7475 N   0  0  0  0  0  0  0  0  0  0  0  0
    2.1499  -35.7505  -13.4199 C   0  0  0  0  0  0  0  0  0  0  0  0
    1.8215  -37.0816  -12.8865 C   0  0  0  0  0  0  0  0  0  0  0  0
    1.3404  -38.0999  -13.8498 C   0  0  0  0  0  0  0  0  0  0  0  0
    1.0164  -39.3516  -13.4418 N   0  0  0  0  0  0  0  0  0  0  0  0
    2.0594  -37.0338  -11.5622 N   0  0  0  0  0  0  0  0  0  0  0  0
    2.5008  -35.7826  -11.2731 C   0  0  0  0  0  0  0  0  0  0  0  0
    2.5546  -35.0182  -12.3793 N   0  0  0  0  0  0  0  0  0  0  0  0
  1  3  1  6  0  0  0
  1  5  2  0  0  0  0
  1  9  1  0  0  0  0
  1 18  1  0  0  0  0
  2  4  1  1  0  0  0
  2  6  2  0  0  0  0
  2 10  1  0  0  0  0
  2 17  1  0  0  0  0
  7  9  1  0  0  0  0
  8 10  1  0  0  0  0
 11  7  1  1  0  0  0
 11 13  1  0  0  0  0
 11 15  1  0  0  0  0
 12  8  1  6  0  0  0
 12 14  1  0  0  0  0
 12 16  1  0  0  0  0
 13 21  1  0  0  0  0
 14 22  1  0  0  0  0
 15 17  1  6  0  0  0
 15 19  1  0  0  0  0
 16 18  1  1  0  0  0
 16 20  1  0  0  0  0
 19 21  1  0  0  0  0
 20 22  1  0  0  0  0
 21 32  1  1  0  0  0
 22 42  1  6  0  0  0
 23 24  2  0  0  0  0
 23 28  1  0  0  0  0
 24 25  1  0  0  0  0
 25 26  2  0  0  0  0
 26 27  1  0  0  0  0
 26 32  1  0  0  0  0
 27 28  2  0  0  0  0
 27 30  1  0  0  0  0
 28 29  1  0  0  0  0
 30 31  2  0  0  0  0
 31 32  1  0  0  0  0
 33 34  2  0  0  0  0
 33 38  1  0  0  0  0
 34 35  1  0  0  0  0
 35 36  2  0  0  0  0
 36 37  1  0  0  0  0
 36 42  1  0  0  0  0
 37 38  2  0  0  0  0
 37 40  1  0  0  0  0
 38 39  1  0  0  0  0
 40 41  2  0  0  0  0
 41 42  1  0  0  0  0
M  CHG  2   3  -1   4  -1
M  END
>  <CHROM.1>
175.34490602,17.66767681,6.73077778,-34.86835738,-14.86523704,-2.99377319
-0.20263503,-2.97623745

>  <Name>
ligand

>  <RI>
0

>  <Rbt.Current_Directory>
/home/itssahil/PROJECTS/Mol_Feturizer/New_Systems/rnas/4QLN

>  <Rbt.Executable>
rbdock ($Id: //depot/dev/client3/rdock/2013.1/src/exe/rbdock.cxx#4 $)

>  <Rbt.Library>
libRbt.so (2013.1, Build901 2013/11/27)

>  <Rbt.Parameter_File>
/export/apps/rDock/src/rDock_2013.1_src/data/scripts/dock_solv.prm

>  <Rbt.Receptor>
prm/pocket_docking_7.prm

>  <SCORE>
-10.3037

>  <SCORE.INTER>
-10.6754

>  <SCORE.INTER.CONST>
1

>  <SCORE.INTER.POLAR>
0

>  <SCORE.INTER.ROT>
2

>  <SCORE.INTER.SOLV>
15.6707

>  <SCORE.INTER.VDW>
-17.2738

>  <SCORE.INTER.norm>
-0.254175

>  <SCORE.INTRA>
0.371685

>  <SCORE.INTRA.DIHEDRAL>
-0.000514478

>  <SCORE.INTRA.DIHEDRAL.0>
2.39985

>  <SCORE.INTRA.POLAR>
0

>  <SCORE.INTRA.POLAR.0>
0

>  <SCORE.INTRA.REPUL>
0

>  <SCORE.INTRA.REPUL.0>
0

>  <SCORE.INTRA.SOLV>
0.0156117

>  <SCORE.INTRA.SOLV.lig_0>
-110.958

>  <SCORE.INTRA.VDW>
0.364137

>  <SCORE.INTRA.VDW.0>
-2.34644

>  <SCORE.INTRA.norm>
0.00884965

>  <SCORE.RESTR>
0

>  <SCORE.RESTR.CAVITY>
0

>  <SCORE.RESTR.norm>
0

>  <SCORE.SYSTEM>
0

>  <SCORE.SYSTEM.CONST>
0

>  <SCORE.SYSTEM.DIHEDRAL>
0

>  <SCORE.SYSTEM.SOLV>
0

>  <SCORE.SYSTEM.norm>
0

>  <SCORE.heavy>
42

>  <SCORE.norm>
-0.245326

>  <RMSD>
6.745

$$$$
ligand
 OpenBabel11021811513D
libRbt.so/2013.1/901 2013/11/27
 42 48  0  0  0  0  0  0  0  0999 V2000
    3.9270  -34.6836  -16.6197 P   0  0  2  0  0  0  0  0  0  0  0  0
    6.2202  -31.9543  -13.0411 P   0  0  1  0  0  0  0  0  0  0  0  0
    2.6370  -34.1667  -17.2128 O   0  5  0  0  0  0  0  0  0  0  0  0
    6.9381  -33.2770  -12.9164 O   0  5  0  0  0  0  0  0  0  0  0  0
    4.3301  -36.1231  -16.8329 O   0  0  0  0  0  0  0  0  0  0  0  0
    6.7678  -30.7308  -12.3464 O   0  0  0  0  0  0  0  0  0  0  0  0
    2.6765  -34.4369  -14.3105 C   0  0  0  0  0  0  0  0  0  0  0  0
    7.2057  -31.4762  -15.4398 C   0  0  0  0  0  0  0  0  0  0  0  0
    3.9040  -34.3957  -15.0362 O   0  0  0  0  0  0  0  0  0  0  0  0
    6.0571  -31.6148  -14.6066 O   0  0  0  0  0  0  0  0  0  0  0  0
    2.7475  -33.4669  -13.1372 C   0  0  1  0  0  0  0  0  0  0  0  0
    7.0315  -32.3231  -16.6942 C   0  0  1  0  0  0  0  0  0  0  0  0
    1.8057  -33.8549  -12.1332 O   0  0  0  0  0  0  0  0  0  0  0  0
    8.3120  -32.6296  -17.2510 O   0  0  0  0  0  0  0  0  0  0  0  0
    4.1289  -33.4679  -12.5045 C   0  0  1  0  0  0  0  0  0  0  0  0
    6.3347  -33.6376  -16.3803 C   0  0  1  0  0  0  0  0  0  0  0  0
    4.6955  -32.1625  -12.5659 O   0  0  0  0  0  0  0  0  0  0  0  0
    5.1285  -33.7423  -17.1308 O   0  0  0  0  0  0  0  0  0  0  0  0
    3.9383  -33.8845  -11.0580 C   0  0  0  0  0  0  0  0  0  0  0  0
    7.2953  -34.7397  -16.7832 C   0  0  0  0  0  0  0  0  0  0  0  0
    2.4454  -34.1193  -10.8818 C   0  0  2  0  0  0  0  0  0  0  0  0
    8.5334  -34.0401  -17.3258 C   0  0  2  0  0  0  0  0  0  0  0  0
    4.5417  -38.5469   -8.9896 N   0  0  0  0  0  0  0  0  0  0  0  0
    5.1134  -37.3549   -9.2421 C   0  0  0  0  0  0  0  0  0  0  0  0
    4.4457  -36.2947   -9.7332 N   0  0  0  0  0  0  0  0  0  0  0  0
    3.1214  -36.3731  -10.0072 C   0  0  0  0  0  0  0  0  0  0  0  0
    2.4239  -37.6443   -9.7574 C   0  0  0  0  0  0  0  0  0  0  0  0
    3.2273  -38.7664   -9.2166 C   0  0  0  0  0  0  0  0  0  0  0  0
    2.6631  -39.9706   -8.9575 N   0  0  0  0  0  0  0  0  0  0  0  0
    1.1387  -37.4526  -10.1093 N   0  0  0  0  0  0  0  0  0  0  0  0
    1.0222  -36.1724  -10.5461 C   0  0  0  0  0  0  0  0  0  0  0  0
    2.2039  -35.5287  -10.4851 N   0  0  0  0  0  0  0  0  0  0  0  0
   11.0648  -33.3757  -12.7735 N   0  0  0  0  0  0  0  0  0  0  0  0
    9.9142  -32.8336  -13.2135 C   0  0  0  0  0  0  0  0  0  0  0  0
    9.3761  -33.0974  -14.4179 N   0  0  0  0  0  0  0  0  0  0  0  0
    9.9838  -33.9500  -15.2780 C   0  0  0  0  0  0  0  0  0  0  0  0
   11.2468  -34.5838  -14.8690 C   0  0  0  0  0  0  0  0  0  0  0  0
   11.7751  -34.2425  -13.5272 C   0  0  0  0  0  0  0  0  0  0  0  0
   12.9325  -34.7825  -13.0724 N   0  0  0  0  0  0  0  0  0  0  0  0
   11.6298  -35.3713  -15.8918 N   0  0  0  0  0  0  0  0  0  0  0  0
   10.6949  -35.2519  -16.8693 C   0  0  0  0  0  0  0  0  0  0  0  0
    9.7146  -34.4053  -16.5040 N   0  0  0  0  0  0  0  0  0  0  0  0
  1  3  1  6  0  0  0
  1  5  2  0  0  0  0
  1  9  1  0  0  0  0
  1 18  1  0  0  0  0
  2  4  1  1  0  0  0
  2  6  2  0  0  0  0
  2 10  1  0  0  0  0
  2 17  1  0  0  0  0
  7  9  1  0  0  0  0
  8 10  1  0  0  0  0
 11  7  1  6  0  0  0
 11 13  1  0  0  0  0
 11 15  1  0  0  0  0
 12  8  1  1  0  0  0
 12 14  1  0  0  0  0
 12 16  1  0  0  0  0
 13 21  1  0  0  0  0
 14 22  1  0  0  0  0
 15 17  1  1  0  0  0
 15 19  1  0  0  0  0
 16 18  1  6  0  0  0
 16 20  1  0  0  0  0
 19 21  1  0  0  0  0
 20 22  1  0  0  0  0
 21 32  1  6  0  0  0
 22 42  1  1  0  0  0
 23 24  2  0  0  0  0
 23 28  1  0  0  0  0
 24 25  1  0  0  0  0
 25 26  2  0  0  0  0
 26 27  1  0  0  0  0
 26 32  1  0  0  0  0
 27 28  2  0  0  0  0
 27 30  1  0  0  0  0
 28 29  1  0  0  0  0
 30 31  2  0  0  0  0
 31 32  1  0  0  0  0
 33 34  2  0  0  0  0
 33 38  1  0  0  0  0
 34 35  1  0  0  0  0
 35 36  2  0  0  0  0
 36 37  1  0  0  0  0
 36 42  1  0  0  0  0
 37 38  2  0  0  0  0
 37 40  1  0  0  0  0
 38 39  1  0  0  0  0
 40 41  2  0  0  0  0
 41 42  1  0  0  0  0
M  CHG  2   3  -1   4  -1
M  END
>  <CHROM.1>
135.03302358,43.91150522,5.88244416,-34.40896181,-13.61616105,0.70415340
-0.02950787,-1.08123949

>  <Name>
ligand

>  <RI>
0

>  <Rbt.Current_Directory>
/home/itssahil/PROJECTS/Mol_Feturizer/New_Systems/rnas/4QLN

>  <Rbt.Executable>
rbdock ($Id: //depot/dev/client3/rdock/2013.1/src/exe/rbdock.cxx#4 $)

>  <Rbt.Library>
libRbt.so (2013.1, Build901 2013/11/27)

>  <Rbt.Parameter_File>
/export/apps/rDock/src/rDock_2013.1_src/data/scripts/dock_solv.prm

>  <Rbt.Receptor>
prm/pocket_docking_7.prm

>  <SCORE>
-12.9169

>  <SCORE.INTER>
-14.3799

>  <SCORE.INTER.CONST>
1

>  <SCORE.INTER.POLAR>
0

>  <SCORE.INTER.ROT>
2

>  <SCORE.INTER.SOLV>
14.6371

>  <SCORE.INTER.VDW>
-19.3989

>  <SCORE.INTER.norm>
-0.342377

>  <SCORE.INTRA>
1.46294

>  <SCORE.INTRA.DIHEDRAL>
-0.000597704

>  <SCORE.INTRA.DIHEDRAL.0>
2.39985

>  <SCORE.INTRA.POLAR>
0

>  <SCORE.INTRA.POLAR.0>
0

>  <SCORE.INTRA.REPUL>
0

>  <SCORE.INTRA.REPUL.0>
0

>  <SCORE.INTRA.SOLV>
0.939421

>  <SCORE.INTRA.SOLV.lig_0>
-110.958

>  <SCORE.INTRA.VDW>
0.993533

>  <SCORE.INTRA.VDW.0>
-2.34644

>  <SCORE.INTRA.norm>
0.034832

>  <SCORE.RESTR>
0

>  <SCORE.RESTR.CAVITY>
0

>  <SCORE.RESTR.norm>
0

>  <SCORE.SYSTEM>
0

>  <SCORE.SYSTEM.CONST>
0

>  <SCORE.SYSTEM.DIHEDRAL>
0

>  <SCORE.SYSTEM.SOLV>
0

>  <SCORE.SYSTEM.norm>
0

>  <SCORE.heavy>
42

>  <SCORE.norm>
-0.307545

>  <RMSD>
6.762

$$$$
ligand
 OpenBabel11021811513D
libRbt.so/2013.1/901 2013/11/27
 42 48  0  0  0  0  0  0  0  0999 V2000
    2.5239  -35.3284  -16.9729 P   0  0  2  0  0  0  0  0  0  0  0  0
    4.9847  -32.5219  -13.5697 P   0  0  1  0  0  0  0  0  0  0  0  0
    1.3450  -34.7227  -17.6984 O   0  5  0  0  0  0  0  0  0  0  0  0
    5.5123  -33.9022  -13.2588 O   0  5  0  0  0  0  0  0  0  0  0  0
    2.7407  -36.8224  -17.0046 O   0  0  0  0  0  0  0  0  0  0  0  0
    5.6566  -31.3067  -12.9769 O   0  0  0  0  0  0  0  0  0  0  0  0
    1.2067  -34.6614  -14.7872 C   0  0  0  0  0  0  0  0  0  0  0  0
    6.1408  -32.4514  -15.9386 C   0  0  0  0  0  0  0  0  0  0  0  0
    2.4625  -34.8604  -15.4340 O   0  0  0  0  0  0  0  0  0  0  0  0
    4.9448  -32.3460  -15.1697 O   0  0  0  0  0  0  0  0  0  0  0  0
    1.3497  -33.5803  -13.7225 C   0  0  1  0  0  0  0  0  0  0  0  0
    5.9160  -33.4072  -17.1035 C   0  0  1  0  0  0  0  0  0  0  0  0
    0.3168  -33.7275  -12.7443 O   0  0  0  0  0  0  0  0  0  0  0  0
    7.1696  -33.9362  -17.5421 O   0  0  0  0  0  0  0  0  0  0  0  0
    2.6861  -33.6850  -13.0073 C   0  0  1  0  0  0  0  0  0  0  0  0
    5.0353  -34.5774  -16.6952 C   0  0  1  0  0  0  0  0  0  0  0  0
    3.4245  -32.4782  -13.1722 O   0  0  0  0  0  0  0  0  0  0  0  0
    3.8639  -34.6128  -17.5049 O   0  0  0  0  0  0  0  0  0  0  0  0
    2.3713  -33.9054  -11.5394 C   0  0  0  0  0  0  0  0  0  0  0  0
    5.8583  -35.8319  -16.9161 C   0  0  0  0  0  0  0  0  0  0  0  0
    0.8537  -33.9262  -11.4338 C   0  0  2  0  0  0  0  0  0  0  0  0
    7.2038  -35.3627  -17.4511 C   0  0  2  0  0  0  0  0  0  0  0  0
    0.1893  -39.0406  -12.4236 N   0  0  0  0  0  0  0  0  0  0  0  0
    0.6622  -38.0583  -13.2128 C   0  0  0  0  0  0  0  0  0  0  0  0
    0.7779  -36.7758  -12.8219 N   0  0  0  0  0  0  0  0  0  0  0  0
    0.4141  -36.3937  -11.5742 C   0  0  0  0  0  0  0  0  0  0  0  0
   -0.1126  -37.4109  -10.6509 C   0  0  0  0  0  0  0  0  0  0  0  0
   -0.2108  -38.8015  -11.1546 C   0  0  0  0  0  0  0  0  0  0  0  0
   -0.6843  -39.7990  -10.3696 N   0  0  0  0  0  0  0  0  0  0  0  0
   -0.3928  -36.7747   -9.4981 N   0  0  0  0  0  0  0  0  0  0  0  0
   -0.0744  -35.4658   -9.6670 C   0  0  0  0  0  0  0  0  0  0  0  0
    0.4068  -35.2385  -10.9044 N   0  0  0  0  0  0  0  0  0  0  0  0
    9.5931  -34.4929  -12.8569 N   0  0  0  0  0  0  0  0  0  0  0  0
    8.5502  -33.8603  -13.4258 C   0  0  0  0  0  0  0  0  0  0  0  0
    8.0361  -34.1945  -14.6231 N   0  0  0  0  0  0  0  0  0  0  0  0
    8.5579  -35.2181  -15.3415 C   0  0  0  0  0  0  0  0  0  0  0  0
    9.7006  -35.9594  -14.7859 C   0  0  0  0  0  0  0  0  0  0  0  0
   10.2096  -35.5311  -13.4616 C   0  0  0  0  0  0  0  0  0  0  0  0
   11.2589  -36.1606  -12.8778 N   0  0  0  0  0  0  0  0  0  0  0  0
   10.0166  -36.9089  -15.6867 N   0  0  0  0  0  0  0  0  0  0  0  0
    9.1529  -36.7859  -16.7273 C   0  0  0  0  0  0  0  0  0  0  0  0
    8.2842  -35.7789  -16.5218 N   0  0  0  0  0  0  0  0  0  0  0  0
  1  3  1  6  0  0  0
  1  5  2  0  0  0  0
  1  9  1  0  0  0  0
  1 18  1  0  0  0  0
  2  4  1  1  0  0  0
  2  6  2  0  0  0  0
  2 10  1  0  0  0  0
  2 17  1  0  0  0  0
  7  9  1  0  0  0  0
  8 10  1  0  0  0  0
 11  7  1  6  0  0  0
 11 13  1  0  0  0  0
 11 15  1  0  0  0  0
 12  8  1  1  0  0  0
 12 14  1  0  0  0  0
 12 16  1  0  0  0  0
 13 21  1  0  0  0  0
 14 22  1  0  0  0  0
 15 17  1  1  0  0  0
 15 19  1  0  0  0  0
 16 18  1  6  0  0  0
 16 20  1  0  0  0  0
 19 21  1  0  0  0  0
 20 22  1  0  0  0  0
 21 32  1  6  0  0  0
 22 42  1  1  0  0  0
 23 24  2  0  0  0  0
 23 28  1  0  0  0  0
 24 25  1  0  0  0  0
 25 26  2  0  0  0  0
 26 27  1  0  0  0  0
 26 32  1  0  0  0  0
 27 28  2  0  0  0  0
 27 30  1  0  0  0  0
 28 29  1  0  0  0  0
 30 31  2  0  0  0  0
 31 32  1  0  0  0  0
 33 34  2  0  0  0  0
 33 38  1  0  0  0  0
 34 35  1  0  0  0  0
 35 36  2  0  0  0  0
 36 37  1  0  0  0  0
 36 42  1  0  0  0  0
 37 38  2  0  0  0  0
 37 40  1  0  0  0  0
 38 39  1  0  0  0  0
 40 41  2  0  0  0  0
 41 42  1  0  0  0  0
M  CHG  2   3  -1   4  -1
M  END
>  <CHROM.1>
45.63208511,43.40368242,4.18255474,-35.01939146,-14.18488791,2.69302120,0.08295641
1.81867613

>  <Name>
ligand

>  <RI>
0

>  <Rbt.Current_Directory>
/home/itssahil/PROJECTS/Mol_Feturizer/New_Systems/rnas/4QLN

>  <Rbt.Executable>
rbdock ($Id: //depot/dev/client3/rdock/2013.1/src/exe/rbdock.cxx#4 $)

>  <Rbt.Library>
libRbt.so (2013.1, Build901 2013/11/27)

>  <Rbt.Parameter_File>
/export/apps/rDock/src/rDock_2013.1_src/data/scripts/dock_solv.prm

>  <Rbt.Receptor>
prm/pocket_docking_7.prm

>  <SCORE>
-12.1774

>  <SCORE.INTER>
-11.5624

>  <SCORE.INTER.CONST>
1

>  <SCORE.INTER.POLAR>
0

>  <SCORE.INTER.ROT>
2

>  <SCORE.INTER.SOLV>
14.6566

>  <SCORE.INTER.VDW>
-17.5272

>  <SCORE.INTER.norm>
-0.275296

>  <SCORE.INTRA>
-0.614996

>  <SCORE.INTRA.DIHEDRAL>
-0.000604353

>  <SCORE.INTRA.DIHEDRAL.0>
2.39985

>  <SCORE.INTRA.POLAR>
0

>  <SCORE.INTRA.POLAR.0>
0

>  <SCORE.INTRA.REPUL>
0

>  <SCORE.INTRA.REPUL.0>
0

>  <SCORE.INTRA.SOLV>
0.999774

>  <SCORE.INTRA.SOLV.lig_0>
-110.958

>  <SCORE.INTRA.VDW>
-1.11458

>  <SCORE.INTRA.VDW.0>
-2.34644

>  <SCORE.INTRA.norm>
-0.0146428

>  <SCORE.RESTR>
0

>  <SCORE.RESTR.CAVITY>
0

>  <SCORE.RESTR.norm>
0

>  <SCORE.SYSTEM>
0

>  <SCORE.SYSTEM.CONST>
0

>  <SCORE.SYSTEM.DIHEDRAL>
0

>  <SCORE.SYSTEM.SOLV>
0

>  <SCORE.SYSTEM.norm>
0

>  <SCORE.heavy>
42

>  <SCORE.norm>
-0.289939

>  <RMSD>
6.763

$$$$
ligand
 OpenBabel11021811513D
libRbt.so/2013.1/901 2013/11/27
 42 48  0  0  0  0  0  0  0  0999 V2000
    3.7014  -34.1184  -16.5055 P   0  0  2  0  0  0  0  0  0  0  0  0
    6.5156  -32.3129  -12.7194 P   0  0  1  0  0  0  0  0  0  0  0  0
    2.4237  -33.3982  -16.8686 O   0  5  0  0  0  0  0  0  0  0  0  0
    7.1125  -33.6871  -12.9086 O   0  5  0  0  0  0  0  0  0  0  0  0
    3.9484  -35.5175  -17.0170 O   0  0  0  0  0  0  0  0  0  0  0  0
    7.2292  -31.2918  -11.8665 O   0  0  0  0  0  0  0  0  0  0  0  0
    2.6643  -34.2214  -14.0825 C   0  0  0  0  0  0  0  0  0  0  0  0
    7.3513  -31.4630  -15.0716 C   0  0  0  0  0  0  0  0  0  0  0  0
    3.8296  -34.1382  -14.9011 O   0  0  0  0  0  0  0  0  0  0  0  0
    6.2634  -31.6682  -14.1731 O   0  0  0  0  0  0  0  0  0  0  0  0
    2.9184  -33.5026  -12.7629 C   0  0  1  0  0  0  0  0  0  0  0  0
    7.0000  -32.0377  -16.4381 C   0  0  1  0  0  0  0  0  0  0  0  0
    2.0255  -34.0007  -11.7629 O   0  0  0  0  0  0  0  0  0  0  0  0
    8.1983  -32.3312  -17.1605 O   0  0  0  0  0  0  0  0  0  0  0  0
    4.3387  -33.7329  -12.2749 C   0  0  1  0  0  0  0  0  0  0  0  0
    6.2087  -33.3293  -16.3068 C   0  0  1  0  0  0  0  0  0  0  0  0
    5.0199  -32.4883  -12.1484 O   0  0  0  0  0  0  0  0  0  0  0  0
    4.9430  -33.1937  -16.9462 O   0  0  0  0  0  0  0  0  0  0  0  0
    4.2232  -34.4026  -10.9182 C   0  0  0  0  0  0  0  0  0  0  0  0
    7.0260  -34.4056  -16.9946 C   0  0  0  0  0  0  0  0  0  0  0  0
    2.7332  -34.5492  -10.6477 C   0  0  2  0  0  0  0  0  0  0  0  0
    8.2786  -33.7142  -17.5140 C   0  0  2  0  0  0  0  0  0  0  0  0
    0.6270  -38.8009  -12.8981 N   0  0  0  0  0  0  0  0  0  0  0  0
    0.7834  -37.5531  -13.3773 C   0  0  0  0  0  0  0  0  0  0  0  0
    1.3473  -36.5497  -12.6798 N   0  0  0  0  0  0  0  0  0  0  0  0
    1.8023  -36.7489  -11.4196 C   0  0  0  0  0  0  0  0  0  0  0  0
    1.6674  -38.0879  -10.8249 C   0  0  0  0  0  0  0  0  0  0  0  0
    1.0352  -39.1406  -11.6550 C   0  0  0  0  0  0  0  0  0  0  0  0
    0.8729  -40.4006  -11.1841 N   0  0  0  0  0  0  0  0  0  0  0  0
    2.1905  -38.0125   -9.5867 N   0  0  0  0  0  0  0  0  0  0  0  0
    2.6221  -36.7384   -9.4034 C   0  0  0  0  0  0  0  0  0  0  0  0
    2.3911  -35.9852  -10.4959 N   0  0  0  0  0  0  0  0  0  0  0  0
   12.9343  -36.0072  -18.3133 N   0  0  0  0  0  0  0  0  0  0  0  0
   12.0322  -35.5436  -19.1981 C   0  0  0  0  0  0  0  0  0  0  0  0
   10.8662  -34.9722  -18.8468 N   0  0  0  0  0  0  0  0  0  0  0  0
   10.5285  -34.8288  -17.5425 C   0  0  0  0  0  0  0  0  0  0  0  0
   11.4636  -35.3111  -16.5144 C   0  0  0  0  0  0  0  0  0  0  0  0
   12.7274  -35.9286  -16.9811 C   0  0  0  0  0  0  0  0  0  0  0  0
   13.6442  -36.3985  -16.0998 N   0  0  0  0  0  0  0  0  0  0  0  0
   10.8929  -35.0492  -15.3233 N   0  0  0  0  0  0  0  0  0  0  0  0
    9.6978  -34.4525  -15.5673 C   0  0  0  0  0  0  0  0  0  0  0  0
    9.4806  -34.3213  -16.8889 N   0  0  0  0  0  0  0  0  0  0  0  0
  1  3  1  6  0  0  0
  1  5  2  0  0  0  0
  1  9  1  0  0  0  0
  1 18  1  0  0  0  0
  2  4  1  6  0  0  0
  2  6  2  0  0  0  0
  2 10  1  0  0  0  0
  2 17  1  0  0  0  0
  7  9  1  0  0  0  0
  8 10  1  0  0  0  0
 11  7  1  6  0  0  0
 11 13  1  0  0  0  0
 11 15  1  0  0  0  0
 12  8  1  1  0  0  0
 12 14  1  0  0  0  0
 12 16  1  0  0  0  0
 13 21  1  0  0  0  0
 14 22  1  0  0  0  0
 15 17  1  1  0  0  0
 15 19  1  0  0  0  0
 16 18  1  6  0  0  0
 16 20  1  0  0  0  0
 19 21  1  0  0  0  0
 20 22  1  0  0  0  0
 21 32  1  6  0  0  0
 22 42  1  1  0  0  0
 23 24  2  0  0  0  0
 23 28  1  0  0  0  0
 24 25  1  0  0  0  0
 25 26  2  0  0  0  0
 26 27  1  0  0  0  0
 26 32  1  0  0  0  0
 27 28  2  0  0  0  0
 27 30  1  0  0  0  0
 28 29  1  0  0  0  0
 30 31  2  0  0  0  0
 31 32  1  0  0  0  0
 33 34  2  0  0  0  0
 33 38  1  0  0  0  0
 34 35  1  0  0  0  0
 35 36  2  0  0  0  0
 36 37  1  0  0  0  0
 36 42  1  0  0  0  0
 37 38  2  0  0  0  0
 37 40  1  0  0  0  0
 38 39  1  0  0  0  0
 40 41  2  0  0  0  0
 41 42  1  0  0  0  0
M  CHG  2   3  -1   4  -1
M  END
>  <CHROM.1>
15.84677246,-116.07698282,5.72302564,-34.68195112,-14.37729946,2.90133266
-0.54234796,3.05889275

>  <Name>
ligand

>  <RI>
0

>  <Rbt.Current_Directory>
/home/itssahil/PROJECTS/Mol_Feturizer/New_Systems/rnas/4QLN

>  <Rbt.Executable>
rbdock ($Id: //depot/dev/client3/rdock/2013.1/src/exe/rbdock.cxx#4 $)

>  <Rbt.Library>
libRbt.so (2013.1, Build901 2013/11/27)

>  <Rbt.Parameter_File>
/export/apps/rDock/src/rDock_2013.1_src/data/scripts/dock_solv.prm

>  <Rbt.Receptor>
prm/pocket_docking_7.prm

>  <SCORE>
-13.687

>  <SCORE.INTER>
-14.1035

>  <SCORE.INTER.CONST>
1

>  <SCORE.INTER.POLAR>
0

>  <SCORE.INTER.ROT>
2

>  <SCORE.INTER.SOLV>
17.2167

>  <SCORE.INTER.VDW>
-20.0746

>  <SCORE.INTER.norm>
-0.335798

>  <SCORE.INTRA>
0.416528

>  <SCORE.INTRA.DIHEDRAL>
-0.000196571

>  <SCORE.INTRA.DIHEDRAL.0>
2.39985

>  <SCORE.INTRA.POLAR>
0

>  <SCORE.INTRA.POLAR.0>
0

>  <SCORE.INTRA.REPUL>
0

>  <SCORE.INTRA.REPUL.0>
0

>  <SCORE.INTRA.SOLV>
0.0299357

>  <SCORE.INTRA.SOLV.lig_0>
-110.958

>  <SCORE.INTRA.VDW>
0.401659

>  <SCORE.INTRA.VDW.0>
-2.34644

>  <SCORE.INTRA.norm>
0.00991734

>  <SCORE.RESTR>
0

>  <SCORE.RESTR.CAVITY>
0

>  <SCORE.RESTR.norm>
0

>  <SCORE.SYSTEM>
0

>  <SCORE.SYSTEM.CONST>
0

>  <SCORE.SYSTEM.DIHEDRAL>
0

>  <SCORE.SYSTEM.SOLV>
0

>  <SCORE.SYSTEM.norm>
0

>  <SCORE.heavy>
42

>  <SCORE.norm>
-0.325881

>  <RMSD>
6.765

$$$$
ligand
 OpenBabel11021811513D
libRbt.so/2013.1/901 2013/11/27
 42 48  0  0  0  0  0  0  0  0999 V2000
    8.6488  -31.3870  -15.0252 P   0  0  2  0  0  0  0  0  0  0  0  0
    6.0658  -35.3142  -16.8744 P   0  0  1  0  0  0  0  0  0  0  0  0
    9.2648  -30.4025  -15.9918 O   0  5  0  0  0  0  0  0  0  0  0  0
    6.2559  -35.7304  -15.4354 O   0  5  0  0  0  0  0  0  0  0  0  0
    9.0829  -31.3942  -13.5790 O   0  0  0  0  0  0  0  0  0  0  0  0
    5.0953  -36.0646  -17.7545 O   0  0  0  0  0  0  0  0  0  0  0  0
   10.0140  -33.1931  -16.3784 C   0  0  0  0  0  0  0  0  0  0  0  0
    4.4891  -33.2984  -16.2387 C   0  0  0  0  0  0  0  0  0  0  0  0
    8.8503  -32.8692  -15.6195 O   0  0  0  0  0  0  0  0  0  0  0  0
    5.6672  -33.7543  -16.8996 O   0  0  0  0  0  0  0  0  0  0  0  0
    9.6704  -34.2712  -17.3994 C   0  0  1  0  0  0  0  0  0  0  0  0
    4.8290  -32.1045  -15.3555 C   0  0  1  0  0  0  0  0  0  0  0  0
   10.8592  -34.9672  -17.7840 O   0  0  0  0  0  0  0  0  0  0  0  0
    3.8534  -31.9788  -14.3180 O   0  0  0  0  0  0  0  0  0  0  0  0
    8.7019  -35.2890  -16.8210 C   0  0  1  0  0  0  0  0  0  0  0  0
    6.1886  -32.2747  -14.6966 C   0  0  1  0  0  0  0  0  0  0  0  0
    7.5064  -35.3206  -17.5946 O   0  0  0  0  0  0  0  0  0  0  0  0
    7.0502  -31.2040  -15.0711 O   0  0  0  0  0  0  0  0  0  0  0  0
    9.4011  -36.6340  -16.8892 C   0  0  0  0  0  0  0  0  0  0  0  0
    5.9468  -32.2482  -13.1997 C   0  0  0  0  0  0  0  0  0  0  0  0
   10.7660  -36.3670  -17.5060 C   0  0  2  0  0  0  0  0  0  0  0  0
    4.4470  -32.0613  -13.0199 C   0  0  2  0  0  0  0  0  0  0  0  0
   12.9003  -35.5743  -12.7736 N   0  0  0  0  0  0  0  0  0  0  0  0
   11.8426  -34.9824  -13.3587 C   0  0  0  0  0  0  0  0  0  0  0  0
   11.4022  -35.2894  -14.5928 N   0  0  0  0  0  0  0  0  0  0  0  0
   12.0189  -36.2406  -15.3344 C   0  0  0  0  0  0  0  0  0  0  0  0
   13.1840  -36.9343  -14.7634 C   0  0  0  0  0  0  0  0  0  0  0  0
   13.6093  -36.5404  -13.3992 C   0  0  0  0  0  0  0  0  0  0  0  0
   14.6718  -37.1294  -12.7994 N   0  0  0  0  0  0  0  0  0  0  0  0
   13.5995  -37.8154  -15.6926 N   0  0  0  0  0  0  0  0  0  0  0  0
   12.7744  -37.6972  -16.7642 C   0  0  0  0  0  0  0  0  0  0  0  0
   11.8320  -36.7588  -16.5508 N   0  0  0  0  0  0  0  0  0  0  0  0
    0.2955  -35.2029  -12.3357 N   0  0  0  0  0  0  0  0  0  0  0  0
    0.4651  -34.1580  -13.1669 C   0  0  0  0  0  0  0  0  0  0  0  0
    1.5971  -33.4345  -13.2367 N   0  0  0  0  0  0  0  0  0  0  0  0
    2.6593  -33.7296  -12.4489 C   0  0  0  0  0  0  0  0  0  0  0  0
    2.5514  -34.8594  -11.5130 C   0  0  0  0  0  0  0  0  0  0  0  0
    1.2722  -35.6075  -11.4954 C   0  0  0  0  0  0  0  0  0  0  0  0
    1.0894  -36.6622  -10.6633 N   0  0  0  0  0  0  0  0  0  0  0  0
    3.7283  -34.9332  -10.8632 N   0  0  0  0  0  0  0  0  0  0  0  0
    4.5195  -33.9383  -11.3405 C   0  0  0  0  0  0  0  0  0  0  0  0
    3.8829  -33.2213  -12.2848 N   0  0  0  0  0  0  0  0  0  0  0  0
  1  3  1  6  0  0  0
  1  5  2  0  0  0  0
  1  9  1  0  0  0  0
  1 18  1  0  0  0  0
  2  4  1  1  0  0  0
  2  6  2  0  0  0  0
  2 10  1  0  0  0  0
  2 17  1  0  0  0  0
  7  9  1  0  0  0  0
  8 10  1  0  0  0  0
 11  7  1  1  0  0  0
 11 13  1  0  0  0  0
 11 15  1  0  0  0  0
 12  8  1  1  0  0  0
 12 14  1  0  0  0  0
 12 16  1  0  0  0  0
 13 21  1  0  0  0  0
 14 22  1  0  0  0  0
 15 17  1  6  0  0  0
 15 19  1  0  0  0  0
 16 18  1  1  0  0  0
 16 20  1  0  0  0  0
 19 21  1  0  0  0  0
 20 22  1  0  0  0  0
 21 32  1  1  0  0  0
 22 42  1  6  0  0  0
 23 24  2  0  0  0  0
 23 28  1  0  0  0  0
 24 25  1  0  0  0  0
 25 26  2  0  0  0  0
 26 27  1  0  0  0  0
 26 32  1  0  0  0  0
 27 28  2  0  0  0  0
 27 30  1  0  0  0  0
 28 29  1  0  0  0  0
 30 31  2  0  0  0  0
 31 32  1  0  0  0  0
 33 34  2  0  0  0  0
 33 38  1  0  0  0  0
 34 35  1  0  0  0  0
 35 36  2  0  0  0  0
 36 37  1  0  0  0  0
 36 42  1  0  0  0  0
 37 38  2  0  0  0  0
 37 40  1  0  0  0  0
 38 39  1  0  0  0  0
 40 41  2  0  0  0  0
 41 42  1  0  0  0  0
M  CHG  2   3  -1   4  -1
M  END
>  <CHROM.1>
57.66645874,-29.13423359,7.43252872,-34.37240307,-14.78556659,0.02504373
0.32461114,-0.70553723

>  <Name>
ligand

>  <RI>
0

>  <Rbt.Current_Directory>
/home/itssahil/PROJECTS/Mol_Feturizer/New_Systems/rnas/4QLN

>  <Rbt.Executable>
rbdock ($Id: //depot/dev/client3/rdock/2013.1/src/exe/rbdock.cxx#4 $)

>  <Rbt.Library>
libRbt.so (2013.1, Build901 2013/11/27)

>  <Rbt.Parameter_File>
/export/apps/rDock/src/rDock_2013.1_src/data/scripts/dock_solv.prm

>  <Rbt.Receptor>
prm/pocket_docking_8.prm

>  <SCORE>
-12.2815

>  <SCORE.INTER>
-12.7678

>  <SCORE.INTER.CONST>
1

>  <SCORE.INTER.POLAR>
0

>  <SCORE.INTER.ROT>
2

>  <SCORE.INTER.SOLV>
12.7087

>  <SCORE.INTER.VDW>
-17.6814

>  <SCORE.INTER.norm>
-0.303995

>  <SCORE.INTRA>
0.486271

>  <SCORE.INTRA.DIHEDRAL>
0.000869219

>  <SCORE.INTRA.DIHEDRAL.0>
2.39985

>  <SCORE.INTRA.POLAR>
0

>  <SCORE.INTRA.POLAR.0>
0

>  <SCORE.INTRA.REPUL>
0

>  <SCORE.INTRA.REPUL.0>
0

>  <SCORE.INTRA.SOLV>
-0.0336999

>  <SCORE.INTRA.SOLV.lig_0>
-110.958

>  <SCORE.INTRA.VDW>
0.502687

>  <SCORE.INTRA.VDW.0>
-2.34644

>  <SCORE.INTRA.norm>
0.0115779

>  <SCORE.RESTR>
0

>  <SCORE.RESTR.CAVITY>
0

>  <SCORE.RESTR.norm>
0

>  <SCORE.SYSTEM>
0

>  <SCORE.SYSTEM.CONST>
0

>  <SCORE.SYSTEM.DIHEDRAL>
0

>  <SCORE.SYSTEM.SOLV>
0

>  <SCORE.SYSTEM.norm>
0

>  <SCORE.heavy>
42

>  <SCORE.norm>
-0.292417

>  <RMSD>
6.774

$$$$
ligand
 OpenBabel11021811513D
libRbt.so/2013.1/901 2013/11/27
 42 48  0  0  0  0  0  0  0  0999 V2000
    4.1436  -35.1568  -16.6071 P   0  0  2  0  0  0  0  0  0  0  0  0
    6.2911  -31.8739  -13.4251 P   0  0  1  0  0  0  0  0  0  0  0  0
    2.8449  -34.7747  -17.2781 O   0  5  0  0  0  0  0  0  0  0  0  0
    7.0525  -33.1394  -13.1103 O   0  5  0  0  0  0  0  0  0  0  0  0
    4.5992  -36.5964  -16.6132 O   0  0  0  0  0  0  0  0  0  0  0  0
    6.7863  -30.5465  -12.9035 O   0  0  0  0  0  0  0  0  0  0  0  0
    2.8534  -34.6359  -14.3663 C   0  0  0  0  0  0  0  0  0  0  0  0
    7.2926  -31.6997  -15.8582 C   0  0  0  0  0  0  0  0  0  0  0  0
    4.0886  -34.6519  -15.0797 O   0  0  0  0  0  0  0  0  0  0  0  0
    6.1381  -31.7622  -15.0241 O   0  0  0  0  0  0  0  0  0  0  0  0
    2.8745  -33.5098  -13.3397 C   0  0  1  0  0  0  0  0  0  0  0  0
    7.1653  -32.7190  -16.9833 C   0  0  1  0  0  0  0  0  0  0  0  0
    1.9329  -33.7879  -12.2997 O   0  0  0  0  0  0  0  0  0  0  0  0
    8.4632  -33.0536  -17.4804 O   0  0  0  0  0  0  0  0  0  0  0  0
    4.2462  -33.3726  -12.7008 C   0  0  1  0  0  0  0  0  0  0  0  0
    6.5101  -34.0011  -16.4949 C   0  0  1  0  0  0  0  0  0  0  0  0
    4.7681  -32.0689  -12.9390 O   0  0  0  0  0  0  0  0  0  0  0  0
    5.3188  -34.2531  -17.2340 O   0  0  0  0  0  0  0  0  0  0  0  0
    4.0500  -33.5901  -11.2119 C   0  0  0  0  0  0  0  0  0  0  0  0
    7.5137  -35.1132  -16.7311 C   0  0  0  0  0  0  0  0  0  0  0  0
    2.5638  -33.8519  -11.0179 C   0  0  2  0  0  0  0  0  0  0  0  0
    8.7343  -34.4518  -17.3551 C   0  0  2  0  0  0  0  0  0  0  0  0
    4.8636  -38.1203   -9.0004 N   0  0  0  0  0  0  0  0  0  0  0  0
    5.4071  -36.9844   -9.4755 C   0  0  0  0  0  0  0  0  0  0  0  0
    4.6867  -35.9604   -9.9691 N   0  0  0  0  0  0  0  0  0  0  0  0
    3.3342  -36.0201  -10.0145 C   0  0  0  0  0  0  0  0  0  0  0  0
    2.6647  -37.2303   -9.5126 C   0  0  0  0  0  0  0  0  0  0  0  0
    3.5260  -38.3153   -8.9852 C   0  0  0  0  0  0  0  0  0  0  0  0
    2.9907  -39.4629   -8.5035 N   0  0  0  0  0  0  0  0  0  0  0  0
    1.3427  -37.0315   -9.6712 N   0  0  0  0  0  0  0  0  0  0  0  0
    1.1789  -35.8032  -10.2257 C   0  0  0  0  0  0  0  0  0  0  0  0
    2.3658  -35.2000  -10.4302 N   0  0  0  0  0  0  0  0  0  0  0  0
   11.2171  -33.0116  -12.9580 N   0  0  0  0  0  0  0  0  0  0  0  0
   10.0596  -32.5709  -13.4849 C   0  0  0  0  0  0  0  0  0  0  0  0
    9.5361  -33.0361  -14.6334 N   0  0  0  0  0  0  0  0  0  0  0  0
   10.1668  -34.0036  -15.3421 C   0  0  0  0  0  0  0  0  0  0  0  0
   11.4385  -34.5375  -14.8306 C   0  0  0  0  0  0  0  0  0  0  0  0
   11.9498  -33.9739  -13.5588 C   0  0  0  0  0  0  0  0  0  0  0  0
   13.1138  -34.4100  -13.0177 N   0  0  0  0  0  0  0  0  0  0  0  0
   11.8446  -35.4715  -15.7112 N   0  0  0  0  0  0  0  0  0  0  0  0
   10.9151  -35.5301  -16.6995 C   0  0  0  0  0  0  0  0  0  0  0  0
    9.9160  -34.6558  -16.4798 N   0  0  0  0  0  0  0  0  0  0  0  0
  1  3  1  6  0  0  0
  1  5  2  0  0  0  0
  1  9  1  0  0  0  0
  1 18  1  0  0  0  0
  2  4  1  1  0  0  0
  2  6  2  0  0  0  0
  2 10  1  0  0  0  0
  2 17  1  0  0  0  0
  7  9  1  0  0  0  0
  8 10  1  0  0  0  0
 11  7  1  6  0  0  0
 11 13  1  0  0  0  0
 11 15  1  0  0  0  0
 12  8  1  1  0  0  0
 12 14  1  0  0  0  0
 12 16  1  0  0  0  0
 13 21  1  0  0  0  0
 14 22  1  0  0  0  0
 15 17  1  1  0  0  0
 15 19  1  0  0  0  0
 16 18  1  6  0  0  0
 16 20  1  0  0  0  0
 19 21  1  0  0  0  0
 20 22  1  0  0  0  0
 21 32  1  6  0  0  0
 22 42  1  1  0  0  0
 23 24  2  0  0  0  0
 23 28  1  0  0  0  0
 24 25  1  0  0  0  0
 25 26  2  0  0  0  0
 26 27  1  0  0  0  0
 26 32  1  0  0  0  0
 27 28  2  0  0  0  0
 27 30  1  0  0  0  0
 28 29  1  0  0  0  0
 30 31  2  0  0  0  0
 31 32  1  0  0  0  0
 33 34  2  0  0  0  0
 33 38  1  0  0  0  0
 34 35  1  0  0  0  0
 35 36  2  0  0  0  0
 36 37  1  0  0  0  0
 36 42  1  0  0  0  0
 37 38  2  0  0  0  0
 37 40  1  0  0  0  0
 38 39  1  0  0  0  0
 40 41  2  0  0  0  0
 41 42  1  0  0  0  0
M  CHG  2   3  -1   4  -1
M  END
>  <CHROM.1>
124.21726305,42.35012181,6.05612235,-34.40941570,-13.69800685,2.45351467
0.05585827,1.95270517

>  <Name>
ligand

>  <RI>
0

>  <Rbt.Current_Directory>
/home/itssahil/PROJECTS/Mol_Feturizer/New_Systems/rnas/4QLN

>  <Rbt.Executable>
rbdock ($Id: //depot/dev/client3/rdock/2013.1/src/exe/rbdock.cxx#4 $)

>  <Rbt.Library>
libRbt.so (2013.1, Build901 2013/11/27)

>  <Rbt.Parameter_File>
/export/apps/rDock/src/rDock_2013.1_src/data/scripts/dock_solv.prm

>  <Rbt.Receptor>
prm/pocket_docking_5.prm

>  <SCORE>
-11.3541

>  <SCORE.INTER>
-13.4084

>  <SCORE.INTER.CONST>
1

>  <SCORE.INTER.POLAR>
0

>  <SCORE.INTER.ROT>
2

>  <SCORE.INTER.SOLV>
14.1487

>  <SCORE.INTER.VDW>
-18.5885

>  <SCORE.INTER.norm>
-0.319247

>  <SCORE.INTRA>
1.67334

>  <SCORE.INTRA.DIHEDRAL>
-0.000508678

>  <SCORE.INTRA.DIHEDRAL.0>
2.39985

>  <SCORE.INTRA.POLAR>
0

>  <SCORE.INTRA.POLAR.0>
0

>  <SCORE.INTRA.REPUL>
0

>  <SCORE.INTRA.REPUL.0>
0

>  <SCORE.INTRA.SOLV>
0.890905

>  <SCORE.INTRA.SOLV.lig_0>
-110.958

>  <SCORE.INTRA.VDW>
1.22814

>  <SCORE.INTRA.VDW.0>
-2.34644

>  <SCORE.INTRA.norm>
0.0398413

>  <SCORE.RESTR>
0.380953

>  <SCORE.RESTR.CAVITY>
0.380953

>  <SCORE.RESTR.norm>
0.0090703

>  <SCORE.SYSTEM>
0

>  <SCORE.SYSTEM.CONST>
0

>  <SCORE.SYSTEM.DIHEDRAL>
0

>  <SCORE.SYSTEM.SOLV>
0

>  <SCORE.SYSTEM.norm>
0

>  <SCORE.heavy>
42

>  <SCORE.norm>
-0.270335

>  <RMSD>
6.775

$$$$
ligand
 OpenBabel11021811513D
libRbt.so/2013.1/901 2013/11/27
 42 48  0  0  0  0  0  0  0  0999 V2000
    3.3982  -34.3200  -16.4428 P   0  0  2  0  0  0  0  0  0  0  0  0
    6.4126  -32.3265  -12.9139 P   0  0  1  0  0  0  0  0  0  0  0  0
    2.1137  -33.6041  -16.7901 O   0  5  0  0  0  0  0  0  0  0  0  0
    6.9825  -33.7188  -13.0443 O   0  5  0  0  0  0  0  0  0  0  0  0
    3.6029  -35.7518  -16.8764 O   0  0  0  0  0  0  0  0  0  0  0  0
    7.1790  -31.2655  -12.1613 O   0  0  0  0  0  0  0  0  0  0  0  0
    2.4769  -34.2561  -13.9721 C   0  0  0  0  0  0  0  0  0  0  0  0
    7.1454  -31.6374  -15.3515 C   0  0  0  0  0  0  0  0  0  0  0  0
    3.6028  -34.2420  -14.8482 O   0  0  0  0  0  0  0  0  0  0  0  0
    6.0993  -31.7696  -14.3919 O   0  0  0  0  0  0  0  0  0  0  0  0
    2.8029  -33.4607  -12.7137 C   0  0  1  0  0  0  0  0  0  0  0  0
    6.7221  -32.2905  -16.6612 C   0  0  1  0  0  0  0  0  0  0  0  0
    1.9527  -33.8819  -11.6435 O   0  0  0  0  0  0  0  0  0  0  0  0
    7.8806  -32.6468  -17.4192 O   0  0  0  0  0  0  0  0  0  0  0  0
    4.2419  -33.6822  -12.2794 C   0  0  1  0  0  0  0  0  0  0  0  0
    5.9218  -33.5590  -16.4120 C   0  0  1  0  0  0  0  0  0  0  0  0
    4.9438  -32.4429  -12.2635 O   0  0  0  0  0  0  0  0  0  0  0  0
    4.6288  -33.4438  -16.9985 O   0  0  0  0  0  0  0  0  0  0  0  0
    4.1831  -34.2644  -10.8793 C   0  0  0  0  0  0  0  0  0  0  0  0
    6.6918  -34.6885  -17.0685 C   0  0  0  0  0  0  0  0  0  0  0  0
    2.7060  -34.3708  -10.5305 C   0  0  2  0  0  0  0  0  0  0  0  0
    7.9266  -34.0502  -17.6885 C   0  0  2  0  0  0  0  0  0  0  0  0
   -0.1299  -38.5165  -12.0631 N   0  0  0  0  0  0  0  0  0  0  0  0
   -0.0544  -37.2771  -12.5822 C   0  0  0  0  0  0  0  0  0  0  0  0
    0.7247  -36.3021  -12.0789 N   0  0  0  0  0  0  0  0  0  0  0  0
    1.4992  -36.5235  -10.9898 C   0  0  0  0  0  0  0  0  0  0  0  0
    1.4721  -37.8551  -10.3645 C   0  0  0  0  0  0  0  0  0  0  0  0
    0.5885  -38.8761  -10.9759 C   0  0  0  0  0  0  0  0  0  0  0  0
    0.5046  -40.1274  -10.4632 N   0  0  0  0  0  0  0  0  0  0  0  0
    2.3184  -37.8054   -9.3187 N   0  0  0  0  0  0  0  0  0  0  0  0
    2.8415  -36.5533   -9.2768 C   0  0  0  0  0  0  0  0  0  0  0  0
    2.3535  -35.7892  -10.2729 N   0  0  0  0  0  0  0  0  0  0  0  0
   13.0719  -34.9468  -18.2312 N   0  0  0  0  0  0  0  0  0  0  0  0
   12.2069  -34.3299  -19.0574 C   0  0  0  0  0  0  0  0  0  0  0  0
   10.8990  -34.1698  -18.7862 N   0  0  0  0  0  0  0  0  0  0  0  0
   10.3676  -34.6359  -17.6302 C   0  0  0  0  0  0  0  0  0  0  0  0
   11.2502  -35.3224  -16.6742 C   0  0  0  0  0  0  0  0  0  0  0  0
   12.6785  -35.4590  -17.0452 C   0  0  0  0  0  0  0  0  0  0  0  0
   13.5597  -36.0776  -16.2212 N   0  0  0  0  0  0  0  0  0  0  0  0
   10.4806  -35.6774  -15.6281 N   0  0  0  0  0  0  0  0  0  0  0  0
    9.2169  -35.2560  -15.8912 C   0  0  0  0  0  0  0  0  0  0  0  0
    9.1495  -34.6358  -17.0836 N   0  0  0  0  0  0  0  0  0  0  0  0
  1  3  1  6  0  0  0
  1  5  2  0  0  0  0
  1  9  1  0  0  0  0
  1 18  1  0  0  0  0
  2  4  1  6  0  0  0
  2  6  2  0  0  0  0
  2 10  1  0  0  0  0
  2 17  1  0  0  0  0
  7  9  1  0  0  0  0
  8 10  1  0  0  0  0
 11  7  1  6  0  0  0
 11 13  1  0  0  0  0
 11 15  1  0  0  0  0
 12  8  1  1  0  0  0
 12 14  1  0  0  0  0
 12 16  1  0  0  0  0
 13 21  1  0  0  0  0
 14 22  1  0  0  0  0
 15 17  1  1  0  0  0
 15 19  1  0  0  0  0
 16 18  1  6  0  0  0
 16 20  1  0  0  0  0
 19 21  1  0  0  0  0
 20 22  1  0  0  0  0
 21 32  1  6  0  0  0
 22 42  1  1  0  0  0
 23 24  2  0  0  0  0
 23 28  1  0  0  0  0
 24 25  1  0  0  0  0
 25 26  2  0  0  0  0
 26 27  1  0  0  0  0
 26 32  1  0  0  0  0
 27 28  2  0  0  0  0
 27 30  1  0  0  0  0
 28 29  1  0  0  0  0
 30 31  2  0  0  0  0
 31 32  1  0  0  0  0
 33 34  2  0  0  0  0
 33 38  1  0  0  0  0
 34 35  1  0  0  0  0
 35 36  2  0  0  0  0
 36 37  1  0  0  0  0
 36 42  1  0  0  0  0
 37 38  2  0  0  0  0
 37 40  1  0  0  0  0
 38 39  1  0  0  0  0
 40 41  2  0  0  0  0
 41 42  1  0  0  0  0
M  CHG  2   3  -1   4  -1
M  END
>  <CHROM.1>
2.08159324,-83.19183625,5.51131457,-34.64028230,-14.32531960,2.60955151,-0.32090823
2.41976633

>  <Name>
ligand

>  <RI>
0

>  <Rbt.Current_Directory>
/home/itssahil/PROJECTS/Mol_Feturizer/New_Systems/rnas/4QLN

>  <Rbt.Executable>
rbdock ($Id: //depot/dev/client3/rdock/2013.1/src/exe/rbdock.cxx#4 $)

>  <Rbt.Library>
libRbt.so (2013.1, Build901 2013/11/27)

>  <Rbt.Parameter_File>
/export/apps/rDock/src/rDock_2013.1_src/data/scripts/dock_solv.prm

>  <Rbt.Receptor>
prm/pocket_docking_6.prm

>  <SCORE>
-12.2235

>  <SCORE.INTER>
-13.5959

>  <SCORE.INTER.CONST>
1

>  <SCORE.INTER.POLAR>
0

>  <SCORE.INTER.ROT>
2

>  <SCORE.INTER.SOLV>
15.9077

>  <SCORE.INTER.VDW>
-19.2998

>  <SCORE.INTER.norm>
-0.323712

>  <SCORE.INTRA>
1.34502

>  <SCORE.INTRA.DIHEDRAL>
-0.00058433

>  <SCORE.INTRA.DIHEDRAL.0>
2.39985

>  <SCORE.INTRA.POLAR>
0

>  <SCORE.INTRA.POLAR.0>
0

>  <SCORE.INTRA.REPUL>
0

>  <SCORE.INTRA.REPUL.0>
0

>  <SCORE.INTRA.SOLV>
-0.00604676

>  <SCORE.INTRA.SOLV.lig_0>
-110.958

>  <SCORE.INTRA.VDW>
1.34833

>  <SCORE.INTRA.VDW.0>
-2.34644

>  <SCORE.INTRA.norm>
0.0320243

>  <SCORE.RESTR>
0.0273538

>  <SCORE.RESTR.CAVITY>
0.0273538

>  <SCORE.RESTR.norm>
0.000651281

>  <SCORE.SYSTEM>
0

>  <SCORE.SYSTEM.CONST>
0

>  <SCORE.SYSTEM.DIHEDRAL>
0

>  <SCORE.SYSTEM.SOLV>
0

>  <SCORE.SYSTEM.norm>
0

>  <SCORE.heavy>
42

>  <SCORE.norm>
-0.291036

>  <RMSD>
6.811

$$$$
ligand
 OpenBabel11021811513D
libRbt.so/2013.1/901 2013/11/27
 42 48  0  0  0  0  0  0  0  0999 V2000
    3.5894  -36.5636  -18.6023 P   0  0  2  0  0  0  0  0  0  0  0  0
    3.9496  -32.9365  -15.1053 P   0  0  1  0  0  0  0  0  0  0  0  0
    2.7463  -36.3081  -19.8299 O   0  5  0  0  0  0  0  0  0  0  0  0
    4.4986  -34.1289  -14.3590 O   0  5  0  0  0  0  0  0  0  0  0  0
    4.0205  -37.9707  -18.2644 O   0  0  0  0  0  0  0  0  0  0  0  0
    4.1215  -31.5477  -14.5385 O   0  0  0  0  0  0  0  0  0  0  0  0
    1.3950  -35.9558  -17.2711 C   0  0  0  0  0  0  0  0  0  0  0  0
    5.9660  -32.8831  -16.8037 C   0  0  0  0  0  0  0  0  0  0  0  0
    2.8204  -35.9520  -17.3273 O   0  0  0  0  0  0  0  0  0  0  0  0
    4.5571  -32.9514  -16.5964 O   0  0  0  0  0  0  0  0  0  0  0  0
    0.9157  -34.7581  -16.4596 C   0  0  1  0  0  0  0  0  0  0  0  0
    6.3953  -33.9879  -17.7609 C   0  0  1  0  0  0  0  0  0  0  0  0
   -0.3969  -35.0135  -15.9525 O   0  0  0  0  0  0  0  0  0  0  0  0
    7.7810  -34.2818  -17.5681 O   0  0  0  0  0  0  0  0  0  0  0  0
    1.8292  -34.4947  -15.2744 C   0  0  1  0  0  0  0  0  0  0  0  0
    5.6106  -35.2668  -17.5151 C   0  0  1  0  0  0  0  0  0  0  0  0
    2.3791  -33.1837  -15.3632 O   0  0  0  0  0  0  0  0  0  0  0  0
    4.9054  -35.6414  -18.6948 O   0  0  0  0  0  0  0  0  0  0  0  0
    0.9659  -34.6134  -14.0322 C   0  0  0  0  0  0  0  0  0  0  0  0
    6.6279  -36.3328  -17.1569 C   0  0  0  0  0  0  0  0  0  0  0  0
   -0.4347  -34.9464  -14.5244 C   0  0  2  0  0  0  0  0  0  0  0  0
    7.9869  -35.6488  -17.2035 C   0  0  2  0  0  0  0  0  0  0  0  0
    0.4216  -40.1265  -14.4160 N   0  0  0  0  0  0  0  0  0  0  0  0
    1.0635  -39.1548  -15.0905 C   0  0  0  0  0  0  0  0  0  0  0  0
    0.7308  -37.8526  -15.0228 N   0  0  0  0  0  0  0  0  0  0  0  0
   -0.2993  -37.4376  -14.2471 C   0  0  0  0  0  0  0  0  0  0  0  0
   -1.0511  -38.4413  -13.4775 C   0  0  0  0  0  0  0  0  0  0  0  0
   -0.6252  -39.8553  -13.6047 C   0  0  0  0  0  0  0  0  0  0  0  0
   -1.2628  -40.8422  -12.9301 N   0  0  0  0  0  0  0  0  0  0  0  0
   -2.0053  -37.7724  -12.8034 N   0  0  0  0  0  0  0  0  0  0  0  0
   -1.8772  -36.4568  -13.1133 C   0  0  0  0  0  0  0  0  0  0  0  0
   -0.8602  -36.2571  -13.9736 N   0  0  0  0  0  0  0  0  0  0  0  0
   11.2246  -38.3136  -14.0431 N   0  0  0  0  0  0  0  0  0  0  0  0
   10.8409  -38.5698  -15.3075 C   0  0  0  0  0  0  0  0  0  0  0  0
    9.9946  -37.7902  -16.0043 N   0  0  0  0  0  0  0  0  0  0  0  0
    9.4678  -36.6707  -15.4520 C   0  0  0  0  0  0  0  0  0  0  0  0
    9.8397  -36.3225  -14.0719 C   0  0  0  0  0  0  0  0  0  0  0  0
   10.7772  -37.2312  -13.3709 C   0  0  0  0  0  0  0  0  0  0  0  0
   11.1718  -36.9836  -12.0977 N   0  0  0  0  0  0  0  0  0  0  0  0
    9.1872  -35.1829  -13.7745 N   0  0  0  0  0  0  0  0  0  0  0  0
    8.4612  -34.8328  -14.8674 C   0  0  0  0  0  0  0  0  0  0  0  0
    8.6281  -35.7188  -15.8664 N   0  0  0  0  0  0  0  0  0  0  0  0
  1  3  1  6  0  0  0
  1  5  2  0  0  0  0
  1  9  1  0  0  0  0
  1 18  1  0  0  0  0
  2  4  1  1  0  0  0
  2  6  2  0  0  0  0
  2 10  1  0  0  0  0
  2 17  1  0  0  0  0
  7  9  1  0  0  0  0
  8 10  1  0  0  0  0
 11  7  1  1  0  0  0
 11 13  1  0  0  0  0
 11 15  1  0  0  0  0
 12  8  1  1  0  0  0
 12 14  1  0  0  0  0
 12 16  1  0  0  0  0
 13 21  1  0  0  0  0
 14 22  1  0  0  0  0
 15 17  1  6  0  0  0
 15 19  1  0  0  0  0
 16 18  1  6  0  0  0
 16 20  1  0  0  0  0
 19 21  1  0  0  0  0
 20 22  1  0  0  0  0
 21 32  1  1  0  0  0
 22 42  1  1  0  0  0
 23 24  2  0  0  0  0
 23 28  1  0  0  0  0
 24 25  1  0  0  0  0
 25 26  2  0  0  0  0
 26 27  1  0  0  0  0
 26 32  1  0  0  0  0
 27 28  2  0  0  0  0
 27 30  1  0  0  0  0
 28 29  1  0  0  0  0
 30 31  2  0  0  0  0
 31 32  1  0  0  0  0
 33 34  2  0  0  0  0
 33 38  1  0  0  0  0
 34 35  1  0  0  0  0
 35 36  2  0  0  0  0
 36 37  1  0  0  0  0
 36 42  1  0  0  0  0
 37 38  2  0  0  0  0
 37 40  1  0  0  0  0
 38 39  1  0  0  0  0
 40 41  2  0  0  0  0
 41 42  1  0  0  0  0
M  CHG  2   3  -1   4  -1
M  END
>  <CHROM.1>
53.55494180,-148.94654579,4.14344222,-35.96922624,-15.62055328,3.01674555
-0.01082852,2.59888355

>  <Name>
ligand

>  <RI>
0

>  <Rbt.Current_Directory>
/home/itssahil/PROJECTS/Mol_Feturizer/New_Systems/rnas/4QLN

>  <Rbt.Executable>
rbdock ($Id: //depot/dev/client3/rdock/2013.1/src/exe/rbdock.cxx#4 $)

>  <Rbt.Library>
libRbt.so (2013.1, Build901 2013/11/27)

>  <Rbt.Parameter_File>
/export/apps/rDock/src/rDock_2013.1_src/data/scripts/dock_solv.prm

>  <Rbt.Receptor>
prm/pocket_docking_8.prm

>  <SCORE>
-16.2744

>  <SCORE.INTER>
-16.0469

>  <SCORE.INTER.CONST>
1

>  <SCORE.INTER.POLAR>
0

>  <SCORE.INTER.ROT>
2

>  <SCORE.INTER.SOLV>
28.2753

>  <SCORE.INTER.VDW>
-25.0564

>  <SCORE.INTER.norm>
-0.382069

>  <SCORE.INTRA>
-0.227448

>  <SCORE.INTRA.DIHEDRAL>
0.000814121

>  <SCORE.INTRA.DIHEDRAL.0>
2.39985

>  <SCORE.INTRA.POLAR>
0

>  <SCORE.INTRA.POLAR.0>
0

>  <SCORE.INTRA.REPUL>
0

>  <SCORE.INTRA.REPUL.0>
0

>  <SCORE.INTRA.SOLV>
-0.0684553

>  <SCORE.INTRA.SOLV.lig_0>
-110.958

>  <SCORE.INTRA.VDW>
-0.193627

>  <SCORE.INTRA.VDW.0>
-2.34644

>  <SCORE.INTRA.norm>
-0.00541542

>  <SCORE.RESTR>
0

>  <SCORE.RESTR.CAVITY>
0

>  <SCORE.RESTR.norm>
0

>  <SCORE.SYSTEM>
0

>  <SCORE.SYSTEM.CONST>
0

>  <SCORE.SYSTEM.DIHEDRAL>
0

>  <SCORE.SYSTEM.SOLV>
0

>  <SCORE.SYSTEM.norm>
0

>  <SCORE.heavy>
42

>  <SCORE.norm>
-0.387485

>  <RMSD>
6.820

$$$$
ligand
 OpenBabel11021811513D
libRbt.so/2013.1/901 2013/11/27
 42 48  0  0  0  0  0  0  0  0999 V2000
    3.5982  -36.5683  -18.6057 P   0  0  2  0  0  0  0  0  0  0  0  0
    3.9547  -32.9347  -15.1151 P   0  0  1  0  0  0  0  0  0  0  0  0
    2.7539  -36.3164  -19.8331 O   0  5  0  0  0  0  0  0  0  0  0  0
    4.5063  -34.1250  -14.3672 O   0  5  0  0  0  0  0  0  0  0  0  0
    4.0319  -37.9742  -18.2657 O   0  0  0  0  0  0  0  0  0  0  0  0
    4.1247  -31.5447  -14.5508 O   0  0  0  0  0  0  0  0  0  0  0  0
    1.4037  -35.9620  -17.2739 C   0  0  0  0  0  0  0  0  0  0  0  0
    5.9699  -32.8808  -16.8150 C   0  0  0  0  0  0  0  0  0  0  0  0
    2.8291  -35.9559  -17.3312 O   0  0  0  0  0  0  0  0  0  0  0  0
    4.5613  -32.9512  -16.6066 O   0  0  0  0  0  0  0  0  0  0  0  0
    0.9230  -34.7638  -16.4642 C   0  0  1  0  0  0  0  0  0  0  0  0
    6.4003  -33.9865  -17.7706 C   0  0  1  0  0  0  0  0  0  0  0  0
   -0.3889  -35.0205  -15.9557 O   0  0  0  0  0  0  0  0  0  0  0  0
    7.7867  -34.2777  -17.5783 O   0  0  0  0  0  0  0  0  0  0  0  0
    1.8369  -34.4968  -15.2801 C   0  0  1  0  0  0  0  0  0  0  0  0
    5.6180  -35.2663  -17.5222 C   0  0  1  0  0  0  0  0  0  0  0  0
    2.3845  -33.1851  -15.3714 O   0  0  0  0  0  0  0  0  0  0  0  0
    4.9126  -35.6441  -18.7007 O   0  0  0  0  0  0  0  0  0  0  0  0
    0.9746  -34.6148  -14.0371 C   0  0  0  0  0  0  0  0  0  0  0  0
    6.6374  -36.3299  -17.1628 C   0  0  0  0  0  0  0  0  0  0  0  0
   -0.4258  -34.9511  -14.5277 C   0  0  2  0  0  0  0  0  0  0  0  0
    7.9952  -35.6438  -17.2116 C   0  0  2  0  0  0  0  0  0  0  0  0
    0.4276  -40.1318  -14.4255 N   0  0  0  0  0  0  0  0  0  0  0  0
    1.0658  -39.1604  -15.1041 C   0  0  0  0  0  0  0  0  0  0  0  0
    0.7345  -37.8580  -15.0339 N   0  0  0  0  0  0  0  0  0  0  0  0
   -0.2903  -37.4424  -14.2517 C   0  0  0  0  0  0  0  0  0  0  0  0
   -1.0378  -38.4457  -13.4774 C   0  0  0  0  0  0  0  0  0  0  0  0
   -0.6138  -39.8600  -13.6075 C   0  0  0  0  0  0  0  0  0  0  0  0
   -1.2478  -40.8465  -12.9290 N   0  0  0  0  0  0  0  0  0  0  0  0
   -1.9873  -37.7762  -12.7971 N   0  0  0  0  0  0  0  0  0  0  0  0
   -1.8602  -36.4607  -13.1076 C   0  0  0  0  0  0  0  0  0  0  0  0
   -0.8486  -36.2615  -13.9744 N   0  0  0  0  0  0  0  0  0  0  0  0
   11.1370  -38.3652  -14.0030 N   0  0  0  0  0  0  0  0  0  0  0  0
   10.7395  -38.6330  -15.2607 C   0  0  0  0  0  0  0  0  0  0  0  0
    9.9219  -37.8359  -15.9719 N   0  0  0  0  0  0  0  0  0  0  0  0
    9.4408  -36.6853  -15.4422 C   0  0  0  0  0  0  0  0  0  0  0  0
    9.8304  -36.3227  -14.0708 C   0  0  0  0  0  0  0  0  0  0  0  0
   10.7341  -37.2523  -13.3528 C   0  0  0  0  0  0  0  0  0  0  0  0
   11.1421  -36.9934  -12.0861 N   0  0  0  0  0  0  0  0  0  0  0  0
    9.2236  -35.1526  -13.7961 N   0  0  0  0  0  0  0  0  0  0  0  0
    8.5083  -34.7977  -14.8944 C   0  0  0  0  0  0  0  0  0  0  0  0
    8.6375  -35.7104  -15.8747 N   0  0  0  0  0  0  0  0  0  0  0  0
  1  3  1  6  0  0  0
  1  5  2  0  0  0  0
  1  9  1  0  0  0  0
  1 18  1  0  0  0  0
  2  4  1  1  0  0  0
  2  6  2  0  0  0  0
  2 10  1  0  0  0  0
  2 17  1  0  0  0  0
  7  9  1  0  0  0  0
  8 10  1  0  0  0  0
 11  7  1  1  0  0  0
 11 13  1  0  0  0  0
 11 15  1  0  0  0  0
 12  8  1  1  0  0  0
 12 14  1  0  0  0  0
 12 16  1  0  0  0  0
 13 21  1  0  0  0  0
 14 22  1  0  0  0  0
 15 17  1  6  0  0  0
 15 19  1  0  0  0  0
 16 18  1  6  0  0  0
 16 20  1  0  0  0  0
 19 21  1  0  0  0  0
 20 22  1  0  0  0  0
 21 32  1  1  0  0  0
 22 42  1  1  0  0  0
 23 24  2  0  0  0  0
 23 28  1  0  0  0  0
 24 25  1  0  0  0  0
 25 26  2  0  0  0  0
 26 27  1  0  0  0  0
 26 32  1  0  0  0  0
 27 28  2  0  0  0  0
 27 30  1  0  0  0  0
 28 29  1  0  0  0  0
 30 31  2  0  0  0  0
 31 32  1  0  0  0  0
 33 34  2  0  0  0  0
 33 38  1  0  0  0  0
 34 35  1  0  0  0  0
 35 36  2  0  0  0  0
 36 37  1  0  0  0  0
 36 42  1  0  0  0  0
 37 38  2  0  0  0  0
 37 40  1  0  0  0  0
 38 39  1  0  0  0  0
 40 41  2  0  0  0  0
 41 42  1  0  0  0  0
M  CHG  2   3  -1   4  -1
M  END
>  <CHROM.1>
53.18474078,-151.52979248,4.14396863,-35.97372924,-15.62274700,3.01535645
-0.01004031,2.59897672

>  <Name>
ligand

>  <RI>
0

>  <Rbt.Current_Directory>
/home/itssahil/PROJECTS/Mol_Feturizer/New_Systems/rnas/4QLN

>  <Rbt.Executable>
rbdock ($Id: //depot/dev/client3/rdock/2013.1/src/exe/rbdock.cxx#4 $)

>  <Rbt.Library>
libRbt.so (2013.1, Build901 2013/11/27)

>  <Rbt.Parameter_File>
/export/apps/rDock/src/rDock_2013.1_src/data/scripts/dock_solv.prm

>  <Rbt.Receptor>
prm/pocket_docking_8.prm

>  <SCORE>
-16.2549

>  <SCORE.INTER>
-16.0394

>  <SCORE.INTER.CONST>
1

>  <SCORE.INTER.POLAR>
0

>  <SCORE.INTER.ROT>
2

>  <SCORE.INTER.SOLV>
28.297

>  <SCORE.INTER.VDW>
-25.0586

>  <SCORE.INTER.norm>
-0.381891

>  <SCORE.INTRA>
-0.215476

>  <SCORE.INTRA.DIHEDRAL>
0.000808021

>  <SCORE.INTRA.DIHEDRAL.0>
2.39985

>  <SCORE.INTRA.POLAR>
0

>  <SCORE.INTRA.POLAR.0>
0

>  <SCORE.INTRA.REPUL>
0

>  <SCORE.INTRA.REPUL.0>
0

>  <SCORE.INTRA.SOLV>
-0.0784389

>  <SCORE.INTRA.SOLV.lig_0>
-110.958

>  <SCORE.INTRA.VDW>
-0.176661

>  <SCORE.INTRA.VDW.0>
-2.34644

>  <SCORE.INTRA.norm>
-0.00513039

>  <SCORE.RESTR>
0

>  <SCORE.RESTR.CAVITY>
0

>  <SCORE.RESTR.norm>
0

>  <SCORE.SYSTEM>
0

>  <SCORE.SYSTEM.CONST>
0

>  <SCORE.SYSTEM.DIHEDRAL>
0

>  <SCORE.SYSTEM.SOLV>
0

>  <SCORE.SYSTEM.norm>
0

>  <SCORE.heavy>
42

>  <SCORE.norm>
-0.387021

>  <RMSD>
6.823

$$$$
ligand
 OpenBabel11021811513D
libRbt.so/2013.1/901 2013/11/27
 42 48  0  0  0  0  0  0  0  0999 V2000
    3.5889  -36.5620  -18.6076 P   0  0  2  0  0  0  0  0  0  0  0  0
    3.9453  -32.9393  -15.1057 P   0  0  1  0  0  0  0  0  0  0  0  0
    2.7489  -36.3042  -19.8368 O   0  5  0  0  0  0  0  0  0  0  0  0
    4.4912  -34.1333  -14.3595 O   0  5  0  0  0  0  0  0  0  0  0  0
    4.0175  -37.9701  -18.2703 O   0  0  0  0  0  0  0  0  0  0  0  0
    4.1175  -31.5514  -14.5369 O   0  0  0  0  0  0  0  0  0  0  0  0
    1.3921  -35.9532  -17.2807 C   0  0  0  0  0  0  0  0  0  0  0  0
    5.9657  -32.8864  -16.7993 C   0  0  0  0  0  0  0  0  0  0  0  0
    2.8177  -35.9510  -17.3336 O   0  0  0  0  0  0  0  0  0  0  0  0
    4.5563  -32.9533  -16.5953 O   0  0  0  0  0  0  0  0  0  0  0  0
    0.9124  -34.7558  -16.4690 C   0  0  1  0  0  0  0  0  0  0  0  0
    6.3958  -33.9906  -17.7568 C   0  0  1  0  0  0  0  0  0  0  0  0
   -0.4017  -35.0103  -15.9652 O   0  0  0  0  0  0  0  0  0  0  0  0
    7.7808  -34.2864  -17.5611 O   0  0  0  0  0  0  0  0  0  0  0  0
    1.8234  -34.4948  -15.2814 C   0  0  1  0  0  0  0  0  0  0  0  0
    5.6091  -35.2688  -17.5143 C   0  0  1  0  0  0  0  0  0  0  0  0
    2.3751  -33.1844  -15.3674 O   0  0  0  0  0  0  0  0  0  0  0  0
    4.9062  -35.6413  -18.6960 O   0  0  0  0  0  0  0  0  0  0  0  0
    0.9571  -34.6139  -14.0413 C   0  0  0  0  0  0  0  0  0  0  0  0
    6.6243  -36.3364  -17.1549 C   0  0  0  0  0  0  0  0  0  0  0  0
   -0.4427  -34.9447  -14.5371 C   0  0  2  0  0  0  0  0  0  0  0  0
    7.9842  -35.6541  -17.1976 C   0  0  2  0  0  0  0  0  0  0  0  0
    0.4247  -40.1226  -14.4109 N   0  0  0  0  0  0  0  0  0  0  0  0
    1.0716  -39.1504  -15.0801 C   0  0  0  0  0  0  0  0  0  0  0  0
    0.7351  -37.8489  -15.0180 N   0  0  0  0  0  0  0  0  0  0  0  0
   -0.3044  -37.4352  -14.2543 C   0  0  0  0  0  0  0  0  0  0  0  0
   -1.0620  -38.4394  -13.4911 C   0  0  0  0  0  0  0  0  0  0  0  0
   -0.6314  -39.8526  -13.6114 C   0  0  0  0  0  0  0  0  0  0  0  0
   -1.2740  -40.8399  -12.9421 N   0  0  0  0  0  0  0  0  0  0  0  0
   -2.0251  -37.7717  -12.8286 N   0  0  0  0  0  0  0  0  0  0  0  0
   -1.8967  -36.4563  -13.1392 C   0  0  0  0  0  0  0  0  0  0  0  0
   -0.8710  -36.2555  -13.9888 N   0  0  0  0  0  0  0  0  0  0  0  0
   11.1200  -38.3864  -13.9924 N   0  0  0  0  0  0  0  0  0  0  0  0
   10.7271  -38.6485  -15.2527 C   0  0  0  0  0  0  0  0  0  0  0  0
    9.9105  -37.8492  -15.9626 N   0  0  0  0  0  0  0  0  0  0  0  0
    9.4258  -36.7020  -15.4288 C   0  0  0  0  0  0  0  0  0  0  0  0
    9.8104  -36.3457  -14.0543 C   0  0  0  0  0  0  0  0  0  0  0  0
   10.7133  -37.2773  -13.3380 C   0  0  0  0  0  0  0  0  0  0  0  0
   11.1167  -37.0241  -12.0687 N   0  0  0  0  0  0  0  0  0  0  0  0
    9.2008  -35.1779  -13.7758 N   0  0  0  0  0  0  0  0  0  0  0  0
    8.4885  -34.8187  -14.8746 C   0  0  0  0  0  0  0  0  0  0  0  0
    8.6223  -35.7264  -15.8591 N   0  0  0  0  0  0  0  0  0  0  0  0
  1  3  1  6  0  0  0
  1  5  2  0  0  0  0
  1  9  1  0  0  0  0
  1 18  1  0  0  0  0
  2  4  1  1  0  0  0
  2  6  2  0  0  0  0
  2 10  1  0  0  0  0
  2 17  1  0  0  0  0
  7  9  1  0  0  0  0
  8 10  1  0  0  0  0
 11  7  1  1  0  0  0
 11 13  1  0  0  0  0
 11 15  1  0  0  0  0
 12  8  1  1  0  0  0
 12 14  1  0  0  0  0
 12 16  1  0  0  0  0
 13 21  1  0  0  0  0
 14 22  1  0  0  0  0
 15 17  1  6  0  0  0
 15 19  1  0  0  0  0
 16 18  1  6  0  0  0
 16 20  1  0  0  0  0
 19 21  1  0  0  0  0
 20 22  1  0  0  0  0
 21 32  1  1  0  0  0
 22 42  1  1  0  0  0
 23 24  2  0  0  0  0
 23 28  1  0  0  0  0
 24 25  1  0  0  0  0
 25 26  2  0  0  0  0
 26 27  1  0  0  0  0
 26 32  1  0  0  0  0
 27 28  2  0  0  0  0
 27 30  1  0  0  0  0
 28 29  1  0  0  0  0
 30 31  2  0  0  0  0
 31 32  1  0  0  0  0
 33 34  2  0  0  0  0
 33 38  1  0  0  0  0
 34 35  1  0  0  0  0
 35 36  2  0  0  0  0
 36 37  1  0  0  0  0
 36 42  1  0  0  0  0
 37 38  2  0  0  0  0
 37 40  1  0  0  0  0
 38 39  1  0  0  0  0
 40 41  2  0  0  0  0
 41 42  1  0  0  0  0
M  CHG  2   3  -1   4  -1
M  END
>  <CHROM.1>
54.10698037,-151.24461383,4.13067815,-35.97638237,-15.61877293,3.01941804
-0.00958860,2.59785435

>  <Name>
ligand

>  <RI>
0

>  <Rbt.Current_Directory>
/home/itssahil/PROJECTS/Mol_Feturizer/New_Systems/rnas/4QLN

>  <Rbt.Executable>
rbdock ($Id: //depot/dev/client3/rdock/2013.1/src/exe/rbdock.cxx#4 $)

>  <Rbt.Library>
libRbt.so (2013.1, Build901 2013/11/27)

>  <Rbt.Parameter_File>
/export/apps/rDock/src/rDock_2013.1_src/data/scripts/dock_solv.prm

>  <Rbt.Receptor>
prm/pocket_docking_8.prm

>  <SCORE>
-16.2576

>  <SCORE.INTER>
-16.0352

>  <SCORE.INTER.CONST>
1

>  <SCORE.INTER.POLAR>
0

>  <SCORE.INTER.ROT>
2

>  <SCORE.INTER.SOLV>
28.4183

>  <SCORE.INTER.VDW>
-25.0962

>  <SCORE.INTER.norm>
-0.38179

>  <SCORE.INTRA>
-0.222414

>  <SCORE.INTRA.DIHEDRAL>
0.000820781

>  <SCORE.INTRA.DIHEDRAL.0>
2.39985

>  <SCORE.INTRA.POLAR>
0

>  <SCORE.INTRA.POLAR.0>
0

>  <SCORE.INTRA.REPUL>
0

>  <SCORE.INTRA.REPUL.0>
0

>  <SCORE.INTRA.SOLV>
-0.0781305

>  <SCORE.INTRA.SOLV.lig_0>
-110.958

>  <SCORE.INTRA.VDW>
-0.183759

>  <SCORE.INTRA.VDW.0>
-2.34644

>  <SCORE.INTRA.norm>
-0.00529557

>  <SCORE.RESTR>
0

>  <SCORE.RESTR.CAVITY>
0

>  <SCORE.RESTR.norm>
0

>  <SCORE.SYSTEM>
0

>  <SCORE.SYSTEM.CONST>
0

>  <SCORE.SYSTEM.DIHEDRAL>
0

>  <SCORE.SYSTEM.SOLV>
0

>  <SCORE.SYSTEM.norm>
0

>  <SCORE.heavy>
42

>  <SCORE.norm>
-0.387085

>  <RMSD>
6.830

$$$$
ligand
 OpenBabel11021811513D
libRbt.so/2013.1/901 2013/11/27
 42 48  0  0  0  0  0  0  0  0999 V2000
    3.5876  -36.5556  -18.6047 P   0  0  2  0  0  0  0  0  0  0  0  0
    3.9494  -32.9477  -15.0881 P   0  0  1  0  0  0  0  0  0  0  0  0
    2.7442  -36.2933  -19.8306 O   0  5  0  0  0  0  0  0  0  0  0  0
    4.4985  -34.1443  -14.3484 O   0  5  0  0  0  0  0  0  0  0  0  0
    4.0185  -37.9646  -18.2746 O   0  0  0  0  0  0  0  0  0  0  0  0
    4.1218  -31.5620  -14.5137 O   0  0  0  0  0  0  0  0  0  0  0  0
    1.3936  -35.9547  -17.2695 C   0  0  0  0  0  0  0  0  0  0  0  0
    5.9654  -32.8854  -16.7867 C   0  0  0  0  0  0  0  0  0  0  0  0
    2.8191  -35.9508  -17.3261 O   0  0  0  0  0  0  0  0  0  0  0  0
    4.5566  -32.9546  -16.5793 O   0  0  0  0  0  0  0  0  0  0  0  0
    0.9149  -34.7613  -16.4514 C   0  0  1  0  0  0  0  0  0  0  0  0
    6.3942  -33.9850  -17.7500 C   0  0  1  0  0  0  0  0  0  0  0  0
   -0.3977  -35.0192  -15.9453 O   0  0  0  0  0  0  0  0  0  0  0  0
    7.7799  -34.2803  -17.5592 O   0  0  0  0  0  0  0  0  0  0  0  0
    1.8287  -34.5045  -15.2651 C   0  0  1  0  0  0  0  0  0  0  0  0
    5.6093  -35.2651  -17.5110 C   0  0  1  0  0  0  0  0  0  0  0  0
    2.3788  -33.1932  -15.3468 O   0  0  0  0  0  0  0  0  0  0  0  0
    4.9037  -35.6331  -18.6925 O   0  0  0  0  0  0  0  0  0  0  0  0
    0.9657  -34.6298  -14.0233 C   0  0  0  0  0  0  0  0  0  0  0  0
    6.6266  -36.3332  -17.1589 C   0  0  0  0  0  0  0  0  0  0  0  0
   -0.4351  -34.9599  -14.5169 C   0  0  2  0  0  0  0  0  0  0  0  0
    7.9857  -35.6493  -17.2022 C   0  0  2  0  0  0  0  0  0  0  0  0
    0.4380  -40.1373  -14.4150 N   0  0  0  0  0  0  0  0  0  0  0  0
    1.0822  -39.1617  -15.0816 C   0  0  0  0  0  0  0  0  0  0  0  0
    0.7445  -37.8607  -15.0132 N   0  0  0  0  0  0  0  0  0  0  0  0
   -0.2935  -37.4514  -14.2451 C   0  0  0  0  0  0  0  0  0  0  0  0
   -1.0482  -38.4596  -13.4844 C   0  0  0  0  0  0  0  0  0  0  0  0
   -0.6164  -39.8719  -13.6118 C   0  0  0  0  0  0  0  0  0  0  0  0
   -1.2563  -40.8627  -12.9451 N   0  0  0  0  0  0  0  0  0  0  0  0
   -2.0103  -37.7958  -12.8165 N   0  0  0  0  0  0  0  0  0  0  0  0
   -1.8841  -36.4790  -13.1219 C   0  0  0  0  0  0  0  0  0  0  0  0
   -0.8606  -36.2735  -13.9731 N   0  0  0  0  0  0  0  0  0  0  0  0
   11.0878  -38.4199  -13.9971 N   0  0  0  0  0  0  0  0  0  0  0  0
   10.6862  -38.6805  -15.2549 C   0  0  0  0  0  0  0  0  0  0  0  0
    9.8802  -37.8708  -15.9651 N   0  0  0  0  0  0  0  0  0  0  0  0
    9.4162  -36.7137  -15.4342 C   0  0  0  0  0  0  0  0  0  0  0  0
    9.8115  -36.3583  -14.0626 C   0  0  0  0  0  0  0  0  0  0  0  0
   10.7016  -37.3017  -13.3457 C   0  0  0  0  0  0  0  0  0  0  0  0
   11.1137  -37.0501  -12.0789 N   0  0  0  0  0  0  0  0  0  0  0  0
    9.2221  -35.1796  -13.7865 N   0  0  0  0  0  0  0  0  0  0  0  0
    8.5118  -34.8131  -14.8843 C   0  0  0  0  0  0  0  0  0  0  0  0
    8.6272  -35.7267  -15.8656 N   0  0  0  0  0  0  0  0  0  0  0  0
  1  3  1  6  0  0  0
  1  5  2  0  0  0  0
  1  9  1  0  0  0  0
  1 18  1  0  0  0  0
  2  4  1  1  0  0  0
  2  6  2  0  0  0  0
  2 10  1  0  0  0  0
  2 17  1  0  0  0  0
  7  9  1  0  0  0  0
  8 10  1  0  0  0  0
 11  7  1  1  0  0  0
 11 13  1  0  0  0  0
 11 15  1  0  0  0  0
 12  8  1  1  0  0  0
 12 14  1  0  0  0  0
 12 16  1  0  0  0  0
 13 21  1  0  0  0  0
 14 22  1  0  0  0  0
 15 17  1  6  0  0  0
 15 19  1  0  0  0  0
 16 18  1  6  0  0  0
 16 20  1  0  0  0  0
 19 21  1  0  0  0  0
 20 22  1  0  0  0  0
 21 32  1  1  0  0  0
 22 42  1  1  0  0  0
 23 24  2  0  0  0  0
 23 28  1  0  0  0  0
 24 25  1  0  0  0  0
 25 26  2  0  0  0  0
 26 27  1  0  0  0  0
 26 32  1  0  0  0  0
 27 28  2  0  0  0  0
 27 30  1  0  0  0  0
 28 29  1  0  0  0  0
 30 31  2  0  0  0  0
 31 32  1  0  0  0  0
 33 34  2  0  0  0  0
 33 38  1  0  0  0  0
 34 35  1  0  0  0  0
 35 36  2  0  0  0  0
 36 37  1  0  0  0  0
 36 42  1  0  0  0  0
 37 38  2  0  0  0  0
 37 40  1  0  0  0  0
 38 39  1  0  0  0  0
 40 41  2  0  0  0  0
 41 42  1  0  0  0  0
M  CHG  2   3  -1   4  -1
M  END
>  <CHROM.1>
54.11370432,-152.34856462,4.13286933,-35.98455494,-15.61312620,3.01734050
-0.01111405,2.60207392

>  <Name>
ligand

>  <RI>
0

>  <Rbt.Current_Directory>
/home/itssahil/PROJECTS/Mol_Feturizer/New_Systems/rnas/4QLN

>  <Rbt.Executable>
rbdock ($Id: //depot/dev/client3/rdock/2013.1/src/exe/rbdock.cxx#4 $)

>  <Rbt.Library>
libRbt.so (2013.1, Build901 2013/11/27)

>  <Rbt.Parameter_File>
/export/apps/rDock/src/rDock_2013.1_src/data/scripts/dock_solv.prm

>  <Rbt.Receptor>
prm/pocket_docking_8.prm

>  <SCORE>
-16.2773

>  <SCORE.INTER>
-16.0601

>  <SCORE.INTER.CONST>
1

>  <SCORE.INTER.POLAR>
0

>  <SCORE.INTER.ROT>
2

>  <SCORE.INTER.SOLV>
28.2772

>  <SCORE.INTER.VDW>
-25.0658

>  <SCORE.INTER.norm>
-0.382382

>  <SCORE.INTRA>
-0.217273

>  <SCORE.INTRA.DIHEDRAL>
0.000816757

>  <SCORE.INTRA.DIHEDRAL.0>
2.39985

>  <SCORE.INTRA.POLAR>
0

>  <SCORE.INTRA.POLAR.0>
0

>  <SCORE.INTRA.REPUL>
0

>  <SCORE.INTRA.REPUL.0>
0

>  <SCORE.INTRA.SOLV>
-0.0815944

>  <SCORE.INTRA.SOLV.lig_0>
-110.958

>  <SCORE.INTRA.VDW>
-0.176884

>  <SCORE.INTRA.VDW.0>
-2.34644

>  <SCORE.INTRA.norm>
-0.00517316

>  <SCORE.RESTR>
0

>  <SCORE.RESTR.CAVITY>
0

>  <SCORE.RESTR.norm>
0

>  <SCORE.SYSTEM>
0

>  <SCORE.SYSTEM.CONST>
0

>  <SCORE.SYSTEM.DIHEDRAL>
0

>  <SCORE.SYSTEM.SOLV>
0

>  <SCORE.SYSTEM.norm>
0

>  <SCORE.heavy>
42

>  <SCORE.norm>
-0.387555

>  <RMSD>
6.835

$$$$
ligand
 OpenBabel11021811513D
libRbt.so/2013.1/901 2013/11/27
 42 48  0  0  0  0  0  0  0  0999 V2000
    4.3450  -36.0431  -17.6313 P   0  0  2  0  0  0  0  0  0  0  0  0
    5.9357  -32.3164  -14.6154 P   0  0  1  0  0  0  0  0  0  0  0  0
    3.3443  -35.7221  -18.7170 O   0  5  0  0  0  0  0  0  0  0  0  0
    6.4083  -33.5360  -13.8608 O   0  5  0  0  0  0  0  0  0  0  0  0
    4.5927  -37.4792  -17.2364 O   0  0  0  0  0  0  0  0  0  0  0  0
    6.4357  -30.9467  -14.2237 O   0  0  0  0  0  0  0  0  0  0  0  0
    2.5638  -34.9642  -16.0125 C   0  0  0  0  0  0  0  0  0  0  0  0
    7.5860  -32.7387  -16.6283 C   0  0  0  0  0  0  0  0  0  0  0  0
    3.9353  -35.2203  -16.3099 O   0  0  0  0  0  0  0  0  0  0  0  0
    6.2477  -32.5389  -16.1793 O   0  0  0  0  0  0  0  0  0  0  0  0
    2.4463  -33.6488  -15.2518 C   0  0  1  0  0  0  0  0  0  0  0  0
    7.6435  -33.9635  -17.5325 C   0  0  1  0  0  0  0  0  0  0  0  0
    1.2255  -33.6301  -14.5070 O   0  0  0  0  0  0  0  0  0  0  0  0
    8.9733  -34.4882  -17.5500 O   0  0  0  0  0  0  0  0  0  0  0  0
    3.5929  -33.4760  -14.2701 C   0  0  1  0  0  0  0  0  0  0  0  0
    6.7174  -35.0615  -17.0341 C   0  0  1  0  0  0  0  0  0  0  0  0
    4.3258  -32.2940  -14.5778 O   0  0  0  0  0  0  0  0  0  0  0  0
    5.7553  -35.3805  -18.0349 O   0  0  0  0  0  0  0  0  0  0  0  0
    2.9654  -33.3552  -12.8939 C   0  0  0  0  0  0  0  0  0  0  0  0
    7.5933  -36.2668  -16.7518 C   0  0  0  0  0  0  0  0  0  0  0  0
    1.4627  -33.4629  -13.1066 C   0  0  2  0  0  0  0  0  0  0  0  0
    9.0143  -35.8428  -17.0946 C   0  0  2  0  0  0  0  0  0  0  0  0
    1.2677  -38.7012  -12.7893 N   0  0  0  0  0  0  0  0  0  0  0  0
    1.9014  -37.9084  -13.6731 C   0  0  0  0  0  0  0  0  0  0  0  0
    1.8629  -36.5638  -13.6329 N   0  0  0  0  0  0  0  0  0  0  0  0
    1.1632  -35.9168  -12.6703 C   0  0  0  0  0  0  0  0  0  0  0  0
    0.4428  -36.7147  -11.6657 C   0  0  0  0  0  0  0  0  0  0  0  0
    0.5324  -38.1900  -11.7766 C   0  0  0  0  0  0  0  0  0  0  0  0
   -0.1003  -38.9986  -10.8926 N   0  0  0  0  0  0  0  0  0  0  0  0
   -0.1598  -35.8387  -10.8399 N   0  0  0  0  0  0  0  0  0  0  0  0
    0.1468  -34.5902  -11.2760 C   0  0  0  0  0  0  0  0  0  0  0  0
    0.9355  -34.6365  -12.3669 N   0  0  0  0  0  0  0  0  0  0  0  0
   12.4109  -38.7719  -14.3640 N   0  0  0  0  0  0  0  0  0  0  0  0
   11.7794  -39.0304  -15.5240 C   0  0  0  0  0  0  0  0  0  0  0  0
   10.9248  -38.1768  -16.1162 N   0  0  0  0  0  0  0  0  0  0  0  0
   10.6466  -36.9739  -15.5579 C   0  0  0  0  0  0  0  0  0  0  0  0
   11.2986  -36.6176  -14.2883 C   0  0  0  0  0  0  0  0  0  0  0  0
   12.2271  -37.6110  -13.6989 C   0  0  0  0  0  0  0  0  0  0  0  0
   12.8698  -37.3620  -12.5314 N   0  0  0  0  0  0  0  0  0  0  0  0
   10.8548  -35.3895  -13.9604 N   0  0  0  0  0  0  0  0  0  0  0  0
    9.9943  -34.9946  -14.9338 C   0  0  0  0  0  0  0  0  0  0  0  0
    9.8701  -35.9383  -15.8852 N   0  0  0  0  0  0  0  0  0  0  0  0
  1  3  1  6  0  0  0
  1  5  2  0  0  0  0
  1  9  1  0  0  0  0
  1 18  1  0  0  0  0
  2  4  1  1  0  0  0
  2  6  2  0  0  0  0
  2 10  1  0  0  0  0
  2 17  1  0  0  0  0
  7  9  1  0  0  0  0
  8 10  1  0  0  0  0
 11  7  1  1  0  0  0
 11 13  1  0  0  0  0
 11 15  1  0  0  0  0
 12  8  1  1  0  0  0
 12 14  1  0  0  0  0
 12 16  1  0  0  0  0
 13 21  1  0  0  0  0
 14 22  1  0  0  0  0
 15 17  1  6  0  0  0
 15 19  1  0  0  0  0
 16 18  1  6  0  0  0
 16 20  1  0  0  0  0
 19 21  1  0  0  0  0
 20 22  1  0  0  0  0
 21 32  1  1  0  0  0
 22 42  1  1  0  0  0
 23 24  2  0  0  0  0
 23 28  1  0  0  0  0
 24 25  1  0  0  0  0
 25 26  2  0  0  0  0
 26 27  1  0  0  0  0
 26 32  1  0  0  0  0
 27 28  2  0  0  0  0
 27 30  1  0  0  0  0
 28 29  1  0  0  0  0
 30 31  2  0  0  0  0
 31 32  1  0  0  0  0
 33 34  2  0  0  0  0
 33 38  1  0  0  0  0
 34 35  1  0  0  0  0
 35 36  2  0  0  0  0
 36 37  1  0  0  0  0
 36 42  1  0  0  0  0
 37 38  2  0  0  0  0
 37 40  1  0  0  0  0
 38 39  1  0  0  0  0
 40 41  2  0  0  0  0
 41 42  1  0  0  0  0
M  CHG  2   3  -1   4  -1
M  END
>  <CHROM.1>
48.82225921,-145.93291189,5.52250051,-35.35770828,-14.87743720,3.06795996
-0.25212450,2.54216367

>  <Name>
ligand

>  <RI>
0

>  <Rbt.Current_Directory>
/home/itssahil/PROJECTS/Mol_Feturizer/New_Systems/rnas/4QLN

>  <Rbt.Executable>
rbdock ($Id: //depot/dev/client3/rdock/2013.1/src/exe/rbdock.cxx#4 $)

>  <Rbt.Library>
libRbt.so (2013.1, Build901 2013/11/27)

>  <Rbt.Parameter_File>
/export/apps/rDock/src/rDock_2013.1_src/data/scripts/dock_solv.prm

>  <Rbt.Receptor>
prm/pocket_docking_6.prm

>  <SCORE>
-10.6968

>  <SCORE.INTER>
-10.5132

>  <SCORE.INTER.CONST>
1

>  <SCORE.INTER.POLAR>
0

>  <SCORE.INTER.ROT>
2

>  <SCORE.INTER.SOLV>
15.473

>  <SCORE.INTER.VDW>
-17.0998

>  <SCORE.INTER.norm>
-0.250314

>  <SCORE.INTRA>
-0.183604

>  <SCORE.INTRA.DIHEDRAL>
0.000740444

>  <SCORE.INTRA.DIHEDRAL.0>
2.39985

>  <SCORE.INTRA.POLAR>
0

>  <SCORE.INTRA.POLAR.0>
0

>  <SCORE.INTRA.REPUL>
0

>  <SCORE.INTRA.REPUL.0>
0

>  <SCORE.INTRA.SOLV>
-0.0527314

>  <SCORE.INTRA.SOLV.lig_0>
-110.958

>  <SCORE.INTRA.VDW>
-0.157608

>  <SCORE.INTRA.VDW.0>
-2.34644

>  <SCORE.INTRA.norm>
-0.00437152

>  <SCORE.RESTR>
2.56332e-05

>  <SCORE.RESTR.CAVITY>
2.56332e-05

>  <SCORE.RESTR.norm>
6.10315e-07

>  <SCORE.SYSTEM>
0

>  <SCORE.SYSTEM.CONST>
0

>  <SCORE.SYSTEM.DIHEDRAL>
0

>  <SCORE.SYSTEM.SOLV>
0

>  <SCORE.SYSTEM.norm>
0

>  <SCORE.heavy>
42

>  <SCORE.norm>
-0.254685

>  <RMSD>
6.912

$$$$
ligand
 OpenBabel11021811513D
libRbt.so/2013.1/901 2013/11/27
 42 48  0  0  0  0  0  0  0  0999 V2000
    4.7791  -36.0206  -17.5805 P   0  0  2  0  0  0  0  0  0  0  0  0
    6.6391  -32.1566  -14.9113 P   0  0  1  0  0  0  0  0  0  0  0  0
    3.7847  -35.7316  -18.6808 O   0  5  0  0  0  0  0  0  0  0  0  0
    7.0464  -33.3345  -14.0586 O   0  5  0  0  0  0  0  0  0  0  0  0
    4.9435  -37.4304  -17.0655 O   0  0  0  0  0  0  0  0  0  0  0  0
    7.2280  -30.7925  -14.6435 O   0  0  0  0  0  0  0  0  0  0  0  0
    3.0910  -34.6980  -16.0449 C   0  0  0  0  0  0  0  0  0  0  0  0
    8.2313  -32.8518  -16.8950 C   0  0  0  0  0  0  0  0  0  0  0  0
    4.4397  -35.0639  -16.3313 O   0  0  0  0  0  0  0  0  0  0  0  0
    6.9144  -32.5310  -16.4529 O   0  0  0  0  0  0  0  0  0  0  0  0
    3.0655  -33.3177  -15.3993 C   0  0  1  0  0  0  0  0  0  0  0  0
    8.2005  -34.1506  -17.6907 C   0  0  1  0  0  0  0  0  0  0  0  0
    1.8589  -33.1591  -14.6480 O   0  0  0  0  0  0  0  0  0  0  0  0
    9.4950  -34.7570  -17.6748 O   0  0  0  0  0  0  0  0  0  0  0  0
    4.2345  -33.1337  -14.4464 C   0  0  1  0  0  0  0  0  0  0  0  0
    7.2157  -35.1418  -17.0913 C   0  0  1  0  0  0  0  0  0  0  0  0
    5.0342  -32.0304  -14.8614 O   0  0  0  0  0  0  0  0  0  0  0  0
    6.2216  -35.4844  -18.0523 O   0  0  0  0  0  0  0  0  0  0  0  0
    3.6353  -32.8567  -13.0802 C   0  0  0  0  0  0  0  0  0  0  0  0
    8.0197  -36.3711  -16.7140 C   0  0  0  0  0  0  0  0  0  0  0  0
    2.1259  -32.8881  -13.2694 C   0  0  2  0  0  0  0  0  0  0  0  0
    9.4591  -36.0676  -17.1047 C   0  0  2  0  0  0  0  0  0  0  0  0
    1.8388  -38.0467  -12.3292 N   0  0  0  0  0  0  0  0  0  0  0  0
    2.5364  -37.3722  -13.2617 C   0  0  0  0  0  0  0  0  0  0  0  0
    2.5143  -36.0325  -13.3881 N   0  0  0  0  0  0  0  0  0  0  0  0
    1.7661  -35.2681  -12.5570 C   0  0  0  0  0  0  0  0  0  0  0  0
    0.9744  -35.9324  -11.5097 C   0  0  0  0  0  0  0  0  0  0  0  0
    1.0501  -37.4107  -11.4343 C   0  0  0  0  0  0  0  0  0  0  0  0
    0.3532  -38.1010  -10.4996 N   0  0  0  0  0  0  0  0  0  0  0  0
    0.3347  -34.9581  -10.8359 N   0  0  0  0  0  0  0  0  0  0  0  0
    0.6848  -33.7743  -11.4009 C   0  0  0  0  0  0  0  0  0  0  0  0
    1.5381  -33.9588  -12.4266 N   0  0  0  0  0  0  0  0  0  0  0  0
   11.0273  -38.8736  -12.9526 N   0  0  0  0  0  0  0  0  0  0  0  0
   10.1477  -39.1795  -13.9243 C   0  0  0  0  0  0  0  0  0  0  0  0
    9.8385  -38.3533  -14.9399 N   0  0  0  0  0  0  0  0  0  0  0  0
   10.4151  -37.1313  -15.0408 C   0  0  0  0  0  0  0  0  0  0  0  0
   11.3886  -36.7236  -14.0160 C   0  0  0  0  0  0  0  0  0  0  0  0
   11.6761  -37.6894  -12.9293 C   0  0  0  0  0  0  0  0  0  0  0  0
   12.5606  -37.3934  -11.9454 N   0  0  0  0  0  0  0  0  0  0  0  0
   11.8023  -35.4866  -14.3501 N   0  0  0  0  0  0  0  0  0  0  0  0
   11.1508  -35.1334  -15.4880 C   0  0  0  0  0  0  0  0  0  0  0  0
   10.3246  -36.1127  -15.8993 N   0  0  0  0  0  0  0  0  0  0  0  0
  1  3  1  6  0  0  0
  1  5  2  0  0  0  0
  1  9  1  0  0  0  0
  1 18  1  0  0  0  0
  2  4  1  1  0  0  0
  2  6  2  0  0  0  0
  2 10  1  0  0  0  0
  2 17  1  0  0  0  0
  7  9  1  0  0  0  0
  8 10  1  0  0  0  0
 11  7  1  1  0  0  0
 11 13  1  0  0  0  0
 11 15  1  0  0  0  0
 12  8  1  1  0  0  0
 12 14  1  0  0  0  0
 12 16  1  0  0  0  0
 13 21  1  0  0  0  0
 14 22  1  0  0  0  0
 15 17  1  6  0  0  0
 15 19  1  0  0  0  0
 16 18  1  6  0  0  0
 16 20  1  0  0  0  0
 19 21  1  0  0  0  0
 20 22  1  0  0  0  0
 21 32  1  1  0  0  0
 22 42  1  1  0  0  0
 23 24  2  0  0  0  0
 23 28  1  0  0  0  0
 24 25  1  0  0  0  0
 25 26  2  0  0  0  0
 26 27  1  0  0  0  0
 26 32  1  0  0  0  0
 27 28  2  0  0  0  0
 27 30  1  0  0  0  0
 28 29  1  0  0  0  0
 30 31  2  0  0  0  0
 31 32  1  0  0  0  0
 33 34  2  0  0  0  0
 33 38  1  0  0  0  0
 34 35  1  0  0  0  0
 35 36  2  0  0  0  0
 36 37  1  0  0  0  0
 36 42  1  0  0  0  0
 37 38  2  0  0  0  0
 37 40  1  0  0  0  0
 38 39  1  0  0  0  0
 40 41  2  0  0  0  0
 41 42  1  0  0  0  0
M  CHG  2   3  -1   4  -1
M  END
>  <CHROM.1>
54.39216592,172.35667635,5.91619564,-35.16950707,-14.79312541,3.05964152
-0.28094064,2.38271032

>  <Name>
ligand

>  <RI>
0

>  <Rbt.Current_Directory>
/home/itssahil/PROJECTS/Mol_Feturizer/New_Systems/rnas/4QLN

>  <Rbt.Executable>
rbdock ($Id: //depot/dev/client3/rdock/2013.1/src/exe/rbdock.cxx#4 $)

>  <Rbt.Library>
libRbt.so (2013.1, Build901 2013/11/27)

>  <Rbt.Parameter_File>
/export/apps/rDock/src/rDock_2013.1_src/data/scripts/dock_solv.prm

>  <Rbt.Receptor>
prm/pocket_docking_5.prm

>  <SCORE>
-8.79299

>  <SCORE.INTER>
-9.03937

>  <SCORE.INTER.CONST>
1

>  <SCORE.INTER.POLAR>
0

>  <SCORE.INTER.ROT>
2

>  <SCORE.INTER.SOLV>
15.9311

>  <SCORE.INTER.VDW>
-16.2699

>  <SCORE.INTER.norm>
-0.215223

>  <SCORE.INTRA>
0.244843

>  <SCORE.INTRA.DIHEDRAL>
-0.000219963

>  <SCORE.INTRA.DIHEDRAL.0>
2.39985

>  <SCORE.INTRA.POLAR>
0

>  <SCORE.INTRA.POLAR.0>
0

>  <SCORE.INTRA.REPUL>
0

>  <SCORE.INTRA.REPUL.0>
0

>  <SCORE.INTRA.SOLV>
-0.0889117

>  <SCORE.INTRA.SOLV.lig_0>
-110.958

>  <SCORE.INTRA.VDW>
0.289408

>  <SCORE.INTRA.VDW.0>
-2.34644

>  <SCORE.INTRA.norm>
0.00582958

>  <SCORE.RESTR>
0.00153759

>  <SCORE.RESTR.CAVITY>
0.00153759

>  <SCORE.RESTR.norm>
3.66094e-05

>  <SCORE.SYSTEM>
0

>  <SCORE.SYSTEM.CONST>
0

>  <SCORE.SYSTEM.DIHEDRAL>
0

>  <SCORE.SYSTEM.SOLV>
0

>  <SCORE.SYSTEM.norm>
0

>  <SCORE.heavy>
42

>  <SCORE.norm>
-0.209357

>  <RMSD>
6.918

$$$$
ligand
 OpenBabel11021811513D
libRbt.so/2013.1/901 2013/11/27
 42 48  0  0  0  0  0  0  0  0999 V2000
    4.3483  -36.0689  -17.6151 P   0  0  2  0  0  0  0  0  0  0  0  0
    5.9358  -32.3304  -14.6120 P   0  0  1  0  0  0  0  0  0  0  0  0
    3.3508  -35.7516  -18.7047 O   0  5  0  0  0  0  0  0  0  0  0  0
    6.4052  -33.5472  -13.8507 O   0  5  0  0  0  0  0  0  0  0  0  0
    4.5934  -37.5035  -17.2131 O   0  0  0  0  0  0  0  0  0  0  0  0
    6.4365  -30.9596  -14.2252 O   0  0  0  0  0  0  0  0  0  0  0  0
    2.5644  -34.9807  -16.0057 C   0  0  0  0  0  0  0  0  0  0  0  0
    7.5907  -32.7637  -16.6188 C   0  0  0  0  0  0  0  0  0  0  0  0
    3.9363  -35.2397  -16.2984 O   0  0  0  0  0  0  0  0  0  0  0  0
    6.2515  -32.5604  -16.1741 O   0  0  0  0  0  0  0  0  0  0  0  0
    2.4465  -33.6617  -15.2512 C   0  0  1  0  0  0  0  0  0  0  0  0
    7.6491  -33.9927  -17.5174 C   0  0  1  0  0  0  0  0  0  0  0  0
    1.2239  -33.6383  -14.5095 O   0  0  0  0  0  0  0  0  0  0  0  0
    8.9782  -34.5189  -17.5291 O   0  0  0  0  0  0  0  0  0  0  0  0
    3.5908  -33.4858  -14.2674 C   0  0  1  0  0  0  0  0  0  0  0  0
    6.7204  -35.0873  -17.0163 C   0  0  1  0  0  0  0  0  0  0  0  0
    4.3258  -32.3060  -14.5786 O   0  0  0  0  0  0  0  0  0  0  0  0
    5.7604  -35.4097  -18.0181 O   0  0  0  0  0  0  0  0  0  0  0  0
    2.9600  -33.3580  -12.8933 C   0  0  0  0  0  0  0  0  0  0  0  0
    7.5942  -36.2924  -16.7264 C   0  0  0  0  0  0  0  0  0  0  0  0
    1.4577  -33.4651  -13.1093 C   0  0  2  0  0  0  0  0  0  0  0  0
    9.0166  -35.8715  -17.0675 C   0  0  2  0  0  0  0  0  0  0  0  0
    1.3255  -38.7002  -12.7171 N   0  0  0  0  0  0  0  0  0  0  0  0
    1.9712  -37.9120  -13.5962 C   0  0  0  0  0  0  0  0  0  0  0  0
    1.9135  -36.5676  -13.5776 N   0  0  0  0  0  0  0  0  0  0  0  0
    1.1802  -35.9161  -12.6434 C   0  0  0  0  0  0  0  0  0  0  0  0
    0.4446  -36.7088  -11.6458 C   0  0  0  0  0  0  0  0  0  0  0  0
    0.5571  -38.1843  -11.7317 C   0  0  0  0  0  0  0  0  0  0  0  0
   -0.0875  -38.9883  -10.8521 N   0  0  0  0  0  0  0  0  0  0  0  0
   -0.1911  -35.8291  -10.8493 N   0  0  0  0  0  0  0  0  0  0  0  0
    0.1098  -34.5830  -11.2964 C   0  0  0  0  0  0  0  0  0  0  0  0
    0.9274  -34.6347  -12.3656 N   0  0  0  0  0  0  0  0  0  0  0  0
   12.2227  -38.8784  -14.1948 N   0  0  0  0  0  0  0  0  0  0  0  0
   11.5705  -39.1526  -15.3398 C   0  0  0  0  0  0  0  0  0  0  0  0
   10.7719  -38.2751  -15.9737 N   0  0  0  0  0  0  0  0  0  0  0  0
   10.5766  -37.0297  -15.4769 C   0  0  0  0  0  0  0  0  0  0  0  0
   11.2562  -36.6539  -14.2275 C   0  0  0  0  0  0  0  0  0  0  0  0
   12.1192  -37.6758  -13.5893 C   0  0  0  0  0  0  0  0  0  0  0  0
   12.7818  -37.4115  -12.4364 N   0  0  0  0  0  0  0  0  0  0  0  0
   10.8963  -35.3839  -13.9618 N   0  0  0  0  0  0  0  0  0  0  0  0
   10.0598  -34.9824  -14.9533 C   0  0  0  0  0  0  0  0  0  0  0  0
    9.8693  -35.9625  -15.8556 N   0  0  0  0  0  0  0  0  0  0  0  0
  1  3  1  6  0  0  0
  1  5  2  0  0  0  0
  1  9  1  0  0  0  0
  1 18  1  0  0  0  0
  2  4  1  1  0  0  0
  2  6  2  0  0  0  0
  2 10  1  0  0  0  0
  2 17  1  0  0  0  0
  7  9  1  0  0  0  0
  8 10  1  0  0  0  0
 11  7  1  1  0  0  0
 11 13  1  0  0  0  0
 11 15  1  0  0  0  0
 12  8  1  1  0  0  0
 12 14  1  0  0  0  0
 12 16  1  0  0  0  0
 13 21  1  0  0  0  0
 14 22  1  0  0  0  0
 15 17  1  6  0  0  0
 15 19  1  0  0  0  0
 16 18  1  6  0  0  0
 16 20  1  0  0  0  0
 19 21  1  0  0  0  0
 20 22  1  0  0  0  0
 21 32  1  1  0  0  0
 22 42  1  1  0  0  0
 23 24  2  0  0  0  0
 23 28  1  0  0  0  0
 24 25  1  0  0  0  0
 25 26  2  0  0  0  0
 26 27  1  0  0  0  0
 26 32  1  0  0  0  0
 27 28  2  0  0  0  0
 27 30  1  0  0  0  0
 28 29  1  0  0  0  0
 30 31  2  0  0  0  0
 31 32  1  0  0  0  0
 33 34  2  0  0  0  0
 33 38  1  0  0  0  0
 34 35  1  0  0  0  0
 35 36  2  0  0  0  0
 36 37  1  0  0  0  0
 36 42  1  0  0  0  0
 37 38  2  0  0  0  0
 37 40  1  0  0  0  0
 38 39  1  0  0  0  0
 40 41  2  0  0  0  0
 41 42  1  0  0  0  0
M  CHG  2   3  -1   4  -1
M  END
>  <CHROM.1>
50.52829774,-150.52686388,5.51066770,-35.37942174,-14.84722270,3.07027998
-0.25185626,2.53169576

>  <Name>
ligand

>  <RI>
0

>  <Rbt.Current_Directory>
/home/itssahil/PROJECTS/Mol_Feturizer/New_Systems/rnas/4QLN

>  <Rbt.Executable>
rbdock ($Id: //depot/dev/client3/rdock/2013.1/src/exe/rbdock.cxx#4 $)

>  <Rbt.Library>
libRbt.so (2013.1, Build901 2013/11/27)

>  <Rbt.Parameter_File>
/export/apps/rDock/src/rDock_2013.1_src/data/scripts/dock_solv.prm

>  <Rbt.Receptor>
prm/pocket_docking_6.prm

>  <SCORE>
-10.7274

>  <SCORE.INTER>
-10.5341

>  <SCORE.INTER.CONST>
1

>  <SCORE.INTER.POLAR>
0

>  <SCORE.INTER.ROT>
2

>  <SCORE.INTER.SOLV>
15.311

>  <SCORE.INTER.VDW>
-17.0597

>  <SCORE.INTER.norm>
-0.250812

>  <SCORE.INTRA>
-0.193334

>  <SCORE.INTRA.DIHEDRAL>
0.000777071

>  <SCORE.INTRA.DIHEDRAL.0>
2.39985

>  <SCORE.INTRA.POLAR>
0

>  <SCORE.INTRA.POLAR.0>
0

>  <SCORE.INTRA.REPUL>
0

>  <SCORE.INTRA.REPUL.0>
0

>  <SCORE.INTRA.SOLV>
-0.0719082

>  <SCORE.INTRA.SOLV.lig_0>
-110.958

>  <SCORE.INTRA.VDW>
-0.157769

>  <SCORE.INTRA.VDW.0>
-2.34644

>  <SCORE.INTRA.norm>
-0.00460319

>  <SCORE.RESTR>
0

>  <SCORE.RESTR.CAVITY>
0

>  <SCORE.RESTR.norm>
0

>  <SCORE.SYSTEM>
0

>  <SCORE.SYSTEM.CONST>
0

>  <SCORE.SYSTEM.DIHEDRAL>
0

>  <SCORE.SYSTEM.SOLV>
0

>  <SCORE.SYSTEM.norm>
0

>  <SCORE.heavy>
42

>  <SCORE.norm>
-0.255415

>  <RMSD>
6.926

$$$$
ligand
 OpenBabel11021811513D
libRbt.so/2013.1/901 2013/11/27
 42 48  0  0  0  0  0  0  0  0999 V2000
    3.3318  -34.0768  -16.2781 P   0  0  2  0  0  0  0  0  0  0  0  0
    6.4126  -32.5624  -12.5729 P   0  0  1  0  0  0  0  0  0  0  0  0
    2.0450  -33.3190  -16.5084 O   0  5  0  0  0  0  0  0  0  0  0  0
    6.9741  -33.9276  -12.8913 O   0  5  0  0  0  0  0  0  0  0  0  0
    3.5229  -35.4412  -16.8962 O   0  0  0  0  0  0  0  0  0  0  0  0
    7.1960  -31.6092  -11.7027 O   0  0  0  0  0  0  0  0  0  0  0  0
    2.4515  -34.3301  -13.8047 C   0  0  0  0  0  0  0  0  0  0  0  0
    7.1084  -31.5663  -14.9132 C   0  0  0  0  0  0  0  0  0  0  0  0
    3.5628  -34.2057  -14.6904 O   0  0  0  0  0  0  0  0  0  0  0  0
    6.0776  -31.8187  -13.9611 O   0  0  0  0  0  0  0  0  0  0  0  0
    2.8016  -33.7045  -12.4598 C   0  0  1  0  0  0  0  0  0  0  0  0
    6.6607  -32.0439  -16.2889 C   0  0  1  0  0  0  0  0  0  0  0  0
    1.9672  -34.2582  -11.4387 O   0  0  0  0  0  0  0  0  0  0  0  0
    7.8051  -32.3021  -17.1059 O   0  0  0  0  0  0  0  0  0  0  0  0
    4.2466  -33.9836  -12.0820 C   0  0  1  0  0  0  0  0  0  0  0  0
    5.8589  -33.3320  -16.1919 C   0  0  1  0  0  0  0  0  0  0  0  0
    4.9542  -32.7583  -11.9182 O   0  0  0  0  0  0  0  0  0  0  0  0
    4.5570  -33.1391  -16.7368 O   0  0  0  0  0  0  0  0  0  0  0  0
    4.2081  -34.7414  -10.7680 C   0  0  0  0  0  0  0  0  0  0  0  0
    6.6130  -34.3692  -17.0015 C   0  0  0  0  0  0  0  0  0  0  0  0
    2.7364  -34.8885  -10.4109 C   0  0  2  0  0  0  0  0  0  0  0  0
    7.8403  -33.6591  -17.5547 C   0  0  2  0  0  0  0  0  0  0  0  0
    3.0759  -39.3273   -7.6252 N   0  0  0  0  0  0  0  0  0  0  0  0
    3.5629  -38.1000   -7.3647 C   0  0  0  0  0  0  0  0  0  0  0  0
    3.3976  -37.0417   -8.1795 N   0  0  0  0  0  0  0  0  0  0  0  0
    2.7103  -37.1591   -9.3409 C   0  0  0  0  0  0  0  0  0  0  0  0
    2.1459  -38.4705   -9.6965 C   0  0  0  0  0  0  0  0  0  0  0  0
    2.3706  -39.5877   -8.7487 C   0  0  0  0  0  0  0  0  0  0  0  0
    1.8848  -40.8274   -8.9993 N   0  0  0  0  0  0  0  0  0  0  0  0
    1.5230  -38.3124  -10.8794 N   0  0  0  0  0  0  0  0  0  0  0  0
    1.6745  -37.0150  -11.2496 C   0  0  0  0  0  0  0  0  0  0  0  0
    2.3819  -36.3274  -10.3326 N   0  0  0  0  0  0  0  0  0  0  0  0
   12.5191  -33.0207  -15.2582 N   0  0  0  0  0  0  0  0  0  0  0  0
   11.5848  -32.1110  -15.5912 C   0  0  0  0  0  0  0  0  0  0  0  0
   10.4170  -32.4210  -16.1827 N   0  0  0  0  0  0  0  0  0  0  0  0
   10.1108  -33.7062  -16.4834 C   0  0  0  0  0  0  0  0  0  0  0  0
   11.0821  -34.7596  -16.1500 C   0  0  0  0  0  0  0  0  0  0  0  0
   12.3452  -34.3380  -15.4995 C   0  0  0  0  0  0  0  0  0  0  0  0
   13.2937  -35.2449  -15.1586 N   0  0  0  0  0  0  0  0  0  0  0  0
   10.5370  -35.9244  -16.5485 N   0  0  0  0  0  0  0  0  0  0  0  0
    9.3241  -35.6417  -17.0898 C   0  0  0  0  0  0  0  0  0  0  0  0
    9.0703  -34.3207  -17.0512 N   0  0  0  0  0  0  0  0  0  0  0  0
  1  3  1  6  0  0  0
  1  5  2  0  0  0  0
  1  9  1  0  0  0  0
  1 18  1  0  0  0  0
  2  4  1  6  0  0  0
  2  6  2  0  0  0  0
  2 10  1  0  0  0  0
  2 17  1  0  0  0  0
  7  9  1  0  0  0  0
  8 10  1  0  0  0  0
 11  7  1  6  0  0  0
 11 13  1  0  0  0  0
 11 15  1  0  0  0  0
 12  8  1  1  0  0  0
 12 14  1  0  0  0  0
 12 16  1  0  0  0  0
 13 21  1  0  0  0  0
 14 22  1  0  0  0  0
 15 17  1  1  0  0  0
 15 19  1  0  0  0  0
 16 18  1  6  0  0  0
 16 20  1  0  0  0  0
 19 21  1  0  0  0  0
 20 22  1  0  0  0  0
 21 32  1  6  0  0  0
 22 42  1  1  0  0  0
 23 24  2  0  0  0  0
 23 28  1  0  0  0  0
 24 25  1  0  0  0  0
 25 26  2  0  0  0  0
 26 27  1  0  0  0  0
 26 32  1  0  0  0  0
 27 28  2  0  0  0  0
 27 30  1  0  0  0  0
 28 29  1  0  0  0  0
 30 31  2  0  0  0  0
 31 32  1  0  0  0  0
 33 34  2  0  0  0  0
 33 38  1  0  0  0  0
 34 35  1  0  0  0  0
 35 36  2  0  0  0  0
 36 37  1  0  0  0  0
 36 42  1  0  0  0  0
 37 38  2  0  0  0  0
 37 40  1  0  0  0  0
 38 39  1  0  0  0  0
 40 41  2  0  0  0  0
 41 42  1  0  0  0  0
M  CHG  2   3  -1   4  -1
M  END
>  <CHROM.1>
-166.74155785,-11.61135692,5.70504594,-34.59559816,-13.61223786,0.80274813
0.04248332,-0.98108758

>  <Name>
ligand

>  <RI>
0

>  <Rbt.Current_Directory>
/home/itssahil/PROJECTS/Mol_Feturizer/New_Systems/rnas/4QLN

>  <Rbt.Executable>
rbdock ($Id: //depot/dev/client3/rdock/2013.1/src/exe/rbdock.cxx#4 $)

>  <Rbt.Library>
libRbt.so (2013.1, Build901 2013/11/27)

>  <Rbt.Parameter_File>
/export/apps/rDock/src/rDock_2013.1_src/data/scripts/dock_solv.prm

>  <Rbt.Receptor>
prm/pocket_docking_7.prm

>  <SCORE>
-12.854

>  <SCORE.INTER>
-13.737

>  <SCORE.INTER.CONST>
1

>  <SCORE.INTER.POLAR>
0

>  <SCORE.INTER.ROT>
2

>  <SCORE.INTER.SOLV>
16.8193

>  <SCORE.INTER.VDW>
-19.6978

>  <SCORE.INTER.norm>
-0.327071

>  <SCORE.INTRA>
0.882965

>  <SCORE.INTRA.DIHEDRAL>
0.00074697

>  <SCORE.INTRA.DIHEDRAL.0>
2.39985

>  <SCORE.INTRA.POLAR>
0

>  <SCORE.INTRA.POLAR.0>
0

>  <SCORE.INTRA.REPUL>
0

>  <SCORE.INTRA.REPUL.0>
0

>  <SCORE.INTRA.SOLV>
-0.0738015

>  <SCORE.INTRA.SOLV.lig_0>
-110.958

>  <SCORE.INTRA.VDW>
0.919492

>  <SCORE.INTRA.VDW.0>
-2.34644

>  <SCORE.INTRA.norm>
0.021023

>  <SCORE.RESTR>
0

>  <SCORE.RESTR.CAVITY>
0

>  <SCORE.RESTR.norm>
0

>  <SCORE.SYSTEM>
0

>  <SCORE.SYSTEM.CONST>
0

>  <SCORE.SYSTEM.DIHEDRAL>
0

>  <SCORE.SYSTEM.SOLV>
0

>  <SCORE.SYSTEM.norm>
0

>  <SCORE.heavy>
42

>  <SCORE.norm>
-0.306048

>  <RMSD>
6.930

$$$$
ligand
 OpenBabel11021811513D
libRbt.so/2013.1/901 2013/11/27
 42 48  0  0  0  0  0  0  0  0999 V2000
    4.1842  -36.0464  -17.5924 P   0  0  2  0  0  0  0  0  0  0  0  0
    5.9303  -32.3311  -14.6493 P   0  0  1  0  0  0  0  0  0  0  0  0
    3.1793  -35.7089  -18.6691 O   0  5  0  0  0  0  0  0  0  0  0  0
    6.3752  -33.5547  -13.8843 O   0  5  0  0  0  0  0  0  0  0  0  0
    4.3927  -37.4842  -17.1811 O   0  0  0  0  0  0  0  0  0  0  0  0
    6.4777  -30.9725  -14.2830 O   0  0  0  0  0  0  0  0  0  0  0  0
    2.4594  -34.8911  -15.9653 C   0  0  0  0  0  0  0  0  0  0  0  0
    7.5392  -32.8314  -16.6777 C   0  0  0  0  0  0  0  0  0  0  0  0
    3.8182  -35.1937  -16.2772 O   0  0  0  0  0  0  0  0  0  0  0  0
    6.2139  -32.5841  -16.2140 O   0  0  0  0  0  0  0  0  0  0  0  0
    2.3930  -33.5627  -15.2213 C   0  0  1  0  0  0  0  0  0  0  0  0
    7.5466  -34.0693  -17.5657 C   0  0  1  0  0  0  0  0  0  0  0  0
    1.1836  -33.4961  -14.4608 O   0  0  0  0  0  0  0  0  0  0  0  0
    8.8591  -34.6353  -17.5934 O   0  0  0  0  0  0  0  0  0  0  0  0
    3.5577  -33.4125  -14.2572 C   0  0  1  0  0  0  0  0  0  0  0  0
    6.5938  -35.1312  -17.0401 C   0  0  1  0  0  0  0  0  0  0  0  0
    4.3225  -32.2581  -14.5908 O   0  0  0  0  0  0  0  0  0  0  0  0
    5.6087  -35.4334  -18.0236 O   0  0  0  0  0  0  0  0  0  0  0  0
    2.9529  -33.2539  -12.8746 C   0  0  0  0  0  0  0  0  0  0  0  0
    7.4357  -36.3594  -16.7528 C   0  0  0  0  0  0  0  0  0  0  0  0
    1.4449  -33.3177  -13.0660 C   0  0  2  0  0  0  0  0  0  0  0  0
    8.8644  -35.9844  -17.1200 C   0  0  2  0  0  0  0  0  0  0  0  0
   -0.6315  -38.1350  -13.3115 N   0  0  0  0  0  0  0  0  0  0  0  0
   -0.2075  -37.3217  -14.2963 C   0  0  0  0  0  0  0  0  0  0  0  0
    0.3090  -36.0972  -14.0843 N   0  0  0  0  0  0  0  0  0  0  0  0
    0.4342  -35.6033  -12.8291 C   0  0  0  0  0  0  0  0  0  0  0  0
   -0.0072  -36.4336  -11.6975 C   0  0  0  0  0  0  0  0  0  0  0  0
   -0.5659  -37.7701  -12.0115 C   0  0  0  0  0  0  0  0  0  0  0  0
   -0.9952  -38.5982  -11.0288 N   0  0  0  0  0  0  0  0  0  0  0  0
    0.2248  -35.7167  -10.5819 N   0  0  0  0  0  0  0  0  0  0  0  0
    0.7666  -34.5320  -10.9640 C   0  0  0  0  0  0  0  0  0  0  0  0
    0.8918  -34.4643  -12.3034 N   0  0  0  0  0  0  0  0  0  0  0  0
   12.3733  -38.8888  -14.5077 N   0  0  0  0  0  0  0  0  0  0  0  0
   11.7400  -39.1311  -15.6704 C   0  0  0  0  0  0  0  0  0  0  0  0
   10.8544  -38.2867  -16.2292 N   0  0  0  0  0  0  0  0  0  0  0  0
   10.5441  -37.1108  -15.6318 C   0  0  0  0  0  0  0  0  0  0  0  0
   11.1958  -36.7736  -14.3568 C   0  0  0  0  0  0  0  0  0  0  0  0
   12.1596  -37.7552  -13.8056 C   0  0  0  0  0  0  0  0  0  0  0  0
   12.8044  -37.5223  -12.6360 N   0  0  0  0  0  0  0  0  0  0  0  0
   10.7171  -35.5705  -13.9876 N   0  0  0  0  0  0  0  0  0  0  0  0
    9.8364  -35.1729  -14.9416 C   0  0  0  0  0  0  0  0  0  0  0  0
    9.7332  -36.0902  -15.9208 N   0  0  0  0  0  0  0  0  0  0  0  0
  1  3  1  6  0  0  0
  1  5  2  0  0  0  0
  1  9  1  0  0  0  0
  1 18  1  0  0  0  0
  2  4  1  1  0  0  0
  2  6  2  0  0  0  0
  2 10  1  0  0  0  0
  2 17  1  0  0  0  0
  7  9  1  0  0  0  0
  8 10  1  0  0  0  0
 11  7  1  1  0  0  0
 11 13  1  0  0  0  0
 11 15  1  0  0  0  0
 12  8  1  1  0  0  0
 12 14  1  0  0  0  0
 12 16  1  0  0  0  0
 13 21  1  0  0  0  0
 14 22  1  0  0  0  0
 15 17  1  6  0  0  0
 15 19  1  0  0  0  0
 16 18  1  6  0  0  0
 16 20  1  0  0  0  0
 19 21  1  0  0  0  0
 20 22  1  0  0  0  0
 21 32  1  1  0  0  0
 22 42  1  1  0  0  0
 23 24  2  0  0  0  0
 23 28  1  0  0  0  0
 24 25  1  0  0  0  0
 25 26  2  0  0  0  0
 26 27  1  0  0  0  0
 26 32  1  0  0  0  0
 27 28  2  0  0  0  0
 27 30  1  0  0  0  0
 28 29  1  0  0  0  0
 30 31  2  0  0  0  0
 31 32  1  0  0  0  0
 33 34  2  0  0  0  0
 33 38  1  0  0  0  0
 34 35  1  0  0  0  0
 35 36  2  0  0  0  0
 36 37  1  0  0  0  0
 36 42  1  0  0  0  0
 37 38  2  0  0  0  0
 37 40  1  0  0  0  0
 38 39  1  0  0  0  0
 40 41  2  0  0  0  0
 41 42  1  0  0  0  0
M  CHG  2   3  -1   4  -1
M  END
>  <CHROM.1>
11.11156715,-141.55099843,5.29185036,-35.32027099,-14.92566804,3.09801239
-0.24899996,2.59836424

>  <Name>
ligand

>  <RI>
0

>  <Rbt.Current_Directory>
/home/itssahil/PROJECTS/Mol_Feturizer/New_Systems/rnas/4QLN

>  <Rbt.Executable>
rbdock ($Id: //depot/dev/client3/rdock/2013.1/src/exe/rbdock.cxx#4 $)

>  <Rbt.Library>
libRbt.so (2013.1, Build901 2013/11/27)

>  <Rbt.Parameter_File>
/export/apps/rDock/src/rDock_2013.1_src/data/scripts/dock_solv.prm

>  <Rbt.Receptor>
prm/pocket_docking_6.prm

>  <SCORE>
-11.2747

>  <SCORE.INTER>
-11.5607

>  <SCORE.INTER.CONST>
1

>  <SCORE.INTER.POLAR>
0

>  <SCORE.INTER.ROT>
2

>  <SCORE.INTER.SOLV>
15.5073

>  <SCORE.INTER.VDW>
-17.8095

>  <SCORE.INTER.norm>
-0.275254

>  <SCORE.INTRA>
0.285925

>  <SCORE.INTRA.DIHEDRAL>
0.000685955

>  <SCORE.INTRA.DIHEDRAL.0>
2.39985

>  <SCORE.INTRA.POLAR>
0

>  <SCORE.INTRA.POLAR.0>
0

>  <SCORE.INTRA.REPUL>
0

>  <SCORE.INTRA.REPUL.0>
0

>  <SCORE.INTRA.SOLV>
-0.0203873

>  <SCORE.INTRA.SOLV.lig_0>
-110.958

>  <SCORE.INTRA.VDW>
0.295775

>  <SCORE.INTRA.VDW.0>
-2.34644

>  <SCORE.INTRA.norm>
0.00680773

>  <SCORE.RESTR>
0

>  <SCORE.RESTR.CAVITY>
0

>  <SCORE.RESTR.norm>
0

>  <SCORE.SYSTEM>
0

>  <SCORE.SYSTEM.CONST>
0

>  <SCORE.SYSTEM.DIHEDRAL>
0

>  <SCORE.SYSTEM.SOLV>
0

>  <SCORE.SYSTEM.norm>
0

>  <SCORE.heavy>
42

>  <SCORE.norm>
-0.268446

>  <RMSD>
6.934

$$$$
ligand
 OpenBabel11021811513D
libRbt.so/2013.1/901 2013/11/27
 42 48  0  0  0  0  0  0  0  0999 V2000
    4.2274  -35.9668  -17.5926 P   0  0  2  0  0  0  0  0  0  0  0  0
    5.8536  -32.3560  -14.4570 P   0  0  1  0  0  0  0  0  0  0  0  0
    3.2061  -35.6078  -18.6467 O   0  5  0  0  0  0  0  0  0  0  0  0
    6.3454  -33.6025  -13.7607 O   0  5  0  0  0  0  0  0  0  0  0  0
    4.4889  -37.4163  -17.2604 O   0  0  0  0  0  0  0  0  0  0  0  0
    6.3540  -31.0005  -14.0191 O   0  0  0  0  0  0  0  0  0  0  0  0
    2.4701  -34.9637  -15.9006 C   0  0  0  0  0  0  0  0  0  0  0  0
    7.4700  -32.6878  -16.5139 C   0  0  0  0  0  0  0  0  0  0  0  0
    3.8373  -35.2002  -16.2320 O   0  0  0  0  0  0  0  0  0  0  0  0
    6.1389  -32.5136  -16.0339 O   0  0  0  0  0  0  0  0  0  0  0  0
    2.3598  -33.6808  -15.0855 C   0  0  1  0  0  0  0  0  0  0  0  0
    7.5173  -33.8749  -17.4677 C   0  0  1  0  0  0  0  0  0  0  0  0
    1.1524  -33.6987  -14.3192 O   0  0  0  0  0  0  0  0  0  0  0  0
    8.8490  -34.3912  -17.5297 O   0  0  0  0  0  0  0  0  0  0  0  0
    3.5229  -33.5413  -14.1178 C   0  0  1  0  0  0  0  0  0  0  0  0
    6.6054  -34.9971  -16.9979 C   0  0  1  0  0  0  0  0  0  0  0  0
    4.2445  -32.3439  -14.3903 O   0  0  0  0  0  0  0  0  0  0  0  0
    5.6271  -35.2808  -17.9938 O   0  0  0  0  0  0  0  0  0  0  0  0
    2.9192  -33.4795  -12.7270 C   0  0  0  0  0  0  0  0  0  0  0  0
    7.4918  -36.2080  -16.7799 C   0  0  0  0  0  0  0  0  0  0  0  0
    1.4136  -33.5868  -12.9175 C   0  0  2  0  0  0  0  0  0  0  0  0
    8.9045  -35.7628  -17.1301 C   0  0  2  0  0  0  0  0  0  0  0  0
    1.3784  -38.8343  -12.7143 N   0  0  0  0  0  0  0  0  0  0  0  0
    2.0092  -38.0030  -13.5642 C   0  0  0  0  0  0  0  0  0  0  0  0
    1.9266  -36.6615  -13.4972 N   0  0  0  0  0  0  0  0  0  0  0  0
    1.1816  -36.0577  -12.5404 C   0  0  0  0  0  0  0  0  0  0  0  0
    0.4612  -36.8994  -11.5722 C   0  0  0  0  0  0  0  0  0  0  0  0
    0.6009  -38.3685  -11.7113 C   0  0  0  0  0  0  0  0  0  0  0  0
   -0.0284  -39.2155  -10.8614 N   0  0  0  0  0  0  0  0  0  0  0  0
   -0.1905  -36.0609  -10.7448 N   0  0  0  0  0  0  0  0  0  0  0  0
    0.0872  -34.7942  -11.1466 C   0  0  0  0  0  0  0  0  0  0  0  0
    0.9052  -34.7921  -12.2167 N   0  0  0  0  0  0  0  0  0  0  0  0
   12.3273  -38.8011  -14.5561 N   0  0  0  0  0  0  0  0  0  0  0  0
   11.6720  -39.0187  -15.7113 C   0  0  0  0  0  0  0  0  0  0  0  0
   10.8135  -38.1407  -16.2606 N   0  0  0  0  0  0  0  0  0  0  0  0
   10.5560  -36.9535  -15.6604 C   0  0  0  0  0  0  0  0  0  0  0  0
   11.2347  -36.6417  -14.3930 C   0  0  0  0  0  0  0  0  0  0  0  0
   12.1658  -37.6599  -13.8522 C   0  0  0  0  0  0  0  0  0  0  0  0
   12.8323  -37.4522  -12.6901 N   0  0  0  0  0  0  0  0  0  0  0  0
   10.8073  -35.4209  -14.0191 N   0  0  0  0  0  0  0  0  0  0  0  0
    9.9320  -34.9895  -14.9633 C   0  0  0  0  0  0  0  0  0  0  0  0
    9.7821  -35.9022  -15.9408 N   0  0  0  0  0  0  0  0  0  0  0  0
  1  3  1  6  0  0  0
  1  5  2  0  0  0  0
  1  9  1  0  0  0  0
  1 18  1  0  0  0  0
  2  4  1  1  0  0  0
  2  6  2  0  0  0  0
  2 10  1  0  0  0  0
  2 17  1  0  0  0  0
  7  9  1  0  0  0  0
  8 10  1  0  0  0  0
 11  7  1  1  0  0  0
 11 13  1  0  0  0  0
 11 15  1  0  0  0  0
 12  8  1  1  0  0  0
 12 14  1  0  0  0  0
 12 16  1  0  0  0  0
 13 21  1  0  0  0  0
 14 22  1  0  0  0  0
 15 17  1  6  0  0  0
 15 19  1  0  0  0  0
 16 18  1  6  0  0  0
 16 20  1  0  0  0  0
 19 21  1  0  0  0  0
 20 22  1  0  0  0  0
 21 32  1  1  0  0  0
 22 42  1  1  0  0  0
 23 24  2  0  0  0  0
 23 28  1  0  0  0  0
 24 25  1  0  0  0  0
 25 26  2  0  0  0  0
 26 27  1  0  0  0  0
 26 32  1  0  0  0  0
 27 28  2  0  0  0  0
 27 30  1  0  0  0  0
 28 29  1  0  0  0  0
 30 31  2  0  0  0  0
 31 32  1  0  0  0  0
 33 34  2  0  0  0  0
 33 38  1  0  0  0  0
 34 35  1  0  0  0  0
 35 36  2  0  0  0  0
 36 37  1  0  0  0  0
 36 42  1  0  0  0  0
 37 38  2  0  0  0  0
 37 40  1  0  0  0  0
 38 39  1  0  0  0  0
 40 41  2  0  0  0  0
 41 42  1  0  0  0  0
M  CHG  2   3  -1   4  -1
M  END
>  <CHROM.1>
51.97121258,-146.86489877,5.45799508,-35.38813136,-14.82462141,3.05080506
-0.26652360,2.56537222

>  <Name>
ligand

>  <RI>
0

>  <Rbt.Current_Directory>
/home/itssahil/PROJECTS/Mol_Feturizer/New_Systems/rnas/4QLN

>  <Rbt.Executable>
rbdock ($Id: //depot/dev/client3/rdock/2013.1/src/exe/rbdock.cxx#4 $)

>  <Rbt.Library>
libRbt.so (2013.1, Build901 2013/11/27)

>  <Rbt.Parameter_File>
/export/apps/rDock/src/rDock_2013.1_src/data/scripts/dock_solv.prm

>  <Rbt.Receptor>
prm/pocket_docking_6.prm

>  <SCORE>
-10.6408

>  <SCORE.INTER>
-10.4203

>  <SCORE.INTER.CONST>
1

>  <SCORE.INTER.POLAR>
0

>  <SCORE.INTER.ROT>
2

>  <SCORE.INTER.SOLV>
15.0135

>  <SCORE.INTER.VDW>
-16.8847

>  <SCORE.INTER.norm>
-0.248103

>  <SCORE.INTRA>
-0.220457

>  <SCORE.INTRA.DIHEDRAL>
0.000785053

>  <SCORE.INTRA.DIHEDRAL.0>
2.39985

>  <SCORE.INTRA.POLAR>
0

>  <SCORE.INTRA.POLAR.0>
0

>  <SCORE.INTRA.REPUL>
0

>  <SCORE.INTRA.REPUL.0>
0

>  <SCORE.INTRA.SOLV>
-0.0590597

>  <SCORE.INTRA.SOLV.lig_0>
-110.958

>  <SCORE.INTRA.VDW>
-0.19132

>  <SCORE.INTRA.VDW.0>
-2.34644

>  <SCORE.INTRA.norm>
-0.00524898

>  <SCORE.RESTR>
0

>  <SCORE.RESTR.CAVITY>
0

>  <SCORE.RESTR.norm>
0

>  <SCORE.SYSTEM>
0

>  <SCORE.SYSTEM.CONST>
0

>  <SCORE.SYSTEM.DIHEDRAL>
0

>  <SCORE.SYSTEM.SOLV>
0

>  <SCORE.SYSTEM.norm>
0

>  <SCORE.heavy>
42

>  <SCORE.norm>
-0.253352

>  <RMSD>
6.946

$$$$
ligand
 OpenBabel11021811513D
libRbt.so/2013.1/901 2013/11/27
 42 48  0  0  0  0  0  0  0  0999 V2000
    2.9752  -34.3172  -15.9202 P   0  0  2  0  0  0  0  0  0  0  0  0
    6.4152  -32.8876  -12.5090 P   0  0  1  0  0  0  0  0  0  0  0  0
    1.6551  -33.5839  -15.9721 O   0  5  0  0  0  0  0  0  0  0  0  0
    6.9667  -34.2223  -12.9507 O   0  5  0  0  0  0  0  0  0  0  0  0
    3.1255  -35.6475  -16.6187 O   0  0  0  0  0  0  0  0  0  0  0  0
    7.2700  -31.9536  -11.6865 O   0  0  0  0  0  0  0  0  0  0  0  0
    2.3802  -34.7024  -13.3796 C   0  0  0  0  0  0  0  0  0  0  0  0
    6.8260  -31.7713  -14.8624 C   0  0  0  0  0  0  0  0  0  0  0  0
    3.3836  -34.5100  -14.3752 O   0  0  0  0  0  0  0  0  0  0  0  0
    5.9127  -32.0924  -13.8157 O   0  0  0  0  0  0  0  0  0  0  0  0
    2.8640  -34.1278  -12.0536 C   0  0  1  0  0  0  0  0  0  0  0  0
    6.2386  -32.1993  -16.2014 C   0  0  1  0  0  0  0  0  0  0  0  0
    2.1599  -34.7478  -10.9740 O   0  0  0  0  0  0  0  0  0  0  0  0
    7.2905  -32.3911  -17.1504 O   0  0  0  0  0  0  0  0  0  0  0  0
    4.3475  -34.3854  -11.8502 C   0  0  1  0  0  0  0  0  0  0  0  0
    5.4800  -33.5110  -16.0773 C   0  0  1  0  0  0  0  0  0  0  0  0
    5.0429  -33.1504  -11.7080 O   0  0  0  0  0  0  0  0  0  0  0  0
    4.1219  -33.3284  -16.4663 O   0  0  0  0  0  0  0  0  0  0  0  0
    4.4711  -35.2013  -10.5768 C   0  0  0  0  0  0  0  0  0  0  0  0
    6.1614  -34.4913  -17.0125 C   0  0  0  0  0  0  0  0  0  0  0  0
    3.0516  -35.4024  -10.0675 C   0  0  2  0  0  0  0  0  0  0  0  0
    7.3045  -33.7255  -17.6633 C   0  0  2  0  0  0  0  0  0  0  0  0
    2.6231  -39.8756  -12.7852 N   0  0  0  0  0  0  0  0  0  0  0  0
    2.9592  -38.6390  -13.1967 C   0  0  0  0  0  0  0  0  0  0  0  0
    3.0291  -37.5723  -12.3791 N   0  0  0  0  0  0  0  0  0  0  0  0
    2.7573  -37.6905  -11.0574 C   0  0  0  0  0  0  0  0  0  0  0  0
    2.3822  -39.0119  -10.5301 C   0  0  0  0  0  0  0  0  0  0  0  0
    2.3263  -40.1377  -11.4927 C   0  0  0  0  0  0  0  0  0  0  0  0
    1.9901  -41.3870  -11.0905 N   0  0  0  0  0  0  0  0  0  0  0  0
    2.1688  -38.8522   -9.2105 N   0  0  0  0  0  0  0  0  0  0  0  0
    2.3874  -37.5448   -8.9175 C   0  0  0  0  0  0  0  0  0  0  0  0
    2.7384  -36.8522  -10.0181 N   0  0  0  0  0  0  0  0  0  0  0  0
    9.7049  -37.5716  -15.0142 N   0  0  0  0  0  0  0  0  0  0  0  0
    8.3991  -37.2544  -15.0901 C   0  0  0  0  0  0  0  0  0  0  0  0
    7.9201  -36.2290  -15.8171 N   0  0  0  0  0  0  0  0  0  0  0  0
    8.7538  -35.4369  -16.5337 C   0  0  0  0  0  0  0  0  0  0  0  0
   10.1970  -35.7202  -16.5020 C   0  0  0  0  0  0  0  0  0  0  0  0
   10.6465  -36.8671  -15.6781 C   0  0  0  0  0  0  0  0  0  0  0  0
   11.9588  -37.1971  -15.5942 N   0  0  0  0  0  0  0  0  0  0  0  0
   10.7862  -34.7990  -17.2875 N   0  0  0  0  0  0  0  0  0  0  0  0
    9.8069  -33.9966  -17.7784 C   0  0  0  0  0  0  0  0  0  0  0  0
    8.5964  -34.3763  -17.3294 N   0  0  0  0  0  0  0  0  0  0  0  0
  1  3  1  6  0  0  0
  1  5  2  0  0  0  0
  1  9  1  0  0  0  0
  1 18  1  0  0  0  0
  2  4  1  6  0  0  0
  2  6  2  0  0  0  0
  2 10  1  0  0  0  0
  2 17  1  0  0  0  0
  7  9  1  0  0  0  0
  8 10  1  0  0  0  0
 11  7  1  6  0  0  0
 11 13  1  0  0  0  0
 11 15  1  0  0  0  0
 12  8  1  1  0  0  0
 12 14  1  0  0  0  0
 12 16  1  0  0  0  0
 13 21  1  0  0  0  0
 14 22  1  0  0  0  0
 15 17  1  1  0  0  0
 15 19  1  0  0  0  0
 16 18  1  6  0  0  0
 16 20  1  0  0  0  0
 19 21  1  0  0  0  0
 20 22  1  0  0  0  0
 21 32  1  6  0  0  0
 22 42  1  1  0  0  0
 23 24  2  0  0  0  0
 23 28  1  0  0  0  0
 24 25  1  0  0  0  0
 25 26  2  0  0  0  0
 26 27  1  0  0  0  0
 26 32  1  0  0  0  0
 27 28  2  0  0  0  0
 27 30  1  0  0  0  0
 28 29  1  0  0  0  0
 30 31  2  0  0  0  0
 31 32  1  0  0  0  0
 33 34  2  0  0  0  0
 33 38  1  0  0  0  0
 34 35  1  0  0  0  0
 35 36  2  0  0  0  0
 36 37  1  0  0  0  0
 36 42  1  0  0  0  0
 37 38  2  0  0  0  0
 37 40  1  0  0  0  0
 38 39  1  0  0  0  0
 40 41  2  0  0  0  0
 41 42  1  0  0  0  0
M  CHG  2   3  -1   4  -1
M  END
>  <CHROM.1>
58.96377363,115.74452142,5.33947048,-35.25489132,-13.91871504,2.51879671
-0.52390478,2.71963368

>  <Name>
ligand

>  <RI>
0

>  <Rbt.Current_Directory>
/home/itssahil/PROJECTS/Mol_Feturizer/New_Systems/rnas/4QLN

>  <Rbt.Executable>
rbdock ($Id: //depot/dev/client3/rdock/2013.1/src/exe/rbdock.cxx#4 $)

>  <Rbt.Library>
libRbt.so (2013.1, Build901 2013/11/27)

>  <Rbt.Parameter_File>
/export/apps/rDock/src/rDock_2013.1_src/data/scripts/dock_solv.prm

>  <Rbt.Receptor>
prm/pocket_docking_7.prm

>  <SCORE>
-11.462

>  <SCORE.INTER>
-12.9645

>  <SCORE.INTER.CONST>
1

>  <SCORE.INTER.POLAR>
0

>  <SCORE.INTER.ROT>
2

>  <SCORE.INTER.SOLV>
14.9494

>  <SCORE.INTER.VDW>
-18.5595

>  <SCORE.INTER.norm>
-0.308678

>  <SCORE.INTRA>
1.50247

>  <SCORE.INTRA.DIHEDRAL>
0.000301922

>  <SCORE.INTRA.DIHEDRAL.0>
2.39985

>  <SCORE.INTRA.POLAR>
0

>  <SCORE.INTRA.POLAR.0>
0

>  <SCORE.INTRA.REPUL>
0

>  <SCORE.INTRA.REPUL.0>
0

>  <SCORE.INTRA.SOLV>
0.0718025

>  <SCORE.INTRA.SOLV.lig_0>
-110.958

>  <SCORE.INTRA.VDW>
1.46642

>  <SCORE.INTRA.VDW.0>
-2.34644

>  <SCORE.INTRA.norm>
0.0357731

>  <SCORE.RESTR>
0

>  <SCORE.RESTR.CAVITY>
0

>  <SCORE.RESTR.norm>
0

>  <SCORE.SYSTEM>
0

>  <SCORE.SYSTEM.CONST>
0

>  <SCORE.SYSTEM.DIHEDRAL>
0

>  <SCORE.SYSTEM.SOLV>
0

>  <SCORE.SYSTEM.norm>
0

>  <SCORE.heavy>
42

>  <SCORE.norm>
-0.272905

>  <RMSD>
6.963

$$$$
ligand
 OpenBabel11021811513D
libRbt.so/2013.1/901 2013/11/27
 42 48  0  0  0  0  0  0  0  0999 V2000
    3.2890  -35.5766  -17.5448 P   0  0  2  0  0  0  0  0  0  0  0  0
    4.9911  -32.3570  -14.0447 P   0  0  1  0  0  0  0  0  0  0  0  0
    2.2104  -35.1125  -18.4957 O   0  5  0  0  0  0  0  0  0  0  0  0
    5.5419  -33.6690  -13.5392 O   0  5  0  0  0  0  0  0  0  0  0  0
    3.5963  -37.0494  -17.4158 O   0  0  0  0  0  0  0  0  0  0  0  0
    5.4841  -31.0562  -13.4579 O   0  0  0  0  0  0  0  0  0  0  0  0
    1.5959  -34.8471  -15.6585 C   0  0  0  0  0  0  0  0  0  0  0  0
    6.5118  -32.3780  -16.1989 C   0  0  0  0  0  0  0  0  0  0  0  0
    2.9499  -35.0022  -16.0799 O   0  0  0  0  0  0  0  0  0  0  0  0
    5.2024  -32.3027  -15.6400 O   0  0  0  0  0  0  0  0  0  0  0  0
    1.4990  -33.6830  -14.6796 C   0  0  1  0  0  0  0  0  0  0  0  0
    6.5371  -33.4308  -17.2998 C   0  0  1  0  0  0  0  0  0  0  0  0
    0.3309  -33.8318  -13.8678 O   0  0  0  0  0  0  0  0  0  0  0  0
    7.8746  -33.8990  -17.4890 O   0  0  0  0  0  0  0  0  0  0  0  0
    2.7047  -33.6381  -13.7561 C   0  0  1  0  0  0  0  0  0  0  0  0
    5.6726  -34.6281  -16.9385 C   0  0  1  0  0  0  0  0  0  0  0  0
    3.3873  -32.3967  -13.9036 O   0  0  0  0  0  0  0  0  0  0  0  0
    4.6531  -34.8075  -17.9170 O   0  0  0  0  0  0  0  0  0  0  0  0
    2.1684  -33.7719  -12.3430 C   0  0  0  0  0  0  0  0  0  0  0  0
    6.5934  -35.8329  -16.9201 C   0  0  0  0  0  0  0  0  0  0  0  0
    0.6578  -33.8942  -12.4769 C   0  0  2  0  0  0  0  0  0  0  0  0
    7.9779  -35.3086  -17.2737 C   0  0  2  0  0  0  0  0  0  0  0  0
   -0.5076  -38.9165  -13.4750 N   0  0  0  0  0  0  0  0  0  0  0  0
   -0.0970  -37.9396  -14.3046 C   0  0  0  0  0  0  0  0  0  0  0  0
    0.1675  -36.6819  -13.9054 N   0  0  0  0  0  0  0  0  0  0  0  0
    0.0310  -36.3215  -12.6068 C   0  0  0  0  0  0  0  0  0  0  0  0
   -0.4140  -37.3345  -11.6371 C   0  0  0  0  0  0  0  0  0  0  0  0
   -0.6863  -38.6971  -12.1531 C   0  0  0  0  0  0  0  0  0  0  0  0
   -1.0993  -39.6890  -11.3278 N   0  0  0  0  0  0  0  0  0  0  0  0
   -0.4653  -36.7227  -10.4390 N   0  0  0  0  0  0  0  0  0  0  0  0
   -0.0870  -35.4320  -10.6239 C   0  0  0  0  0  0  0  0  0  0  0  0
    0.2092  -35.1927  -11.9159 N   0  0  0  0  0  0  0  0  0  0  0  0
   11.7253  -38.4544  -15.3676 N   0  0  0  0  0  0  0  0  0  0  0  0
   11.0373  -38.5255  -16.5222 C   0  0  0  0  0  0  0  0  0  0  0  0
   10.0931  -37.6388  -16.8854 N   0  0  0  0  0  0  0  0  0  0  0  0
    9.7758  -36.5945  -16.0825 C   0  0  0  0  0  0  0  0  0  0  0  0
   10.4851  -36.4480  -14.8020 C   0  0  0  0  0  0  0  0  0  0  0  0
   11.5116  -37.4652  -14.4734 C   0  0  0  0  0  0  0  0  0  0  0  0
   12.2118  -37.4041  -13.3141 N   0  0  0  0  0  0  0  0  0  0  0  0
    9.9861  -35.3461  -14.2108 N   0  0  0  0  0  0  0  0  0  0  0  0
    9.0405  -34.8328  -15.0392 C   0  0  0  0  0  0  0  0  0  0  0  0
    8.9151  -35.5763  -16.1538 N   0  0  0  0  0  0  0  0  0  0  0  0
  1  3  1  6  0  0  0
  1  5  2  0  0  0  0
  1  9  1  0  0  0  0
  1 18  1  0  0  0  0
  2  4  1  1  0  0  0
  2  6  2  0  0  0  0
  2 10  1  0  0  0  0
  2 17  1  0  0  0  0
  7  9  1  0  0  0  0
  8 10  1  0  0  0  0
 11  7  1  6  0  0  0
 11 13  1  0  0  0  0
 11 15  1  0  0  0  0
 12  8  1  1  0  0  0
 12 14  1  0  0  0  0
 12 16  1  0  0  0  0
 13 21  1  0  0  0  0
 14 22  1  0  0  0  0
 15 17  1  1  0  0  0
 15 19  1  0  0  0  0
 16 18  1  6  0  0  0
 16 20  1  0  0  0  0
 19 21  1  0  0  0  0
 20 22  1  0  0  0  0
 21 32  1  6  0  0  0
 22 42  1  1  0  0  0
 23 24  2  0  0  0  0
 23 28  1  0  0  0  0
 24 25  1  0  0  0  0
 25 26  2  0  0  0  0
 26 27  1  0  0  0  0
 26 32  1  0  0  0  0
 27 28  2  0  0  0  0
 27 30  1  0  0  0  0
 28 29  1  0  0  0  0
 30 31  2  0  0  0  0
 31 32  1  0  0  0  0
 33 34  2  0  0  0  0
 33 38  1  0  0  0  0
 34 35  1  0  0  0  0
 35 36  2  0  0  0  0
 36 37  1  0  0  0  0
 36 42  1  0  0  0  0
 37 38  2  0  0  0  0
 37 40  1  0  0  0  0
 38 39  1  0  0  0  0
 40 41  2  0  0  0  0
 41 42  1  0  0  0  0
M  CHG  2   3  -1   4  -1
M  END
>  <CHROM.1>
24.79933250,-142.94161126,4.54982319,-35.30048356,-14.83459782,3.02285991
-0.27720132,2.76545524

>  <Name>
ligand

>  <RI>
0

>  <Rbt.Current_Directory>
/home/itssahil/PROJECTS/Mol_Feturizer/New_Systems/rnas/4QLN

>  <Rbt.Executable>
rbdock ($Id: //depot/dev/client3/rdock/2013.1/src/exe/rbdock.cxx#4 $)

>  <Rbt.Library>
libRbt.so (2013.1, Build901 2013/11/27)

>  <Rbt.Parameter_File>
/export/apps/rDock/src/rDock_2013.1_src/data/scripts/dock_solv.prm

>  <Rbt.Receptor>
prm/pocket_docking_7.prm

>  <SCORE>
-12.9376

>  <SCORE.INTER>
-13.0679

>  <SCORE.INTER.CONST>
1

>  <SCORE.INTER.POLAR>
0

>  <SCORE.INTER.ROT>
2

>  <SCORE.INTER.SOLV>
16.3828

>  <SCORE.INTER.VDW>
-19.1062

>  <SCORE.INTER.norm>
-0.311141

>  <SCORE.INTRA>
0.130275

>  <SCORE.INTRA.DIHEDRAL>
0.000599312

>  <SCORE.INTRA.DIHEDRAL.0>
2.39985

>  <SCORE.INTRA.POLAR>
0

>  <SCORE.INTRA.POLAR.0>
0

>  <SCORE.INTRA.REPUL>
0

>  <SCORE.INTRA.REPUL.0>
0

>  <SCORE.INTRA.SOLV>
-0.0226455

>  <SCORE.INTRA.SOLV.lig_0>
-110.958

>  <SCORE.INTRA.VDW>
0.141298

>  <SCORE.INTRA.VDW.0>
-2.34644

>  <SCORE.INTRA.norm>
0.00310179

>  <SCORE.RESTR>
0

>  <SCORE.RESTR.CAVITY>
0

>  <SCORE.RESTR.norm>
0

>  <SCORE.SYSTEM>
0

>  <SCORE.SYSTEM.CONST>
0

>  <SCORE.SYSTEM.DIHEDRAL>
0

>  <SCORE.SYSTEM.SOLV>
0

>  <SCORE.SYSTEM.norm>
0

>  <SCORE.heavy>
42

>  <SCORE.norm>
-0.308039

>  <RMSD>
6.975

$$$$
ligand
 OpenBabel11021811513D
libRbt.so/2013.1/901 2013/11/27
 42 48  0  0  0  0  0  0  0  0999 V2000
    3.8635  -34.6646  -16.6285 P   0  0  2  0  0  0  0  0  0  0  0  0
    6.2813  -32.0224  -13.0665 P   0  0  1  0  0  0  0  0  0  0  0  0
    2.5688  -34.1192  -17.1845 O   0  5  0  0  0  0  0  0  0  0  0  0
    6.9805  -33.3579  -12.9766 O   0  5  0  0  0  0  0  0  0  0  0  0
    4.2385  -36.1071  -16.8706 O   0  0  0  0  0  0  0  0  0  0  0  0
    6.8642  -30.8176  -12.3679 O   0  0  0  0  0  0  0  0  0  0  0  0
    2.6702  -34.4308  -14.2879 C   0  0  0  0  0  0  0  0  0  0  0  0
    7.2193  -31.5261  -15.4805 C   0  0  0  0  0  0  0  0  0  0  0  0
    3.8813  -34.3987  -15.0410 O   0  0  0  0  0  0  0  0  0  0  0  0
    6.0880  -31.6583  -14.6230 O   0  0  0  0  0  0  0  0  0  0  0  0
    2.7835  -33.4787  -13.1033 C   0  0  1  0  0  0  0  0  0  0  0  0
    7.0029  -32.3524  -16.7420 C   0  0  1  0  0  0  0  0  0  0  0  0
    1.8588  -33.8659  -12.0833 O   0  0  0  0  0  0  0  0  0  0  0  0
    8.2654  -32.6711  -17.3324 O   0  0  0  0  0  0  0  0  0  0  0  0
    4.1788  -33.5104  -12.5027 C   0  0  1  0  0  0  0  0  0  0  0  0
    6.2926  -33.6600  -16.4302 C   0  0  1  0  0  0  0  0  0  0  0  0
    4.7647  -32.2133  -12.5592 O   0  0  0  0  0  0  0  0  0  0  0  0
    5.0680  -33.7352  -17.1541 O   0  0  0  0  0  0  0  0  0  0  0  0
    4.0146  -33.9443  -11.0580 C   0  0  0  0  0  0  0  0  0  0  0  0
    7.2258  -34.7714  -16.8703 C   0  0  0  0  0  0  0  0  0  0  0  0
    2.5226  -34.1580  -10.8507 C   0  0  2  0  0  0  0  0  0  0  0  0
    8.4623  -34.0838  -17.4316 C   0  0  2  0  0  0  0  0  0  0  0  0
   -0.2106  -38.5303  -11.8463 N   0  0  0  0  0  0  0  0  0  0  0  0
   -0.2437  -37.3293  -12.4527 C   0  0  0  0  0  0  0  0  0  0  0  0
    0.5227  -36.2855  -12.0864 N   0  0  0  0  0  0  0  0  0  0  0  0
    1.3959  -36.3918  -11.0563 C   0  0  0  0  0  0  0  0  0  0  0  0
    1.4909  -37.6747  -10.3422 C   0  0  0  0  0  0  0  0  0  0  0  0
    0.6140  -38.7770  -10.8039 C   0  0  0  0  0  0  0  0  0  0  0  0
    0.6388  -39.9906  -10.2021 N   0  0  0  0  0  0  0  0  0  0  0  0
    2.4178  -37.5107   -9.3798 N   0  0  0  0  0  0  0  0  0  0  0  0
    2.8764  -36.2359   -9.4685 C   0  0  0  0  0  0  0  0  0  0  0  0
    2.2676  -35.5690  -10.4679 N   0  0  0  0  0  0  0  0  0  0  0  0
   11.9070  -37.8896  -16.3263 N   0  0  0  0  0  0  0  0  0  0  0  0
   10.8591  -37.8864  -17.1708 C   0  0  0  0  0  0  0  0  0  0  0  0
   10.0516  -36.8266  -17.3560 N   0  0  0  0  0  0  0  0  0  0  0  0
   10.2579  -35.6702  -16.6806 C   0  0  0  0  0  0  0  0  0  0  0  0
   11.3850  -35.5950  -15.7381 C   0  0  0  0  0  0  0  0  0  0  0  0
   12.2287  -36.8043  -15.5898 C   0  0  0  0  0  0  0  0  0  0  0  0
   13.2873  -36.8198  -14.7430 N   0  0  0  0  0  0  0  0  0  0  0  0
   11.3630  -34.3560  -15.2117 N   0  0  0  0  0  0  0  0  0  0  0  0
   10.3143  -33.6964  -15.7676 C   0  0  0  0  0  0  0  0  0  0  0  0
    9.6560  -34.4790  -16.6423 N   0  0  0  0  0  0  0  0  0  0  0  0
  1  3  1  6  0  0  0
  1  5  2  0  0  0  0
  1  9  1  0  0  0  0
  1 18  1  0  0  0  0
  2  4  1  1  0  0  0
  2  6  2  0  0  0  0
  2 10  1  0  0  0  0
  2 17  1  0  0  0  0
  7  9  1  0  0  0  0
  8 10  1  0  0  0  0
 11  7  1  6  0  0  0
 11 13  1  0  0  0  0
 11 15  1  0  0  0  0
 12  8  1  1  0  0  0
 12 14  1  0  0  0  0
 12 16  1  0  0  0  0
 13 21  1  0  0  0  0
 14 22  1  0  0  0  0
 15 17  1  1  0  0  0
 15 19  1  0  0  0  0
 16 18  1  6  0  0  0
 16 20  1  0  0  0  0
 19 21  1  0  0  0  0
 20 22  1  0  0  0  0
 21 32  1  6  0  0  0
 22 42  1  1  0  0  0
 23 24  2  0  0  0  0
 23 28  1  0  0  0  0
 24 25  1  0  0  0  0
 25 26  2  0  0  0  0
 26 27  1  0  0  0  0
 26 32  1  0  0  0  0
 27 28  2  0  0  0  0
 27 30  1  0  0  0  0
 28 29  1  0  0  0  0
 30 31  2  0  0  0  0
 31 32  1  0  0  0  0
 33 34  2  0  0  0  0
 33 38  1  0  0  0  0
 34 35  1  0  0  0  0
 35 36  2  0  0  0  0
 36 37  1  0  0  0  0
 36 42  1  0  0  0  0
 37 38  2  0  0  0  0
 37 40  1  0  0  0  0
 38 39  1  0  0  0  0
 40 41  2  0  0  0  0
 41 42  1  0  0  0  0
M  CHG  2   3  -1   4  -1
M  END
>  <CHROM.1>
-9.46653752,-168.53975554,5.56256041,-34.81243860,-14.17464660,2.84323726
-0.44913187,2.81495291

>  <Name>
ligand

>  <RI>
0

>  <Rbt.Current_Directory>
/home/itssahil/PROJECTS/Mol_Feturizer/New_Systems/rnas/4QLN

>  <Rbt.Executable>
rbdock ($Id: //depot/dev/client3/rdock/2013.1/src/exe/rbdock.cxx#4 $)

>  <Rbt.Library>
libRbt.so (2013.1, Build901 2013/11/27)

>  <Rbt.Parameter_File>
/export/apps/rDock/src/rDock_2013.1_src/data/scripts/dock_solv.prm

>  <Rbt.Receptor>
prm/pocket_docking_7.prm

>  <SCORE>
-12.419

>  <SCORE.INTER>
-13.2152

>  <SCORE.INTER.CONST>
1

>  <SCORE.INTER.POLAR>
0

>  <SCORE.INTER.ROT>
2

>  <SCORE.INTER.SOLV>
14.6618

>  <SCORE.INTER.VDW>
-18.6307

>  <SCORE.INTER.norm>
-0.314648

>  <SCORE.INTRA>
0.79625

>  <SCORE.INTRA.DIHEDRAL>
0.000698437

>  <SCORE.INTRA.DIHEDRAL.0>
2.39985

>  <SCORE.INTRA.POLAR>
0

>  <SCORE.INTRA.POLAR.0>
0

>  <SCORE.INTRA.REPUL>
0

>  <SCORE.INTRA.REPUL.0>
0

>  <SCORE.INTRA.SOLV>
-0.0726645

>  <SCORE.INTRA.SOLV.lig_0>
-110.958

>  <SCORE.INTRA.VDW>
0.832233

>  <SCORE.INTRA.VDW.0>
-2.34644

>  <SCORE.INTRA.norm>
0.0189583

>  <SCORE.RESTR>
0

>  <SCORE.RESTR.CAVITY>
0

>  <SCORE.RESTR.norm>
0

>  <SCORE.SYSTEM>
0

>  <SCORE.SYSTEM.CONST>
0

>  <SCORE.SYSTEM.DIHEDRAL>
0

>  <SCORE.SYSTEM.SOLV>
0

>  <SCORE.SYSTEM.norm>
0

>  <SCORE.heavy>
42

>  <SCORE.norm>
-0.295689

>  <RMSD>
7.009

$$$$
ligand
 OpenBabel11021811513D
libRbt.so/2013.1/901 2013/11/27
 42 48  0  0  0  0  0  0  0  0999 V2000
    3.9227  -34.7218  -16.6541 P   0  0  2  0  0  0  0  0  0  0  0  0
    6.3230  -32.0477  -13.1043 P   0  0  1  0  0  0  0  0  0  0  0  0
    2.6298  -34.1823  -17.2201 O   0  5  0  0  0  0  0  0  0  0  0  0
    7.0231  -33.3817  -13.0002 O   0  5  0  0  0  0  0  0  0  0  0  0
    4.3000  -36.1659  -16.8826 O   0  0  0  0  0  0  0  0  0  0  0  0
    6.9019  -30.8365  -12.4133 O   0  0  0  0  0  0  0  0  0  0  0  0
    2.7192  -34.4697  -14.3206 C   0  0  0  0  0  0  0  0  0  0  0  0
    7.2707  -31.5707  -15.5183 C   0  0  0  0  0  0  0  0  0  0  0  0
    3.9335  -34.4427  -15.0689 O   0  0  0  0  0  0  0  0  0  0  0  0
    6.1360  -31.6968  -14.6645 O   0  0  0  0  0  0  0  0  0  0  0  0
    2.8268  -33.5075  -13.1436 C   0  0  1  0  0  0  0  0  0  0  0  0
    7.0604  -32.4077  -16.7738 C   0  0  1  0  0  0  0  0  0  0  0  0
    1.8981  -33.8872  -12.1243 O   0  0  0  0  0  0  0  0  0  0  0  0
    8.3256  -32.7302  -17.3562 O   0  0  0  0  0  0  0  0  0  0  0  0
    4.2195  -33.5329  -12.5369 C   0  0  1  0  0  0  0  0  0  0  0  0
    6.3499  -33.7133  -16.4541 C   0  0  1  0  0  0  0  0  0  0  0  0
    4.8045  -32.2358  -12.6017 O   0  0  0  0  0  0  0  0  0  0  0  0
    5.1285  -33.7957  -17.1825 O   0  0  0  0  0  0  0  0  0  0  0  0
    4.0496  -33.9549  -11.0893 C   0  0  0  0  0  0  0  0  0  0  0  0
    7.2861  -34.8274  -16.8809 C   0  0  0  0  0  0  0  0  0  0  0  0
    2.5569  -34.1683  -10.8865 C   0  0  2  0  0  0  0  0  0  0  0  0
    8.5243  -34.1434  -17.4427 C   0  0  2  0  0  0  0  0  0  0  0  0
   -0.2738  -38.5047  -11.7588 N   0  0  0  0  0  0  0  0  0  0  0  0
   -0.3190  -37.3028  -12.3628 C   0  0  0  0  0  0  0  0  0  0  0  0
    0.4763  -36.2692  -12.0311 N   0  0  0  0  0  0  0  0  0  0  0  0
    1.3938  -36.3875  -11.0416 C   0  0  0  0  0  0  0  0  0  0  0  0
    1.5047  -37.6721  -10.3330 C   0  0  0  0  0  0  0  0  0  0  0  0
    0.5939  -38.7627  -10.7548 C   0  0  0  0  0  0  0  0  0  0  0  0
    0.6305  -39.9771  -10.1552 N   0  0  0  0  0  0  0  0  0  0  0  0
    2.4762  -37.5207   -9.4134 N   0  0  0  0  0  0  0  0  0  0  0  0
    2.9465  -36.2518   -9.5224 C   0  0  0  0  0  0  0  0  0  0  0  0
    2.3016  -35.5762  -10.4930 N   0  0  0  0  0  0  0  0  0  0  0  0
   11.9772  -37.9315  -16.3028 N   0  0  0  0  0  0  0  0  0  0  0  0
   10.9340  -37.9357  -17.1533 C   0  0  0  0  0  0  0  0  0  0  0  0
   10.1236  -36.8797  -17.3472 N   0  0  0  0  0  0  0  0  0  0  0  0
   10.3217  -35.7199  -16.6753 C   0  0  0  0  0  0  0  0  0  0  0  0
   11.4430  -35.6366  -15.7268 C   0  0  0  0  0  0  0  0  0  0  0  0
   12.2905  -36.8421  -15.5689 C   0  0  0  0  0  0  0  0  0  0  0  0
   13.3444  -36.8501  -14.7161 N   0  0  0  0  0  0  0  0  0  0  0  0
   11.4134  -34.3956  -15.2055 N   0  0  0  0  0  0  0  0  0  0  0  0
   10.3653  -33.7422  -15.7699 C   0  0  0  0  0  0  0  0  0  0  0  0
    9.7150  -34.5309  -16.6452 N   0  0  0  0  0  0  0  0  0  0  0  0
  1  3  1  6  0  0  0
  1  5  2  0  0  0  0
  1  9  1  0  0  0  0
  1 18  1  0  0  0  0
  2  4  1  1  0  0  0
  2  6  2  0  0  0  0
  2 10  1  0  0  0  0
  2 17  1  0  0  0  0
  7  9  1  0  0  0  0
  8 10  1  0  0  0  0
 11  7  1  6  0  0  0
 11 13  1  0  0  0  0
 11 15  1  0  0  0  0
 12  8  1  1  0  0  0
 12 14  1  0  0  0  0
 12 16  1  0  0  0  0
 13 21  1  0  0  0  0
 14 22  1  0  0  0  0
 15 17  1  1  0  0  0
 15 19  1  0  0  0  0
 16 18  1  6  0  0  0
 16 20  1  0  0  0  0
 19 21  1  0  0  0  0
 20 22  1  0  0  0  0
 21 32  1  6  0  0  0
 22 42  1  1  0  0  0
 23 24  2  0  0  0  0
 23 28  1  0  0  0  0
 24 25  1  0  0  0  0
 25 26  2  0  0  0  0
 26 27  1  0  0  0  0
 26 32  1  0  0  0  0
 27 28  2  0  0  0  0
 27 30  1  0  0  0  0
 28 29  1  0  0  0  0
 30 31  2  0  0  0  0
 31 32  1  0  0  0  0
 33 34  2  0  0  0  0
 33 38  1  0  0  0  0
 34 35  1  0  0  0  0
 35 36  2  0  0  0  0
 36 37  1  0  0  0  0
 36 42  1  0  0  0  0
 37 38  2  0  0  0  0
 37 40  1  0  0  0  0
 38 39  1  0  0  0  0
 40 41  2  0  0  0  0
 41 42  1  0  0  0  0
M  CHG  2   3  -1   4  -1
M  END
>  <CHROM.1>
-12.45020299,-168.22945569,5.60356229,-34.84332901,-14.18494221,2.84015286
-0.44304634,2.79650257

>  <Name>
ligand

>  <RI>
0

>  <Rbt.Current_Directory>
/home/itssahil/PROJECTS/Mol_Feturizer/New_Systems/rnas/4QLN

>  <Rbt.Executable>
rbdock ($Id: //depot/dev/client3/rdock/2013.1/src/exe/rbdock.cxx#4 $)

>  <Rbt.Library>
libRbt.so (2013.1, Build901 2013/11/27)

>  <Rbt.Parameter_File>
/export/apps/rDock/src/rDock_2013.1_src/data/scripts/dock_solv.prm

>  <Rbt.Receptor>
prm/pocket_docking_8.prm

>  <SCORE>
-12.4903

>  <SCORE.INTER>
-13.3396

>  <SCORE.INTER.CONST>
1

>  <SCORE.INTER.POLAR>
0

>  <SCORE.INTER.ROT>
2

>  <SCORE.INTER.SOLV>
14.1032

>  <SCORE.INTER.VDW>
-18.5275

>  <SCORE.INTER.norm>
-0.317609

>  <SCORE.INTRA>
0.849336

>  <SCORE.INTRA.DIHEDRAL>
0.000742762

>  <SCORE.INTRA.DIHEDRAL.0>
2.39985

>  <SCORE.INTRA.POLAR>
0

>  <SCORE.INTRA.POLAR.0>
0

>  <SCORE.INTRA.REPUL>
0

>  <SCORE.INTRA.REPUL.0>
0

>  <SCORE.INTRA.SOLV>
-0.0748144

>  <SCORE.INTRA.SOLV.lig_0>
-110.958

>  <SCORE.INTRA.VDW>
0.886372

>  <SCORE.INTRA.VDW.0>
-2.34644

>  <SCORE.INTRA.norm>
0.0202223

>  <SCORE.RESTR>
0

>  <SCORE.RESTR.CAVITY>
0

>  <SCORE.RESTR.norm>
0

>  <SCORE.SYSTEM>
0

>  <SCORE.SYSTEM.CONST>
0

>  <SCORE.SYSTEM.DIHEDRAL>
0

>  <SCORE.SYSTEM.SOLV>
0

>  <SCORE.SYSTEM.norm>
0

>  <SCORE.heavy>
42

>  <SCORE.norm>
-0.297387

>  <RMSD>
7.019

$$$$
ligand
 OpenBabel11021811513D
libRbt.so/2013.1/901 2013/11/27
 42 48  0  0  0  0  0  0  0  0999 V2000
    8.0076  -30.4971  -12.8934 P   0  0  2  0  0  0  0  0  0  0  0  0
    7.1563  -33.4294  -16.9172 P   0  0  1  0  0  0  0  0  0  0  0  0
    8.4026  -29.0557  -13.1154 O   0  5  0  0  0  0  0  0  0  0  0  0
    7.2579  -34.4554  -15.8139 O   0  5  0  0  0  0  0  0  0  0  0  0
    8.2018  -31.1306  -11.5366 O   0  0  0  0  0  0  0  0  0  0  0  0
    6.6262  -33.8301  -18.2729 O   0  0  0  0  0  0  0  0  0  0  0  0
   10.0729  -31.0437  -14.4403 C   0  0  0  0  0  0  0  0  0  0  0  0
    4.9308  -32.3946  -15.9531 C   0  0  0  0  0  0  0  0  0  0  0  0
    8.7689  -31.4016  -13.9858 O   0  0  0  0  0  0  0  0  0  0  0  0
    6.2770  -32.1935  -16.3770 O   0  0  0  0  0  0  0  0  0  0  0  0
   10.2560  -31.5138  -15.8784 C   0  0  1  0  0  0  0  0  0  0  0  0
    4.7266  -31.7595  -14.5835 C   0  0  1  0  0  0  0  0  0  0  0  0
   11.6501  -31.6498  -16.1673 O   0  0  0  0  0  0  0  0  0  0  0  0
    3.6220  -32.3818  -13.9229 O   0  0  0  0  0  0  0  0  0  0  0  0
    9.6003  -32.8658  -16.1037 C   0  0  1  0  0  0  0  0  0  0  0  0
    5.9540  -31.9374  -13.7041 C   0  0  1  0  0  0  0  0  0  0  0  0
    8.6090  -32.7646  -17.1215 O   0  0  0  0  0  0  0  0  0  0  0  0
    6.4626  -30.6657  -13.3124 O   0  0  0  0  0  0  0  0  0  0  0  0
   10.7035  -33.8100  -16.5443 C   0  0  0  0  0  0  0  0  0  0  0  0
    5.4989  -32.7138  -12.4835 C   0  0  0  0  0  0  0  0  0  0  0  0
   11.9808  -32.9836  -16.5634 C   0  0  2  0  0  0  0  0  0  0  0  0
    4.0115  -32.9703  -12.6795 C   0  0  2  0  0  0  0  0  0  0  0  0
   15.5120  -36.7694  -15.6824 N   0  0  0  0  0  0  0  0  0  0  0  0
   14.7385  -36.5378  -16.7591 C   0  0  0  0  0  0  0  0  0  0  0  0
   13.8666  -35.5165  -16.8474 N   0  0  0  0  0  0  0  0  0  0  0  0
   13.7172  -34.6396  -15.8258 C   0  0  0  0  0  0  0  0  0  0  0  0
   14.5288  -34.8255  -14.6128 C   0  0  0  0  0  0  0  0  0  0  0  0
   15.4660  -35.9736  -14.5905 C   0  0  0  0  0  0  0  0  0  0  0  0
   16.2504  -36.2166  -13.5129 N   0  0  0  0  0  0  0  0  0  0  0  0
   14.1899  -33.8334  -13.7683 N   0  0  0  0  0  0  0  0  0  0  0  0
   13.2448  -33.0784  -14.3848 C   0  0  0  0  0  0  0  0  0  0  0  0
   12.9631  -33.5586  -15.6113 N   0  0  0  0  0  0  0  0  0  0  0  0
    3.0758  -37.3158   -9.8842 N   0  0  0  0  0  0  0  0  0  0  0  0
    3.2733  -36.0482   -9.4772 C   0  0  0  0  0  0  0  0  0  0  0  0
    3.5053  -35.0217  -10.3151 N   0  0  0  0  0  0  0  0  0  0  0  0
    3.5537  -35.2166  -11.6551 C   0  0  0  0  0  0  0  0  0  0  0  0
    3.3470  -36.5759  -12.1783 C   0  0  0  0  0  0  0  0  0  0  0  0
    3.0967  -37.6531  -11.1917 C   0  0  0  0  0  0  0  0  0  0  0  0
    2.8956  -38.9336  -11.5891 N   0  0  0  0  0  0  0  0  0  0  0  0
    3.4439  -36.4902  -13.5185 N   0  0  0  0  0  0  0  0  0  0  0  0
    3.6912  -35.1909  -13.8261 C   0  0  0  0  0  0  0  0  0  0  0  0
    3.7568  -34.4324  -12.7165 N   0  0  0  0  0  0  0  0  0  0  0  0
  1  3  1  6  0  0  0
  1  5  2  0  0  0  0
  1  9  1  0  0  0  0
  1 18  1  0  0  0  0
  2  4  1  1  0  0  0
  2  6  2  0  0  0  0
  2 10  1  0  0  0  0
  2 17  1  0  0  0  0
  7  9  1  0  0  0  0
  8 10  1  0  0  0  0
 11  7  1  1  0  0  0
 11 13  1  0  0  0  0
 11 15  1  0  0  0  0
 12  8  1  6  0  0  0
 12 14  1  0  0  0  0
 12 16  1  0  0  0  0
 13 21  1  0  0  0  0
 14 22  1  0  0  0  0
 15 17  1  6  0  0  0
 15 19  1  0  0  0  0
 16 18  1  1  0  0  0
 16 20  1  0  0  0  0
 19 21  1  0  0  0  0
 20 22  1  0  0  0  0
 21 32  1  1  0  0  0
 22 42  1  6  0  0  0
 23 24  2  0  0  0  0
 23 28  1  0  0  0  0
 24 25  1  0  0  0  0
 25 26  2  0  0  0  0
 26 27  1  0  0  0  0
 26 32  1  0  0  0  0
 27 28  2  0  0  0  0
 27 30  1  0  0  0  0
 28 29  1  0  0  0  0
 30 31  2  0  0  0  0
 31 32  1  0  0  0  0
 33 34  2  0  0  0  0
 33 38  1  0  0  0  0
 34 35  1  0  0  0  0
 35 36  2  0  0  0  0
 36 37  1  0  0  0  0
 36 42  1  0  0  0  0
 37 38  2  0  0  0  0
 37 40  1  0  0  0  0
 38 39  1  0  0  0  0
 40 41  2  0  0  0  0
 41 42  1  0  0  0  0
M  CHG  2   3  -1   4  -1
M  END
>  <CHROM.1>
-163.66986680,-155.42952825,8.18552129,-33.63366001,-14.27906775,2.98652451
-0.27465590,2.77458135

>  <Name>
ligand

>  <RI>
0

>  <Rbt.Current_Directory>
/home/itssahil/PROJECTS/Mol_Feturizer/New_Systems/rnas/4QLN

>  <Rbt.Executable>
rbdock ($Id: //depot/dev/client3/rdock/2013.1/src/exe/rbdock.cxx#4 $)

>  <Rbt.Library>
libRbt.so (2013.1, Build901 2013/11/27)

>  <Rbt.Parameter_File>
/export/apps/rDock/src/rDock_2013.1_src/data/scripts/dock_solv.prm

>  <Rbt.Receptor>
prm/pocket_docking_8.prm

>  <SCORE>
-12.0346

>  <SCORE.INTER>
-12.59

>  <SCORE.INTER.CONST>
1

>  <SCORE.INTER.POLAR>
0

>  <SCORE.INTER.ROT>
2

>  <SCORE.INTER.SOLV>
21.1413

>  <SCORE.INTER.VDW>
-20.3738

>  <SCORE.INTER.norm>
-0.299762

>  <SCORE.INTRA>
0.555459

>  <SCORE.INTRA.DIHEDRAL>
0.00106896

>  <SCORE.INTRA.DIHEDRAL.0>
2.39985

>  <SCORE.INTRA.POLAR>
0

>  <SCORE.INTRA.POLAR.0>
0

>  <SCORE.INTRA.REPUL>
0

>  <SCORE.INTRA.REPUL.0>
0

>  <SCORE.INTRA.SOLV>
-0.140924

>  <SCORE.INTRA.SOLV.lig_0>
-110.958

>  <SCORE.INTRA.VDW>
0.625387

>  <SCORE.INTRA.VDW.0>
-2.34644

>  <SCORE.INTRA.norm>
0.0132252

>  <SCORE.RESTR>
0

>  <SCORE.RESTR.CAVITY>
0

>  <SCORE.RESTR.norm>
0

>  <SCORE.SYSTEM>
0

>  <SCORE.SYSTEM.CONST>
0

>  <SCORE.SYSTEM.DIHEDRAL>
0

>  <SCORE.SYSTEM.SOLV>
0

>  <SCORE.SYSTEM.norm>
0

>  <SCORE.heavy>
42

>  <SCORE.norm>
-0.286537

>  <RMSD>
7.032

$$$$
ligand
 OpenBabel11021811513D
libRbt.so/2013.1/901 2013/11/27
 42 48  0  0  0  0  0  0  0  0999 V2000
    2.2654  -35.0681  -16.7338 P   0  0  2  0  0  0  0  0  0  0  0  0
    5.1599  -32.6275  -13.3902 P   0  0  1  0  0  0  0  0  0  0  0  0
    1.0394  -34.3724  -17.2778 O   0  5  0  0  0  0  0  0  0  0  0  0
    5.6690  -34.0425  -13.2519 O   0  5  0  0  0  0  0  0  0  0  0  0
    2.4262  -36.5589  -16.9115 O   0  0  0  0  0  0  0  0  0  0  0  0
    5.9309  -31.4853  -12.7735 O   0  0  0  0  0  0  0  0  0  0  0  0
    1.2049  -34.5574  -14.3733 C   0  0  0  0  0  0  0  0  0  0  0  0
    6.0667  -32.3838  -15.8542 C   0  0  0  0  0  0  0  0  0  0  0  0
    2.3796  -34.7323  -15.1637 O   0  0  0  0  0  0  0  0  0  0  0  0
    4.9610  -32.3141  -14.9569 O   0  0  0  0  0  0  0  0  0  0  0  0
    1.4943  -33.5756  -13.2442 C   0  0  1  0  0  0  0  0  0  0  0  0
    5.6901  -33.2302  -17.0637 C   0  0  1  0  0  0  0  0  0  0  0  0
    0.5636  -33.7796  -12.1776 O   0  0  0  0  0  0  0  0  0  0  0  0
    6.8727  -33.7516  -17.6748 O   0  0  0  0  0  0  0  0  0  0  0  0
    2.8931  -33.7754  -12.6855 C   0  0  1  0  0  0  0  0  0  0  0  0
    4.8165  -34.4082  -16.6624 C   0  0  1  0  0  0  0  0  0  0  0  0
    3.6516  -32.5782  -12.8275 O   0  0  0  0  0  0  0  0  0  0  0  0
    3.5672  -34.3441  -17.3437 O   0  0  0  0  0  0  0  0  0  0  0  0
    2.7243  -34.1127  -11.2158 C   0  0  0  0  0  0  0  0  0  0  0  0
    5.5685  -35.6597  -17.0721 C   0  0  0  0  0  0  0  0  0  0  0  0
    1.2259  -34.1036  -10.9522 C   0  0  2  0  0  0  0  0  0  0  0  0
    6.8669  -35.1809  -17.7060 C   0  0  2  0  0  0  0  0  0  0  0  0
    1.6143  -39.2974  -11.6242 N   0  0  0  0  0  0  0  0  0  0  0  0
    2.2075  -38.2895  -12.2902 C   0  0  0  0  0  0  0  0  0  0  0  0
    2.0123  -36.9887  -12.0060 N   0  0  0  0  0  0  0  0  0  0  0  0
    1.1832  -36.6130  -11.0028 C   0  0  0  0  0  0  0  0  0  0  0  0
    0.4970  -37.6579  -10.2268 C   0  0  0  0  0  0  0  0  0  0  0  0
    0.7624  -39.0676  -10.6001 C   0  0  0  0  0  0  0  0  0  0  0  0
    0.1720  -40.0908   -9.9367 N   0  0  0  0  0  0  0  0  0  0  0  0
   -0.2533  -37.0226   -9.3071 N   0  0  0  0  0  0  0  0  0  0  0  0
   -0.0653  -35.6890   -9.4781 C   0  0  0  0  0  0  0  0  0  0  0  0
    0.7912  -35.4447  -10.4886 N   0  0  0  0  0  0  0  0  0  0  0  0
   12.0478  -34.9319  -16.8886 N   0  0  0  0  0  0  0  0  0  0  0  0
   11.2712  -34.2469  -17.7483 C   0  0  0  0  0  0  0  0  0  0  0  0
    9.9406  -34.4158  -17.8512 N   0  0  0  0  0  0  0  0  0  0  0  0
    9.2923  -35.3128  -17.0695 C   0  0  0  0  0  0  0  0  0  0  0  0
   10.0729  -36.1009  -16.1033 C   0  0  0  0  0  0  0  0  0  0  0  0
   11.5337  -35.8570  -16.0497 C   0  0  0  0  0  0  0  0  0  0  0  0
   12.3264  -36.5399  -15.1876 N   0  0  0  0  0  0  0  0  0  0  0  0
    9.1983  -36.9017  -15.4655 N   0  0  0  0  0  0  0  0  0  0  0  0
    7.9666  -36.6489  -15.9785 C   0  0  0  0  0  0  0  0  0  0  0  0
    8.0225  -35.7028  -16.9339 N   0  0  0  0  0  0  0  0  0  0  0  0
  1  3  1  6  0  0  0
  1  5  2  0  0  0  0
  1  9  1  0  0  0  0
  1 18  1  0  0  0  0
  2  4  1  1  0  0  0
  2  6  2  0  0  0  0
  2 10  1  0  0  0  0
  2 17  1  0  0  0  0
  7  9  1  0  0  0  0
  8 10  1  0  0  0  0
 11  7  1  6  0  0  0
 11 13  1  0  0  0  0
 11 15  1  0  0  0  0
 12  8  1  1  0  0  0
 12 14  1  0  0  0  0
 12 16  1  0  0  0  0
 13 21  1  0  0  0  0
 14 22  1  0  0  0  0
 15 17  1  1  0  0  0
 15 19  1  0  0  0  0
 16 18  1  6  0  0  0
 16 20  1  0  0  0  0
 19 21  1  0  0  0  0
 20 22  1  0  0  0  0
 21 32  1  6  0  0  0
 22 42  1  1  0  0  0
 23 24  2  0  0  0  0
 23 28  1  0  0  0  0
 24 25  1  0  0  0  0
 25 26  2  0  0  0  0
 26 27  1  0  0  0  0
 26 32  1  0  0  0  0
 27 28  2  0  0  0  0
 27 30  1  0  0  0  0
 28 29  1  0  0  0  0
 30 31  2  0  0  0  0
 31 32  1  0  0  0  0
 33 34  2  0  0  0  0
 33 38  1  0  0  0  0
 34 35  1  0  0  0  0
 35 36  2  0  0  0  0
 36 37  1  0  0  0  0
 36 42  1  0  0  0  0
 37 38  2  0  0  0  0
 37 40  1  0  0  0  0
 38 39  1  0  0  0  0
 40 41  2  0  0  0  0
 41 42  1  0  0  0  0
M  CHG  2   3  -1   4  -1
M  END
>  <CHROM.1>
75.40363834,-50.02420134,4.51110081,-35.07159436,-14.35877149,2.65144186
-0.33113962,2.37696621

>  <Name>
ligand

>  <RI>
0

>  <Rbt.Current_Directory>
/home/itssahil/PROJECTS/Mol_Feturizer/New_Systems/rnas/4QLN

>  <Rbt.Executable>
rbdock ($Id: //depot/dev/client3/rdock/2013.1/src/exe/rbdock.cxx#4 $)

>  <Rbt.Library>
libRbt.so (2013.1, Build901 2013/11/27)

>  <Rbt.Parameter_File>
/export/apps/rDock/src/rDock_2013.1_src/data/scripts/dock_solv.prm

>  <Rbt.Receptor>
prm/pocket_docking_8.prm

>  <SCORE>
-11.1459

>  <SCORE.INTER>
-12.5083

>  <SCORE.INTER.CONST>
1

>  <SCORE.INTER.POLAR>
0

>  <SCORE.INTER.ROT>
2

>  <SCORE.INTER.SOLV>
14.8206

>  <SCORE.INTER.VDW>
-18.2124

>  <SCORE.INTER.norm>
-0.297817

>  <SCORE.INTRA>
1.36243

>  <SCORE.INTRA.DIHEDRAL>
0.000713253

>  <SCORE.INTRA.DIHEDRAL.0>
2.39985

>  <SCORE.INTRA.POLAR>
0

>  <SCORE.INTRA.POLAR.0>
0

>  <SCORE.INTRA.REPUL>
0

>  <SCORE.INTRA.REPUL.0>
0

>  <SCORE.INTRA.SOLV>
-0.0676147

>  <SCORE.INTRA.SOLV.lig_0>
-110.958

>  <SCORE.INTRA.VDW>
1.39588

>  <SCORE.INTRA.VDW.0>
-2.34644

>  <SCORE.INTRA.norm>
0.0324387

>  <SCORE.RESTR>
0

>  <SCORE.RESTR.CAVITY>
0

>  <SCORE.RESTR.norm>
0

>  <SCORE.SYSTEM>
0

>  <SCORE.SYSTEM.CONST>
0

>  <SCORE.SYSTEM.DIHEDRAL>
0

>  <SCORE.SYSTEM.SOLV>
0

>  <SCORE.SYSTEM.norm>
0

>  <SCORE.heavy>
42

>  <SCORE.norm>
-0.265378

>  <RMSD>
7.051

$$$$
ligand
 OpenBabel11021811513D
libRbt.so/2013.1/901 2013/11/27
 42 48  0  0  0  0  0  0  0  0999 V2000
    2.1854  -35.5091  -16.9119 P   0  0  2  0  0  0  0  0  0  0  0  0
    4.8330  -32.5633  -13.7771 P   0  0  1  0  0  0  0  0  0  0  0  0
    0.9674  -34.9328  -17.5955 O   0  5  0  0  0  0  0  0  0  0  0  0
    5.3776  -33.9301  -13.4369 O   0  5  0  0  0  0  0  0  0  0  0  0
    2.4005  -37.0036  -16.8909 O   0  0  0  0  0  0  0  0  0  0  0  0
    5.5369  -31.3251  -13.2763 O   0  0  0  0  0  0  0  0  0  0  0  0
    0.9931  -34.7453  -14.6865 C   0  0  0  0  0  0  0  0  0  0  0  0
    5.8540  -32.5979  -16.2082 C   0  0  0  0  0  0  0  0  0  0  0  0
    2.2106  -34.9748  -15.3937 O   0  0  0  0  0  0  0  0  0  0  0  0
    4.7032  -32.4567  -15.3785 O   0  0  0  0  0  0  0  0  0  0  0  0
    1.1955  -33.6195  -13.6794 C   0  0  1  0  0  0  0  0  0  0  0  0
    5.5644  -33.6028  -17.3160 C   0  0  1  0  0  0  0  0  0  0  0  0
    0.2193  -33.7219  -12.6392 O   0  0  0  0  0  0  0  0  0  0  0  0
    6.7914  -34.1530  -17.8011 O   0  0  0  0  0  0  0  0  0  0  0  0
    2.5700  -33.6960  -13.0366 C   0  0  1  0  0  0  0  0  0  0  0  0
    4.7083  -34.7523  -16.8085 C   0  0  1  0  0  0  0  0  0  0  0  0
    3.2977  -32.4991  -13.2949 O   0  0  0  0  0  0  0  0  0  0  0  0
    3.4932  -34.8202  -17.5488 O   0  0  0  0  0  0  0  0  0  0  0  0
    2.3384  -33.8520  -11.5451 C   0  0  0  0  0  0  0  0  0  0  0  0
    5.5178  -36.0169  -17.0208 C   0  0  0  0  0  0  0  0  0  0  0  0
    0.8291  -33.8649  -11.3536 C   0  0  2  0  0  0  0  0  0  0  0  0
    6.8310  -35.5742  -17.6504 C   0  0  2  0  0  0  0  0  0  0  0  0
    0.8217  -39.0995  -11.7741 N   0  0  0  0  0  0  0  0  0  0  0  0
    1.3407  -38.1641  -12.5908 C   0  0  0  0  0  0  0  0  0  0  0  0
    1.2666  -36.8413  -12.3546 N   0  0  0  0  0  0  0  0  0  0  0  0
    0.6472  -36.3663  -11.2475 C   0  0  0  0  0  0  0  0  0  0  0  0
    0.0542  -37.3274  -10.3044 C   0  0  0  0  0  0  0  0  0  0  0  0
    0.1760  -38.7674  -10.6338 C   0  0  0  0  0  0  0  0  0  0  0  0
   -0.3415  -39.7184   -9.8193 N   0  0  0  0  0  0  0  0  0  0  0  0
   -0.4889  -36.6026   -9.3084 N   0  0  0  0  0  0  0  0  0  0  0  0
   -0.2643  -35.2931   -9.5879 C   0  0  0  0  0  0  0  0  0  0  0  0
    0.4131  -35.1521  -10.7435 N   0  0  0  0  0  0  0  0  0  0  0  0
   11.9249  -34.9279  -16.5519 N   0  0  0  0  0  0  0  0  0  0  0  0
   11.1678  -34.3715  -17.5156 C   0  0  0  0  0  0  0  0  0  0  0  0
    9.8586  -34.6325  -17.6817 N   0  0  0  0  0  0  0  0  0  0  0  0
    9.2134  -35.4964  -16.8611 C   0  0  0  0  0  0  0  0  0  0  0  0
    9.9735  -36.1456  -15.7818 C   0  0  0  0  0  0  0  0  0  0  0  0
   11.4113  -35.8062  -15.6639 C   0  0  0  0  0  0  0  0  0  0  0  0
   12.1841  -36.3593  -14.6970 N   0  0  0  0  0  0  0  0  0  0  0  0
    9.1067  -36.9407  -15.1266 N   0  0  0  0  0  0  0  0  0  0  0  0
    7.8986  -36.8123  -15.7331 C   0  0  0  0  0  0  0  0  0  0  0  0
    7.9621  -35.9522  -16.7662 N   0  0  0  0  0  0  0  0  0  0  0  0
  1  3  1  6  0  0  0
  1  5  2  0  0  0  0
  1  9  1  0  0  0  0
  1 18  1  0  0  0  0
  2  4  1  1  0  0  0
  2  6  2  0  0  0  0
  2 10  1  0  0  0  0
  2 17  1  0  0  0  0
  7  9  1  0  0  0  0
  8 10  1  0  0  0  0
 11  7  1  6  0  0  0
 11 13  1  0  0  0  0
 11 15  1  0  0  0  0
 12  8  1  1  0  0  0
 12 14  1  0  0  0  0
 12 16  1  0  0  0  0
 13 21  1  0  0  0  0
 14 22  1  0  0  0  0
 15 17  1  1  0  0  0
 15 19  1  0  0  0  0
 16 18  1  6  0  0  0
 16 20  1  0  0  0  0
 19 21  1  0  0  0  0
 20 22  1  0  0  0  0
 21 32  1  6  0  0  0
 22 42  1  1  0  0  0
 23 24  2  0  0  0  0
 23 28  1  0  0  0  0
 24 25  1  0  0  0  0
 25 26  2  0  0  0  0
 26 27  1  0  0  0  0
 26 32  1  0  0  0  0
 27 28  2  0  0  0  0
 27 30  1  0  0  0  0
 28 29  1  0  0  0  0
 30 31  2  0  0  0  0
 31 32  1  0  0  0  0
 33 34  2  0  0  0  0
 33 38  1  0  0  0  0
 34 35  1  0  0  0  0
 35 36  2  0  0  0  0
 36 37  1  0  0  0  0
 36 42  1  0  0  0  0
 37 38  2  0  0  0  0
 37 40  1  0  0  0  0
 38 39  1  0  0  0  0
 40 41  2  0  0  0  0
 41 42  1  0  0  0  0
M  CHG  2   3  -1   4  -1
M  END
>  <CHROM.1>
60.99841721,-47.29476889,4.25788093,-35.12435730,-14.48429948,2.67598400
-0.26061390,2.27058168

>  <Name>
ligand

>  <RI>
0

>  <Rbt.Current_Directory>
/home/itssahil/PROJECTS/Mol_Feturizer/New_Systems/rnas/4QLN

>  <Rbt.Executable>
rbdock ($Id: //depot/dev/client3/rdock/2013.1/src/exe/rbdock.cxx#4 $)

>  <Rbt.Library>
libRbt.so (2013.1, Build901 2013/11/27)

>  <Rbt.Parameter_File>
/export/apps/rDock/src/rDock_2013.1_src/data/scripts/dock_solv.prm

>  <Rbt.Receptor>
prm/pocket_docking_7.prm

>  <SCORE>
-11.293

>  <SCORE.INTER>
-12.1882

>  <SCORE.INTER.CONST>
1

>  <SCORE.INTER.POLAR>
0

>  <SCORE.INTER.ROT>
2

>  <SCORE.INTER.SOLV>
15.6229

>  <SCORE.INTER.VDW>
-18.2664

>  <SCORE.INTER.norm>
-0.290195

>  <SCORE.INTRA>
0.895223

>  <SCORE.INTRA.DIHEDRAL>
0.00062714

>  <SCORE.INTRA.DIHEDRAL.0>
2.39985

>  <SCORE.INTRA.POLAR>
0

>  <SCORE.INTRA.POLAR.0>
0

>  <SCORE.INTRA.REPUL>
0

>  <SCORE.INTRA.REPUL.0>
0

>  <SCORE.INTRA.SOLV>
-0.052429

>  <SCORE.INTRA.SOLV.lig_0>
-110.958

>  <SCORE.INTRA.VDW>
0.921124

>  <SCORE.INTRA.VDW.0>
-2.34644

>  <SCORE.INTRA.norm>
0.0213148

>  <SCORE.RESTR>
0

>  <SCORE.RESTR.CAVITY>
0

>  <SCORE.RESTR.norm>
0

>  <SCORE.SYSTEM>
0

>  <SCORE.SYSTEM.CONST>
0

>  <SCORE.SYSTEM.DIHEDRAL>
0

>  <SCORE.SYSTEM.SOLV>
0

>  <SCORE.SYSTEM.norm>
0

>  <SCORE.heavy>
42

>  <SCORE.norm>
-0.26888

>  <RMSD>
7.056

$$$$
ligand
 OpenBabel11021811513D
libRbt.so/2013.1/901 2013/11/27
 42 48  0  0  0  0  0  0  0  0999 V2000
    3.4282  -34.9922  -16.8948 P   0  0  2  0  0  0  0  0  0  0  0  0
    5.5941  -32.2172  -13.2722 P   0  0  1  0  0  0  0  0  0  0  0  0
    2.2346  -34.4259  -17.6279 O   0  5  0  0  0  0  0  0  0  0  0  0
    6.2019  -33.5753  -13.0142 O   0  5  0  0  0  0  0  0  0  0  0  0
    3.7440  -36.4654  -16.9950 O   0  0  0  0  0  0  0  0  0  0  0  0
    6.1661  -30.9944  -12.5961 O   0  0  0  0  0  0  0  0  0  0  0  0
    2.0042  -34.5277  -14.7238 C   0  0  0  0  0  0  0  0  0  0  0  0
    6.8145  -31.9474  -15.5942 C   0  0  0  0  0  0  0  0  0  0  0  0
    3.2895  -34.6111  -15.3371 O   0  0  0  0  0  0  0  0  0  0  0  0
    5.5914  -31.9599  -14.8617 O   0  0  0  0  0  0  0  0  0  0  0  0
    2.0432  -33.4975  -13.6013 C   0  0  1  0  0  0  0  0  0  0  0  0
    6.6888  -32.8528  -16.8130 C   0  0  1  0  0  0  0  0  0  0  0  0
    0.9930  -33.7623  -12.6673 O   0  0  0  0  0  0  0  0  0  0  0  0
    7.9873  -33.2762  -17.2354 O   0  0  0  0  0  0  0  0  0  0  0  0
    3.3612  -33.5538  -12.8476 C   0  0  1  0  0  0  0  0  0  0  0  0
    5.8751  -34.0971  -16.4946 C   0  0  1  0  0  0  0  0  0  0  0  0
    4.0231  -32.2950  -12.9260 O   0  0  0  0  0  0  0  0  0  0  0  0
    4.7338  -34.1648  -17.3442 O   0  0  0  0  0  0  0  0  0  0  0  0
    3.0172  -33.8713  -11.4042 C   0  0  0  0  0  0  0  0  0  0  0  0
    6.7853  -35.2826  -16.7510 C   0  0  0  0  0  0  0  0  0  0  0  0
    1.5017  -33.9951  -11.3511 C   0  0  2  0  0  0  0  0  0  0  0  0
    8.1126  -34.7003  -17.2158 C   0  0  2  0  0  0  0  0  0  0  0  0
    1.8580  -39.1508  -12.2838 N   0  0  0  0  0  0  0  0  0  0  0  0
    2.3728  -38.1087  -12.9622 C   0  0  0  0  0  0  0  0  0  0  0  0
    2.1979  -36.8234  -12.6035 N   0  0  0  0  0  0  0  0  0  0  0  0
    1.4727  -36.5005  -11.5060 C   0  0  0  0  0  0  0  0  0  0  0  0
    0.8769  -37.5853  -10.7104 C   0  0  0  0  0  0  0  0  0  0  0  0
    1.1133  -38.9746  -11.1695 C   0  0  0  0  0  0  0  0  0  0  0  0
    0.6012  -40.0320  -10.4946 N   0  0  0  0  0  0  0  0  0  0  0  0
    0.2195  -36.9985   -9.6926 N   0  0  0  0  0  0  0  0  0  0  0  0
    0.3793  -35.6567   -9.8238 C   0  0  0  0  0  0  0  0  0  0  0  0
    1.1265  -35.3596  -10.9045 N   0  0  0  0  0  0  0  0  0  0  0  0
   11.9431  -38.1278  -16.1425 N   0  0  0  0  0  0  0  0  0  0  0  0
   11.0912  -38.0766  -17.1832 C   0  0  0  0  0  0  0  0  0  0  0  0
   10.1477  -37.1292  -17.3310 N   0  0  0  0  0  0  0  0  0  0  0  0
   10.0014  -36.1456  -16.4106 C   0  0  0  0  0  0  0  0  0  0  0  0
   10.8964  -36.1330  -15.2431 C   0  0  0  0  0  0  0  0  0  0  0  0
   11.9099  -37.2104  -15.1520 C   0  0  0  0  0  0  0  0  0  0  0  0
   12.7740  -37.2723  -14.1092 N   0  0  0  0  0  0  0  0  0  0  0  0
   10.5425  -35.0676  -14.4998 N   0  0  0  0  0  0  0  0  0  0  0  0
    9.5117  -34.4527  -15.1350 C   0  0  0  0  0  0  0  0  0  0  0  0
    9.1894  -35.0948  -16.2729 N   0  0  0  0  0  0  0  0  0  0  0  0
  1  3  1  6  0  0  0
  1  5  2  0  0  0  0
  1  9  1  0  0  0  0
  1 18  1  0  0  0  0
  2  4  1  1  0  0  0
  2  6  2  0  0  0  0
  2 10  1  0  0  0  0
  2 17  1  0  0  0  0
  7  9  1  0  0  0  0
  8 10  1  0  0  0  0
 11  7  1  6  0  0  0
 11 13  1  0  0  0  0
 11 15  1  0  0  0  0
 12  8  1  1  0  0  0
 12 14  1  0  0  0  0
 12 16  1  0  0  0  0
 13 21  1  0  0  0  0
 14 22  1  0  0  0  0
 15 17  1  1  0  0  0
 15 19  1  0  0  0  0
 16 18  1  6  0  0  0
 16 20  1  0  0  0  0
 19 21  1  0  0  0  0
 20 22  1  0  0  0  0
 21 32  1  6  0  0  0
 22 42  1  1  0  0  0
 23 24  2  0  0  0  0
 23 28  1  0  0  0  0
 24 25  1  0  0  0  0
 25 26  2  0  0  0  0
 26 27  1  0  0  0  0
 26 32  1  0  0  0  0
 27 28  2  0  0  0  0
 27 30  1  0  0  0  0
 28 29  1  0  0  0  0
 30 31  2  0  0  0  0
 31 32  1  0  0  0  0
 33 34  2  0  0  0  0
 33 38  1  0  0  0  0
 34 35  1  0  0  0  0
 35 36  2  0  0  0  0
 36 37  1  0  0  0  0
 36 42  1  0  0  0  0
 37 38  2  0  0  0  0
 37 40  1  0  0  0  0
 38 39  1  0  0  0  0
 40 41  2  0  0  0  0
 41 42  1  0  0  0  0
M  CHG  2   3  -1   4  -1
M  END
>  <CHROM.1>
60.17217996,-146.75825198,5.16616986,-35.07613416,-14.31137635,2.92804793
-0.41849808,2.74608645

>  <Name>
ligand

>  <RI>
0

>  <Rbt.Current_Directory>
/home/itssahil/PROJECTS/Mol_Feturizer/New_Systems/rnas/4QLN

>  <Rbt.Executable>
rbdock ($Id: //depot/dev/client3/rdock/2013.1/src/exe/rbdock.cxx#4 $)

>  <Rbt.Library>
libRbt.so (2013.1, Build901 2013/11/27)

>  <Rbt.Parameter_File>
/export/apps/rDock/src/rDock_2013.1_src/data/scripts/dock_solv.prm

>  <Rbt.Receptor>
prm/pocket_docking_6.prm

>  <SCORE>
-12.0848

>  <SCORE.INTER>
-11.8747

>  <SCORE.INTER.CONST>
1

>  <SCORE.INTER.POLAR>
0

>  <SCORE.INTER.ROT>
2

>  <SCORE.INTER.SOLV>
14.9919

>  <SCORE.INTER.VDW>
-17.8471

>  <SCORE.INTER.norm>
-0.282732

>  <SCORE.INTRA>
-0.210043

>  <SCORE.INTRA.DIHEDRAL>
0.000893481

>  <SCORE.INTRA.DIHEDRAL.0>
2.39985

>  <SCORE.INTRA.POLAR>
0

>  <SCORE.INTRA.POLAR.0>
0

>  <SCORE.INTRA.REPUL>
0

>  <SCORE.INTRA.REPUL.0>
0

>  <SCORE.INTRA.SOLV>
-0.0663185

>  <SCORE.INTRA.SOLV.lig_0>
-110.958

>  <SCORE.INTRA.VDW>
-0.177331

>  <SCORE.INTRA.VDW.0>
-2.34644

>  <SCORE.INTRA.norm>
-0.00500103

>  <SCORE.RESTR>
0

>  <SCORE.RESTR.CAVITY>
0

>  <SCORE.RESTR.norm>
0

>  <SCORE.SYSTEM>
0

>  <SCORE.SYSTEM.CONST>
0

>  <SCORE.SYSTEM.DIHEDRAL>
0

>  <SCORE.SYSTEM.SOLV>
0

>  <SCORE.SYSTEM.norm>
0

>  <SCORE.heavy>
42

>  <SCORE.norm>
-0.287733

>  <RMSD>
7.062

$$$$
ligand
 OpenBabel11021811513D
libRbt.so/2013.1/901 2013/11/27
 42 48  0  0  0  0  0  0  0  0999 V2000
    2.9714  -34.2517  -15.9127 P   0  0  2  0  0  0  0  0  0  0  0  0
    6.4323  -32.8312  -12.5189 P   0  0  1  0  0  0  0  0  0  0  0  0
    1.6635  -33.4978  -15.9759 O   0  5  0  0  0  0  0  0  0  0  0  0
    6.9621  -34.1807  -12.9415 O   0  5  0  0  0  0  0  0  0  0  0  0
    3.1003  -35.5939  -16.5925 O   0  0  0  0  0  0  0  0  0  0  0  0
    7.3017  -31.8999  -11.7088 O   0  0  0  0  0  0  0  0  0  0  0  0
    2.3687  -34.5918  -13.3675 C   0  0  0  0  0  0  0  0  0  0  0  0
    6.8626  -31.7546  -14.8872 C   0  0  0  0  0  0  0  0  0  0  0  0
    3.3757  -34.4296  -14.3649 O   0  0  0  0  0  0  0  0  0  0  0  0
    5.9436  -32.0461  -13.8370 O   0  0  0  0  0  0  0  0  0  0  0  0
    2.8610  -34.0068  -12.0492 C   0  0  1  0  0  0  0  0  0  0  0  0
    6.2692  -32.1915  -16.2207 C   0  0  1  0  0  0  0  0  0  0  0  0
    2.1462  -34.6000  -10.9617 O   0  0  0  0  0  0  0  0  0  0  0  0
    7.3184  -32.4137  -17.1660 O   0  0  0  0  0  0  0  0  0  0  0  0
    4.3400  -34.2856  -11.8410 C   0  0  1  0  0  0  0  0  0  0  0  0
    5.4891  -33.4889  -16.0790 C   0  0  1  0  0  0  0  0  0  0  0  0
    5.0554  -33.0604  -11.7154 O   0  0  0  0  0  0  0  0  0  0  0  0
    4.1344  -33.2895  -16.4716 O   0  0  0  0  0  0  0  0  0  0  0  0
    4.4494  -35.0856  -10.5563 C   0  0  0  0  0  0  0  0  0  0  0  0
    6.1549  -34.4931  -16.9998 C   0  0  0  0  0  0  0  0  0  0  0  0
    3.0265  -35.2564  -10.0454 C   0  0  2  0  0  0  0  0  0  0  0  0
    7.3108  -33.7553  -17.6603 C   0  0  2  0  0  0  0  0  0  0  0  0
   -0.7347  -38.8929  -10.5013 N   0  0  0  0  0  0  0  0  0  0  0  0
   -0.7978  -37.5564  -10.6464 C   0  0  0  0  0  0  0  0  0  0  0  0
    0.2599  -36.7376  -10.4977 N   0  0  0  0  0  0  0  0  0  0  0  0
    1.4822  -37.2306  -10.1851 C   0  0  0  0  0  0  0  0  0  0  0  0
    1.6326  -38.6837  -10.0100 C   0  0  0  0  0  0  0  0  0  0  0  0
    0.4218  -39.5196  -10.1895 C   0  0  0  0  0  0  0  0  0  0  0  0
    0.4727  -40.8659  -10.0468 N   0  0  0  0  0  0  0  0  0  0  0  0
    2.9264  -38.9022   -9.7088 N   0  0  0  0  0  0  0  0  0  0  0  0
    3.5503  -37.6965   -9.6920 C   0  0  0  0  0  0  0  0  0  0  0  0
    2.6897  -36.7001   -9.9761 N   0  0  0  0  0  0  0  0  0  0  0  0
    9.6471  -37.5990  -14.9512 N   0  0  0  0  0  0  0  0  0  0  0  0
    8.3469  -37.2612  -15.0320 C   0  0  0  0  0  0  0  0  0  0  0  0
    7.8849  -36.2393  -15.7749 N   0  0  0  0  0  0  0  0  0  0  0  0
    8.7315  -35.4728  -16.5041 C   0  0  0  0  0  0  0  0  0  0  0  0
   10.1697  -35.7797  -16.4680 C   0  0  0  0  0  0  0  0  0  0  0  0
   10.6002  -36.9210  -15.6262 C   0  0  0  0  0  0  0  0  0  0  0  0
   11.9068  -37.2716  -15.5372 N   0  0  0  0  0  0  0  0  0  0  0  0
   10.7741  -34.8811  -17.2679 N   0  0  0  0  0  0  0  0  0  0  0  0
    9.8082  -34.0701  -17.7713 C   0  0  0  0  0  0  0  0  0  0  0  0
    8.5917  -34.4223  -17.3163 N   0  0  0  0  0  0  0  0  0  0  0  0
  1  3  1  6  0  0  0
  1  5  2  0  0  0  0
  1  9  1  0  0  0  0
  1 18  1  0  0  0  0
  2  4  1  6  0  0  0
  2  6  2  0  0  0  0
  2 10  1  0  0  0  0
  2 17  1  0  0  0  0
  7  9  1  0  0  0  0
  8 10  1  0  0  0  0
 11  7  1  6  0  0  0
 11 13  1  0  0  0  0
 11 15  1  0  0  0  0
 12  8  1  1  0  0  0
 12 14  1  0  0  0  0
 12 16  1  0  0  0  0
 13 21  1  0  0  0  0
 14 22  1  0  0  0  0
 15 17  1  1  0  0  0
 15 19  1  0  0  0  0
 16 18  1  6  0  0  0
 16 20  1  0  0  0  0
 19 21  1  0  0  0  0
 20 22  1  0  0  0  0
 21 32  1  6  0  0  0
 22 42  1  1  0  0  0
 23 24  2  0  0  0  0
 23 28  1  0  0  0  0
 24 25  1  0  0  0  0
 25 26  2  0  0  0  0
 26 27  1  0  0  0  0
 26 32  1  0  0  0  0
 27 28  2  0  0  0  0
 27 30  1  0  0  0  0
 28 29  1  0  0  0  0
 30 31  2  0  0  0  0
 31 32  1  0  0  0  0
 33 34  2  0  0  0  0
 33 38  1  0  0  0  0
 34 35  1  0  0  0  0
 35 36  2  0  0  0  0
 36 37  1  0  0  0  0
 36 42  1  0  0  0  0
 37 38  2  0  0  0  0
 37 40  1  0  0  0  0
 38 39  1  0  0  0  0
 40 41  2  0  0  0  0
 41 42  1  0  0  0  0
M  CHG  2   3  -1   4  -1
M  END
>  <CHROM.1>
-28.53560549,115.62520172,5.05089229,-35.12847640,-13.71535970,0.62741383
0.39345755,-0.60891863

>  <Name>
ligand

>  <RI>
0

>  <Rbt.Current_Directory>
/home/itssahil/PROJECTS/Mol_Feturizer/New_Systems/rnas/4QLN

>  <Rbt.Executable>
rbdock ($Id: //depot/dev/client3/rdock/2013.1/src/exe/rbdock.cxx#4 $)

>  <Rbt.Library>
libRbt.so (2013.1, Build901 2013/11/27)

>  <Rbt.Parameter_File>
/export/apps/rDock/src/rDock_2013.1_src/data/scripts/dock_solv.prm

>  <Rbt.Receptor>
prm/pocket_docking_7.prm

>  <SCORE>
-10.1695

>  <SCORE.INTER>
-12.916

>  <SCORE.INTER.CONST>
1

>  <SCORE.INTER.POLAR>
0

>  <SCORE.INTER.ROT>
2

>  <SCORE.INTER.SOLV>
15.3942

>  <SCORE.INTER.VDW>
-18.6754

>  <SCORE.INTER.norm>
-0.307524

>  <SCORE.INTRA>
2.74653

>  <SCORE.INTRA.DIHEDRAL>
0.000581603

>  <SCORE.INTRA.DIHEDRAL.0>
2.39985

>  <SCORE.INTRA.POLAR>
0

>  <SCORE.INTRA.POLAR.0>
0

>  <SCORE.INTRA.REPUL>
0

>  <SCORE.INTRA.REPUL.0>
0

>  <SCORE.INTRA.SOLV>
0.07395

>  <SCORE.INTRA.SOLV.lig_0>
-110.958

>  <SCORE.INTRA.VDW>
2.70926

>  <SCORE.INTRA.VDW.0>
-2.34644

>  <SCORE.INTRA.norm>
0.0653936

>  <SCORE.RESTR>
0

>  <SCORE.RESTR.CAVITY>
0

>  <SCORE.RESTR.norm>
0

>  <SCORE.SYSTEM>
0

>  <SCORE.SYSTEM.CONST>
0

>  <SCORE.SYSTEM.DIHEDRAL>
0

>  <SCORE.SYSTEM.SOLV>
0

>  <SCORE.SYSTEM.norm>
0

>  <SCORE.heavy>
42

>  <SCORE.norm>
-0.242131

>  <RMSD>
7.106

$$$$
ligand
 OpenBabel11021811513D
libRbt.so/2013.1/901 2013/11/27
 42 48  0  0  0  0  0  0  0  0999 V2000
    2.9951  -36.0686  -17.5064 P   0  0  2  0  0  0  0  0  0  0  0  0
    4.8379  -32.6041  -14.3259 P   0  0  1  0  0  0  0  0  0  0  0  0
    1.9192  -35.6576  -18.4845 O   0  5  0  0  0  0  0  0  0  0  0  0
    5.3549  -33.8824  -13.7102 O   0  5  0  0  0  0  0  0  0  0  0  0
    3.2591  -37.5328  -17.2489 O   0  0  0  0  0  0  0  0  0  0  0  0
    5.3775  -31.2722  -13.8629 O   0  0  0  0  0  0  0  0  0  0  0  0
    1.3487  -35.1208  -15.6766 C   0  0  0  0  0  0  0  0  0  0  0  0
    6.3301  -32.8651  -16.4843 C   0  0  0  0  0  0  0  0  0  0  0  0
    2.6920  -35.3552  -16.0956 O   0  0  0  0  0  0  0  0  0  0  0  0
    5.0307  -32.6992  -15.9216 O   0  0  0  0  0  0  0  0  0  0  0  0
    1.2995  -33.8715  -14.8051 C   0  0  1  0  0  0  0  0  0  0  0  0
    6.3096  -34.0123  -17.4866 C   0  0  1  0  0  0  0  0  0  0  0  0
    0.1377  -33.9105  -13.9718 O   0  0  0  0  0  0  0  0  0  0  0  0
    7.6298  -34.5372  -17.6461 O   0  0  0  0  0  0  0  0  0  0  0  0
    2.5174  -33.7821  -13.9012 C   0  0  1  0  0  0  0  0  0  0  0  0
    5.4137  -35.1449  -17.0109 C   0  0  1  0  0  0  0  0  0  0  0  0
    3.2355  -32.5808  -14.1661 O   0  0  0  0  0  0  0  0  0  0  0  0
    4.3770  -35.3788  -17.9594 O   0  0  0  0  0  0  0  0  0  0  0  0
    1.9951  -33.7723  -12.4766 C   0  0  0  0  0  0  0  0  0  0  0  0
    6.2978  -36.3715  -16.8937 C   0  0  0  0  0  0  0  0  0  0  0  0
    0.4799  -33.8586  -12.5842 C   0  0  2  0  0  0  0  0  0  0  0  0
    7.6930  -35.9245  -17.3064 C   0  0  2  0  0  0  0  0  0  0  0  0
   -1.7814  -38.5645  -13.1492 N   0  0  0  0  0  0  0  0  0  0  0  0
   -1.4717  -37.6343  -14.0712 C   0  0  0  0  0  0  0  0  0  0  0  0
   -0.8869  -36.4580  -13.7791 N   0  0  0  0  0  0  0  0  0  0  0  0
   -0.5684  -36.1381  -12.5020 C   0  0  0  0  0  0  0  0  0  0  0  0
   -0.8752  -37.1043  -11.4357 C   0  0  0  0  0  0  0  0  0  0  0  0
   -1.5201  -38.3774  -11.8361 C   0  0  0  0  0  0  0  0  0  0  0  0
   -1.8360  -39.3218  -10.9174 N   0  0  0  0  0  0  0  0  0  0  0  0
   -0.4627  -36.5467  -10.2819 N   0  0  0  0  0  0  0  0  0  0  0  0
    0.0619  -35.3309  -10.5815 C   0  0  0  0  0  0  0  0  0  0  0  0
   -0.0008  -35.0872  -11.9047 N   0  0  0  0  0  0  0  0  0  0  0  0
   11.9622  -38.4341  -15.5606 N   0  0  0  0  0  0  0  0  0  0  0  0
   11.3347  -38.5129  -16.7487 C   0  0  0  0  0  0  0  0  0  0  0  0
   10.2364  -37.8023  -17.0624 N   0  0  0  0  0  0  0  0  0  0  0  0
    9.6874  -36.9427  -16.1704 C   0  0  0  0  0  0  0  0  0  0  0  0
   10.3167  -36.8006  -14.8483 C   0  0  0  0  0  0  0  0  0  0  0  0
   11.5236  -37.6173  -14.5788 C   0  0  0  0  0  0  0  0  0  0  0  0
   12.1650  -37.5463  -13.3864 N   0  0  0  0  0  0  0  0  0  0  0  0
    9.5837  -35.8980  -14.1694 N   0  0  0  0  0  0  0  0  0  0  0  0
    8.5740  -35.4981  -14.9846 C   0  0  0  0  0  0  0  0  0  0  0  0
    8.6356  -36.1203  -16.1763 N   0  0  0  0  0  0  0  0  0  0  0  0
  1  3  1  6  0  0  0
  1  5  2  0  0  0  0
  1  9  1  0  0  0  0
  1 18  1  0  0  0  0
  2  4  1  1  0  0  0
  2  6  2  0  0  0  0
  2 10  1  0  0  0  0
  2 17  1  0  0  0  0
  7  9  1  0  0  0  0
  8 10  1  0  0  0  0
 11  7  1  1  0  0  0
 11 13  1  0  0  0  0
 11 15  1  0  0  0  0
 12  8  1  1  0  0  0
 12 14  1  0  0  0  0
 12 16  1  0  0  0  0
 13 21  1  0  0  0  0
 14 22  1  0  0  0  0
 15 17  1  6  0  0  0
 15 19  1  0  0  0  0
 16 18  1  6  0  0  0
 16 20  1  0  0  0  0
 19 21  1  0  0  0  0
 20 22  1  0  0  0  0
 21 32  1  1  0  0  0
 22 42  1  1  0  0  0
 23 24  2  0  0  0  0
 23 28  1  0  0  0  0
 24 25  1  0  0  0  0
 25 26  2  0  0  0  0
 26 27  1  0  0  0  0
 26 32  1  0  0  0  0
 27 28  2  0  0  0  0
 27 30  1  0  0  0  0
 28 29  1  0  0  0  0
 30 31  2  0  0  0  0
 31 32  1  0  0  0  0
 33 34  2  0  0  0  0
 33 38  1  0  0  0  0
 34 35  1  0  0  0  0
 35 36  2  0  0  0  0
 36 37  1  0  0  0  0
 36 42  1  0  0  0  0
 37 38  2  0  0  0  0
 37 40  1  0  0  0  0
 38 39  1  0  0  0  0
 40 41  2  0  0  0  0
 41 42  1  0  0  0  0
M  CHG  2   3  -1   4  -1
M  END
>  <CHROM.1>
5.13658458,-124.85747620,4.26997912,-35.51590575,-14.87973149,3.01912651
-0.27963518,2.63222510

>  <Name>
ligand

>  <RI>
0

>  <Rbt.Current_Directory>
/home/itssahil/PROJECTS/Mol_Feturizer/New_Systems/rnas/4QLN

>  <Rbt.Executable>
rbdock ($Id: //depot/dev/client3/rdock/2013.1/src/exe/rbdock.cxx#4 $)

>  <Rbt.Library>
libRbt.so (2013.1, Build901 2013/11/27)

>  <Rbt.Parameter_File>
/export/apps/rDock/src/rDock_2013.1_src/data/scripts/dock_solv.prm

>  <Rbt.Receptor>
prm/pocket_docking_8.prm

>  <SCORE>
-13.9416

>  <SCORE.INTER>
-14.4107

>  <SCORE.INTER.CONST>
1

>  <SCORE.INTER.POLAR>
0

>  <SCORE.INTER.ROT>
2

>  <SCORE.INTER.SOLV>
15.7722

>  <SCORE.INTER.VDW>
-19.7979

>  <SCORE.INTER.norm>
-0.343111

>  <SCORE.INTRA>
0.469055

>  <SCORE.INTRA.DIHEDRAL>
0.000269746

>  <SCORE.INTRA.DIHEDRAL.0>
2.39985

>  <SCORE.INTRA.POLAR>
0

>  <SCORE.INTRA.POLAR.0>
0

>  <SCORE.INTRA.REPUL>
0

>  <SCORE.INTRA.REPUL.0>
0

>  <SCORE.INTRA.SOLV>
0.0176441

>  <SCORE.INTRA.SOLV.lig_0>
-110.958

>  <SCORE.INTRA.VDW>
0.460098

>  <SCORE.INTRA.VDW.0>
-2.34644

>  <SCORE.INTRA.norm>
0.011168

>  <SCORE.RESTR>
0

>  <SCORE.RESTR.CAVITY>
0

>  <SCORE.RESTR.norm>
0

>  <SCORE.SYSTEM>
0

>  <SCORE.SYSTEM.CONST>
0

>  <SCORE.SYSTEM.DIHEDRAL>
0

>  <SCORE.SYSTEM.SOLV>
0

>  <SCORE.SYSTEM.norm>
0

>  <SCORE.heavy>
42

>  <SCORE.norm>
-0.331943

>  <RMSD>
7.141

$$$$
ligand
 OpenBabel11021811513D
libRbt.so/2013.1/901 2013/11/27
 42 48  0  0  0  0  0  0  0  0999 V2000
    8.9083  -31.1013  -14.5328 P   0  0  2  0  0  0  0  0  0  0  0  0
    6.3920  -35.0094  -16.5101 P   0  0  1  0  0  0  0  0  0  0  0  0
    9.3318  -29.9735  -15.4448 O   0  5  0  0  0  0  0  0  0  0  0  0
    6.7860  -35.5581  -15.1595 O   0  5  0  0  0  0  0  0  0  0  0  0
    9.5166  -31.2255  -13.1565 O   0  0  0  0  0  0  0  0  0  0  0  0
    5.3742  -35.7396  -17.3529 O   0  0  0  0  0  0  0  0  0  0  0  0
   10.2167  -32.6373  -16.2316 C   0  0  0  0  0  0  0  0  0  0  0  0
    4.7714  -33.2073  -15.4712 C   0  0  0  0  0  0  0  0  0  0  0  0
    9.1360  -32.4913  -15.3119 O   0  0  0  0  0  0  0  0  0  0  0  0
    5.8876  -33.4934  -16.3108 O   0  0  0  0  0  0  0  0  0  0  0  0
    9.8247  -33.6263  -17.3229 C   0  0  1  0  0  0  0  0  0  0  0  0
    5.1350  -32.0894  -14.5021 C   0  0  1  0  0  0  0  0  0  0  0  0
   11.0018  -34.1786  -17.9185 O   0  0  0  0  0  0  0  0  0  0  0  0
    4.2884  -32.1537  -13.3519 O   0  0  0  0  0  0  0  0  0  0  0  0
    9.0067  -34.7749  -16.7572 C   0  0  1  0  0  0  0  0  0  0  0  0
    6.5738  -32.2165  -14.0275 C   0  0  1  0  0  0  0  0  0  0  0  0
    7.7300  -34.8223  -17.3870 O   0  0  0  0  0  0  0  0  0  0  0  0
    7.3075  -31.0456  -14.3737 O   0  0  0  0  0  0  0  0  0  0  0  0
    9.7825  -36.0437  -17.0587 C   0  0  0  0  0  0  0  0  0  0  0  0
    6.5170  -32.3678  -12.5197 C   0  0  0  0  0  0  0  0  0  0  0  0
   11.0396  -35.6027  -17.7936 C   0  0  2  0  0  0  0  0  0  0  0  0
    5.0415  -32.3238  -12.1486 C   0  0  2  0  0  0  0  0  0  0  0  0
   14.6510  -34.1538  -14.2669 N   0  0  0  0  0  0  0  0  0  0  0  0
   13.6161  -33.4649  -14.7823 C   0  0  0  0  0  0  0  0  0  0  0  0
   12.7606  -33.9692  -15.6906 N   0  0  0  0  0  0  0  0  0  0  0  0
   12.8996  -35.2366  -16.1480 C   0  0  0  0  0  0  0  0  0  0  0  0
   14.0080  -36.0549  -15.6315 C   0  0  0  0  0  0  0  0  0  0  0  0
   14.9082  -35.4292  -14.6339 C   0  0  0  0  0  0  0  0  0  0  0  0
   15.9528  -36.1127  -14.1072 N   0  0  0  0  0  0  0  0  0  0  0  0
   13.9174  -37.2521  -16.2403 N   0  0  0  0  0  0  0  0  0  0  0  0
   12.8464  -37.2059  -17.0734 C   0  0  0  0  0  0  0  0  0  0  0  0
   12.2394  -36.0047  -17.0183 N   0  0  0  0  0  0  0  0  0  0  0  0
    6.3209  -37.3310  -11.2196 N   0  0  0  0  0  0  0  0  0  0  0  0
    6.9720  -36.3851  -11.9216 C   0  0  0  0  0  0  0  0  0  0  0  0
    6.5209  -35.1275  -12.0785 N   0  0  0  0  0  0  0  0  0  0  0  0
    5.3505  -34.7351  -11.5199 C   0  0  0  0  0  0  0  0  0  0  0  0
    4.5798  -35.7129  -10.7363 C   0  0  0  0  0  0  0  0  0  0  0  0
    5.1432  -37.0777  -10.6094 C   0  0  0  0  0  0  0  0  0  0  0  0
    4.4973  -38.0389   -9.9044 N   0  0  0  0  0  0  0  0  0  0  0  0
    3.4782  -35.0729  -10.3007 N   0  0  0  0  0  0  0  0  0  0  0  0
    3.5381  -33.7982  -10.7648 C   0  0  0  0  0  0  0  0  0  0  0  0
    4.6530  -33.5970  -11.4911 N   0  0  0  0  0  0  0  0  0  0  0  0
  1  3  1  6  0  0  0
  1  5  2  0  0  0  0
  1  9  1  0  0  0  0
  1 18  1  0  0  0  0
  2  4  1  1  0  0  0
  2  6  2  0  0  0  0
  2 10  1  0  0  0  0
  2 17  1  0  0  0  0
  7  9  1  0  0  0  0
  8 10  1  0  0  0  0
 11  7  1  1  0  0  0
 11 13  1  0  0  0  0
 11 15  1  0  0  0  0
 12  8  1  6  0  0  0
 12 14  1  0  0  0  0
 12 16  1  0  0  0  0
 13 21  1  0  0  0  0
 14 22  1  0  0  0  0
 15 17  1  6  0  0  0
 15 19  1  0  0  0  0
 16 18  1  1  0  0  0
 16 20  1  0  0  0  0
 19 21  1  0  0  0  0
 20 22  1  0  0  0  0
 21 32  1  1  0  0  0
 22 42  1  6  0  0  0
 23 24  2  0  0  0  0
 23 28  1  0  0  0  0
 24 25  1  0  0  0  0
 25 26  2  0  0  0  0
 26 27  1  0  0  0  0
 26 32  1  0  0  0  0
 27 28  2  0  0  0  0
 27 30  1  0  0  0  0
 28 29  1  0  0  0  0
 30 31  2  0  0  0  0
 31 32  1  0  0  0  0
 33 34  2  0  0  0  0
 33 38  1  0  0  0  0
 34 35  1  0  0  0  0
 35 36  2  0  0  0  0
 36 37  1  0  0  0  0
 36 42  1  0  0  0  0
 37 38  2  0  0  0  0
 37 40  1  0  0  0  0
 38 39  1  0  0  0  0
 40 41  2  0  0  0  0
 41 42  1  0  0  0  0
M  CHG  2   3  -1   4  -1
M  END
>  <CHROM.1>
23.70890122,102.19802282,8.43583211,-34.22523637,-14.56806881,0.18282800
0.40485165,-0.62241547

>  <Name>
ligand

>  <RI>
0

>  <Rbt.Current_Directory>
/home/itssahil/PROJECTS/Mol_Feturizer/New_Systems/rnas/4QLN

>  <Rbt.Executable>
rbdock ($Id: //depot/dev/client3/rdock/2013.1/src/exe/rbdock.cxx#4 $)

>  <Rbt.Library>
libRbt.so (2013.1, Build901 2013/11/27)

>  <Rbt.Parameter_File>
/export/apps/rDock/src/rDock_2013.1_src/data/scripts/dock_solv.prm

>  <Rbt.Receptor>
prm/pocket_docking_8.prm

>  <SCORE>
-11.915

>  <SCORE.INTER>
-13.2191

>  <SCORE.INTER.CONST>
1

>  <SCORE.INTER.POLAR>
0

>  <SCORE.INTER.ROT>
2

>  <SCORE.INTER.SOLV>
11.4288

>  <SCORE.INTER.VDW>
-17.5557

>  <SCORE.INTER.norm>
-0.31474

>  <SCORE.INTRA>
1.30409

>  <SCORE.INTRA.DIHEDRAL>
0.000506328

>  <SCORE.INTRA.DIHEDRAL.0>
2.39985

>  <SCORE.INTRA.POLAR>
0

>  <SCORE.INTRA.POLAR.0>
0

>  <SCORE.INTRA.REPUL>
0

>  <SCORE.INTRA.REPUL.0>
0

>  <SCORE.INTRA.SOLV>
0.434087

>  <SCORE.INTRA.SOLV.lig_0>
-110.958

>  <SCORE.INTRA.VDW>
1.0868

>  <SCORE.INTRA.VDW.0>
-2.34644

>  <SCORE.INTRA.norm>
0.0310498

>  <SCORE.RESTR>
0

>  <SCORE.RESTR.CAVITY>
0

>  <SCORE.RESTR.norm>
0

>  <SCORE.SYSTEM>
0

>  <SCORE.SYSTEM.CONST>
0

>  <SCORE.SYSTEM.DIHEDRAL>
0

>  <SCORE.SYSTEM.SOLV>
0

>  <SCORE.SYSTEM.norm>
0

>  <SCORE.heavy>
42

>  <SCORE.norm>
-0.28369

>  <RMSD>
7.173

$$$$
ligand
 OpenBabel11021811513D
libRbt.so/2013.1/901 2013/11/27
 42 48  0  0  0  0  0  0  0  0999 V2000
    2.9169  -34.7796  -16.3655 P   0  0  2  0  0  0  0  0  0  0  0  0
    5.9594  -32.3100  -13.1782 P   0  0  1  0  0  0  0  0  0  0  0  0
    1.5923  -34.1546  -16.7367 O   0  5  0  0  0  0  0  0  0  0  0  0
    6.5835  -33.6851  -13.1846 O   0  5  0  0  0  0  0  0  0  0  0  0
    3.1680  -36.2400  -16.6555 O   0  0  0  0  0  0  0  0  0  0  0  0
    6.7045  -31.1467  -12.5691 O   0  0  0  0  0  0  0  0  0  0  0  0
    2.0765  -34.4919  -13.8820 C   0  0  0  0  0  0  0  0  0  0  0  0
    6.5807  -31.8534  -15.6998 C   0  0  0  0  0  0  0  0  0  0  0  0
    3.1709  -34.5263  -14.7963 O   0  0  0  0  0  0  0  0  0  0  0  0
    5.5737  -31.9243  -14.6931 O   0  0  0  0  0  0  0  0  0  0  0  0
    2.4099  -33.5564  -12.7260 C   0  0  1  0  0  0  0  0  0  0  0  0
    6.1423  -32.6566  -16.9179 C   0  0  1  0  0  0  0  0  0  0  0  0
    1.6145  -33.8953  -11.5867 O   0  0  0  0  0  0  0  0  0  0  0  0
    7.2891  -33.0454  -17.6777 O   0  0  0  0  0  0  0  0  0  0  0  0
    3.8707  -33.6748  -12.3253 C   0  0  1  0  0  0  0  0  0  0  0  0
    5.4055  -33.9220  -16.5085 C   0  0  1  0  0  0  0  0  0  0  0  0
    4.5194  -32.4144  -12.4645 O   0  0  0  0  0  0  0  0  0  0  0  0
    4.0899  -33.9195  -17.0549 O   0  0  0  0  0  0  0  0  0  0  0  0
    3.8833  -34.1083  -10.8712 C   0  0  0  0  0  0  0  0  0  0  0  0
    6.2006  -35.0835  -17.0727 C   0  0  0  0  0  0  0  0  0  0  0  0
    2.4245  -34.2347  -10.4580 C   0  0  2  0  0  0  0  0  0  0  0  0
    7.3858  -34.4664  -17.8014 C   0  0  2  0  0  0  0  0  0  0  0  0
    4.4172  -38.7448   -8.6506 N   0  0  0  0  0  0  0  0  0  0  0  0
    5.0273  -37.5803   -8.9386 C   0  0  0  0  0  0  0  0  0  0  0  0
    4.3829  -36.4930   -9.4009 N   0  0  0  0  0  0  0  0  0  0  0  0
    3.0441  -36.5134   -9.6065 C   0  0  0  0  0  0  0  0  0  0  0  0
    2.3048  -37.7515   -9.3143 C   0  0  0  0  0  0  0  0  0  0  0  0
    3.0844  -38.9064   -8.8089 C   0  0  0  0  0  0  0  0  0  0  0  0
    2.4816  -40.0835   -8.5146 N   0  0  0  0  0  0  0  0  0  0  0  0
    1.0130  -37.5040   -9.6011 N   0  0  0  0  0  0  0  0  0  0  0  0
    0.9310  -36.2214  -10.0385 C   0  0  0  0  0  0  0  0  0  0  0  0
    2.1416  -35.6307  -10.0416 N   0  0  0  0  0  0  0  0  0  0  0  0
   12.6307  -34.2213  -17.8607 N   0  0  0  0  0  0  0  0  0  0  0  0
   11.7244  -33.6008  -18.6385 C   0  0  0  0  0  0  0  0  0  0  0  0
   10.3948  -33.7593  -18.5090 N   0  0  0  0  0  0  0  0  0  0  0  0
    9.8825  -34.5778  -17.5584 C   0  0  0  0  0  0  0  0  0  0  0  0
   10.8103  -35.2921  -16.6678 C   0  0  0  0  0  0  0  0  0  0  0  0
   12.2602  -35.0649  -16.8733 C   0  0  0  0  0  0  0  0  0  0  0  0
   13.1829  -35.6834  -16.0960 N   0  0  0  0  0  0  0  0  0  0  0  0
   10.0513  -36.0237  -15.8302 N   0  0  0  0  0  0  0  0  0  0  0  0
    8.7526  -35.7982  -16.1561 C   0  0  0  0  0  0  0  0  0  0  0  0
    8.6519  -34.9372  -17.1854 N   0  0  0  0  0  0  0  0  0  0  0  0
  1  3  1  6  0  0  0
  1  5  2  0  0  0  0
  1  9  1  0  0  0  0
  1 18  1  0  0  0  0
  2  4  1  1  0  0  0
  2  6  2  0  0  0  0
  2 10  1  0  0  0  0
  2 17  1  0  0  0  0
  7  9  1  0  0  0  0
  8 10  1  0  0  0  0
 11  7  1  6  0  0  0
 11 13  1  0  0  0  0
 11 15  1  0  0  0  0
 12  8  1  1  0  0  0
 12 14  1  0  0  0  0
 12 16  1  0  0  0  0
 13 21  1  0  0  0  0
 14 22  1  0  0  0  0
 15 17  1  1  0  0  0
 15 19  1  0  0  0  0
 16 18  1  6  0  0  0
 16 20  1  0  0  0  0
 19 21  1  0  0  0  0
 20 22  1  0  0  0  0
 21 32  1  6  0  0  0
 22 42  1  1  0  0  0
 23 24  2  0  0  0  0
 23 28  1  0  0  0  0
 24 25  1  0  0  0  0
 25 26  2  0  0  0  0
 26 27  1  0  0  0  0
 26 32  1  0  0  0  0
 27 28  2  0  0  0  0
 27 30  1  0  0  0  0
 28 29  1  0  0  0  0
 30 31  2  0  0  0  0
 31 32  1  0  0  0  0
 33 34  2  0  0  0  0
 33 38  1  0  0  0  0
 34 35  1  0  0  0  0
 35 36  2  0  0  0  0
 36 37  1  0  0  0  0
 36 42  1  0  0  0  0
 37 38  2  0  0  0  0
 37 40  1  0  0  0  0
 38 39  1  0  0  0  0
 40 41  2  0  0  0  0
 41 42  1  0  0  0  0
M  CHG  2   3  -1   4  -1
M  END
>  <CHROM.1>
141.75476375,-60.33210133,5.50416963,-34.72094590,-14.02967306,2.37473892
-0.24623543,2.12603503

>  <Name>
ligand

>  <RI>
0

>  <Rbt.Current_Directory>
/home/itssahil/PROJECTS/Mol_Feturizer/New_Systems/rnas/4QLN

>  <Rbt.Executable>
rbdock ($Id: //depot/dev/client3/rdock/2013.1/src/exe/rbdock.cxx#4 $)

>  <Rbt.Library>
libRbt.so (2013.1, Build901 2013/11/27)

>  <Rbt.Parameter_File>
/export/apps/rDock/src/rDock_2013.1_src/data/scripts/dock_solv.prm

>  <Rbt.Receptor>
prm/pocket_docking_6.prm

>  <SCORE>
-13.54

>  <SCORE.INTER>
-16.4368

>  <SCORE.INTER.CONST>
1

>  <SCORE.INTER.POLAR>
0

>  <SCORE.INTER.ROT>
2

>  <SCORE.INTER.SOLV>
14.4539

>  <SCORE.INTER.VDW>
-20.7092

>  <SCORE.INTER.norm>
-0.391353

>  <SCORE.INTRA>
2.89677

>  <SCORE.INTRA.DIHEDRAL>
-0.000101727

>  <SCORE.INTRA.DIHEDRAL.0>
2.39985

>  <SCORE.INTRA.POLAR>
0

>  <SCORE.INTRA.POLAR.0>
0

>  <SCORE.INTRA.REPUL>
0

>  <SCORE.INTRA.REPUL.0>
0

>  <SCORE.INTRA.SOLV>
-0.124943

>  <SCORE.INTRA.SOLV.lig_0>
-110.958

>  <SCORE.INTRA.VDW>
2.95929

>  <SCORE.INTRA.VDW.0>
-2.34644

>  <SCORE.INTRA.norm>
0.0689706

>  <SCORE.RESTR>
9.58553e-05

>  <SCORE.RESTR.CAVITY>
9.58553e-05

>  <SCORE.RESTR.norm>
2.28227e-06

>  <SCORE.SYSTEM>
0

>  <SCORE.SYSTEM.CONST>
0

>  <SCORE.SYSTEM.DIHEDRAL>
0

>  <SCORE.SYSTEM.SOLV>
0

>  <SCORE.SYSTEM.norm>
0

>  <SCORE.heavy>
42

>  <SCORE.norm>
-0.32238

>  <RMSD>
7.244

$$$$
ligand
 OpenBabel11021811513D
libRbt.so/2013.1/901 2013/11/27
 42 48  0  0  0  0  0  0  0  0999 V2000
    7.1338  -31.6261  -14.4860 P   0  0  2  0  0  0  0  0  0  0  0  0
    5.3554  -35.5822  -17.0745 P   0  0  1  0  0  0  0  0  0  0  0  0
    7.6432  -30.4268  -15.2510 O   0  5  0  0  0  0  0  0  0  0  0  0
    5.5155  -36.1736  -15.6943 O   0  5  0  0  0  0  0  0  0  0  0  0
    7.4667  -31.7818  -13.0214 O   0  0  0  0  0  0  0  0  0  0  0  0
    4.5809  -36.3325  -18.1312 O   0  0  0  0  0  0  0  0  0  0  0  0
    8.8623  -32.9821  -15.9457 C   0  0  0  0  0  0  0  0  0  0  0  0
    3.4319  -33.9470  -16.3131 C   0  0  0  0  0  0  0  0  0  0  0  0
    7.6137  -32.9555  -15.2562 O   0  0  0  0  0  0  0  0  0  0  0  0
    4.7098  -34.1150  -16.9226 O   0  0  0  0  0  0  0  0  0  0  0  0
    8.7678  -33.9362  -17.1303 C   0  0  1  0  0  0  0  0  0  0  0  0
    3.5129  -32.8598  -15.2489 C   0  0  1  0  0  0  0  0  0  0  0  0
   10.0771  -34.3783  -17.4988 O   0  0  0  0  0  0  0  0  0  0  0  0
    2.4636  -33.0395  -14.2948 O   0  0  0  0  0  0  0  0  0  0  0  0
    7.9426  -35.1641  -16.7841 C   0  0  1  0  0  0  0  0  0  0  0  0
    4.8355  -32.9169  -14.5011 C   0  0  1  0  0  0  0  0  0  0  0  0
    6.8221  -35.2621  -17.6580 O   0  0  0  0  0  0  0  0  0  0  0  0
    5.5335  -31.6839  -14.6484 O   0  0  0  0  0  0  0  0  0  0  0  0
    8.8551  -36.3618  -16.9723 C   0  0  0  0  0  0  0  0  0  0  0  0
    4.4942  -33.1501  -13.0421 C   0  0  0  0  0  0  0  0  0  0  0  0
   10.1958  -35.8015  -17.4233 C   0  0  2  0  0  0  0  0  0  0  0  0
    2.9755  -33.2225  -12.9724 C   0  0  2  0  0  0  0  0  0  0  0  0
   13.2951  -39.5991  -15.5390 N   0  0  0  0  0  0  0  0  0  0  0  0
   12.3811  -39.6349  -16.5262 C   0  0  0  0  0  0  0  0  0  0  0  0
   11.6501  -38.5711  -16.9072 N   0  0  0  0  0  0  0  0  0  0  0  0
   11.8007  -37.3703  -16.2988 C   0  0  0  0  0  0  0  0  0  0  0  0
   12.7820  -37.2502  -15.2090 C   0  0  0  0  0  0  0  0  0  0  0  0
   13.5482  -38.4661  -14.8463 C   0  0  0  0  0  0  0  0  0  0  0  0
   14.4714  -38.4425  -13.8550 N   0  0  0  0  0  0  0  0  0  0  0  0
   12.7316  -35.9732  -14.7861 N   0  0  0  0  0  0  0  0  0  0  0  0
   11.8008  -35.3313  -15.5375 C   0  0  0  0  0  0  0  0  0  0  0  0
   11.2460  -36.1638  -16.4394 N   0  0  0  0  0  0  0  0  0  0  0  0
   -0.1645  -35.8463   -9.6818 N   0  0  0  0  0  0  0  0  0  0  0  0
   -0.0521  -34.5237   -9.9043 C   0  0  0  0  0  0  0  0  0  0  0  0
    0.8064  -33.9849  -10.7887 N   0  0  0  0  0  0  0  0  0  0  0  0
    1.6287  -34.7706  -11.5252 C   0  0  0  0  0  0  0  0  0  0  0  0
    1.5649  -36.2285  -11.3391 C   0  0  0  0  0  0  0  0  0  0  0  0
    0.5933  -36.7451  -10.3464 C   0  0  0  0  0  0  0  0  0  0  0  0
    0.4702  -38.0750  -10.1139 N   0  0  0  0  0  0  0  0  0  0  0  0
    2.4708  -36.7627  -12.1798 N   0  0  0  0  0  0  0  0  0  0  0  0
    3.0626  -35.7374  -12.8450 C   0  0  0  0  0  0  0  0  0  0  0  0
    2.5613  -34.5510  -12.4551 N   0  0  0  0  0  0  0  0  0  0  0  0
  1  3  1  6  0  0  0
  1  5  2  0  0  0  0
  1  9  1  0  0  0  0
  1 18  1  0  0  0  0
  2  4  1  1  0  0  0
  2  6  2  0  0  0  0
  2 10  1  0  0  0  0
  2 17  1  0  0  0  0
  7  9  1  0  0  0  0
  8 10  1  0  0  0  0
 11  7  1  1  0  0  0
 11 13  1  0  0  0  0
 11 15  1  0  0  0  0
 12  8  1  6  0  0  0
 12 14  1  0  0  0  0
 12 16  1  0  0  0  0
 13 21  1  0  0  0  0
 14 22  1  0  0  0  0
 15 17  1  6  0  0  0
 15 19  1  0  0  0  0
 16 18  1  1  0  0  0
 16 20  1  0  0  0  0
 19 21  1  0  0  0  0
 20 22  1  0  0  0  0
 21 32  1  1  0  0  0
 22 42  1  6  0  0  0
 23 24  2  0  0  0  0
 23 28  1  0  0  0  0
 24 25  1  0  0  0  0
 25 26  2  0  0  0  0
 26 27  1  0  0  0  0
 26 32  1  0  0  0  0
 27 28  2  0  0  0  0
 27 30  1  0  0  0  0
 28 29  1  0  0  0  0
 30 31  2  0  0  0  0
 31 32  1  0  0  0  0
 33 34  2  0  0  0  0
 33 38  1  0  0  0  0
 34 35  1  0  0  0  0
 35 36  2  0  0  0  0
 36 37  1  0  0  0  0
 36 42  1  0  0  0  0
 37 38  2  0  0  0  0
 37 40  1  0  0  0  0
 38 39  1  0  0  0  0
 40 41  2  0  0  0  0
 41 42  1  0  0  0  0
M  CHG  2   3  -1   4  -1
M  END
>  <CHROM.1>
-166.31749750,-106.59157938,6.56637934,-35.01161745,-14.73683088,-3.14133705
-0.42663967,2.65768242

>  <Name>
ligand

>  <RI>
0

>  <Rbt.Current_Directory>
/home/itssahil/PROJECTS/Mol_Feturizer/New_Systems/rnas/4QLN

>  <Rbt.Executable>
rbdock ($Id: //depot/dev/client3/rdock/2013.1/src/exe/rbdock.cxx#4 $)

>  <Rbt.Library>
libRbt.so (2013.1, Build901 2013/11/27)

>  <Rbt.Parameter_File>
/export/apps/rDock/src/rDock_2013.1_src/data/scripts/dock_solv.prm

>  <Rbt.Receptor>
prm/pocket_docking_7.prm

>  <SCORE>
-12.5677

>  <SCORE.INTER>
-13.4693

>  <SCORE.INTER.CONST>
1

>  <SCORE.INTER.POLAR>
0

>  <SCORE.INTER.ROT>
2

>  <SCORE.INTER.SOLV>
13.778

>  <SCORE.INTER.VDW>
-18.5055

>  <SCORE.INTER.norm>
-0.320698

>  <SCORE.INTRA>
0.901586

>  <SCORE.INTRA.DIHEDRAL>
-0.000164414

>  <SCORE.INTRA.DIHEDRAL.0>
2.39985

>  <SCORE.INTRA.POLAR>
0

>  <SCORE.INTRA.POLAR.0>
0

>  <SCORE.INTRA.REPUL>
0

>  <SCORE.INTRA.REPUL.0>
0

>  <SCORE.INTRA.SOLV>
-0.0542057

>  <SCORE.INTRA.SOLV.lig_0>
-110.958

>  <SCORE.INTRA.VDW>
0.928771

>  <SCORE.INTRA.VDW.0>
-2.34644

>  <SCORE.INTRA.norm>
0.0214663

>  <SCORE.RESTR>
0

>  <SCORE.RESTR.CAVITY>
0

>  <SCORE.RESTR.norm>
0

>  <SCORE.SYSTEM>
0

>  <SCORE.SYSTEM.CONST>
0

>  <SCORE.SYSTEM.DIHEDRAL>
0

>  <SCORE.SYSTEM.SOLV>
0

>  <SCORE.SYSTEM.norm>
0

>  <SCORE.heavy>
42

>  <SCORE.norm>
-0.299232

>  <RMSD>
7.246

$$$$
ligand
 OpenBabel11021811513D
libRbt.so/2013.1/901 2013/11/27
 42 48  0  0  0  0  0  0  0  0999 V2000
    2.8481  -34.6754  -16.2829 P   0  0  2  0  0  0  0  0  0  0  0  0
    6.0232  -32.3236  -13.1361 P   0  0  1  0  0  0  0  0  0  0  0  0
    1.5282  -34.0166  -16.6096 O   0  5  0  0  0  0  0  0  0  0  0  0
    6.6173  -33.7112  -13.1807 O   0  5  0  0  0  0  0  0  0  0  0  0
    3.0602  -36.1357  -16.6027 O   0  0  0  0  0  0  0  0  0  0  0  0
    6.8084  -31.1865  -12.5279 O   0  0  0  0  0  0  0  0  0  0  0  0
    2.0777  -34.4113  -13.7741 C   0  0  0  0  0  0  0  0  0  0  0  0
    6.5896  -31.8384  -15.6653 C   0  0  0  0  0  0  0  0  0  0  0  0
    3.1474  -34.4535  -14.7169 O   0  0  0  0  0  0  0  0  0  0  0  0
    5.6073  -31.9048  -14.6342 O   0  0  0  0  0  0  0  0  0  0  0  0
    2.4605  -33.5023  -12.6123 C   0  0  1  0  0  0  0  0  0  0  0  0
    6.1031  -32.6119  -16.8843 C   0  0  1  0  0  0  0  0  0  0  0  0
    1.6873  -33.8433  -11.4584 O   0  0  0  0  0  0  0  0  0  0  0  0
    7.2216  -33.0120  -17.6798 O   0  0  0  0  0  0  0  0  0  0  0  0
    3.9281  -33.6581  -12.2515 C   0  0  1  0  0  0  0  0  0  0  0  0
    5.3500  -33.8681  -16.4764 C   0  0  1  0  0  0  0  0  0  0  0  0
    4.5999  -32.4095  -12.3871 O   0  0  0  0  0  0  0  0  0  0  0  0
    4.0213  -33.8289  -16.9885 O   0  0  0  0  0  0  0  0  0  0  0  0
    3.9685  -34.1158  -10.8053 C   0  0  0  0  0  0  0  0  0  0  0  0
    6.1054  -35.0366  -17.0795 C   0  0  0  0  0  0  0  0  0  0  0  0
    2.5184  -34.2184  -10.3566 C   0  0  2  0  0  0  0  0  0  0  0  0
    7.2846  -34.4326  -17.8287 C   0  0  2  0  0  0  0  0  0  0  0  0
    4.4574  -38.7940   -8.6590 N   0  0  0  0  0  0  0  0  0  0  0  0
    5.0845  -37.6374   -8.9421 C   0  0  0  0  0  0  0  0  0  0  0  0
    4.4525  -36.5307   -9.3745 N   0  0  0  0  0  0  0  0  0  0  0  0
    3.1097  -36.5217   -9.5526 C   0  0  0  0  0  0  0  0  0  0  0  0
    2.3520  -37.7494   -9.2637 C   0  0  0  0  0  0  0  0  0  0  0  0
    3.1187  -38.9270   -8.7920 C   0  0  0  0  0  0  0  0  0  0  0  0
    2.4987  -40.0965   -8.5031 N   0  0  0  0  0  0  0  0  0  0  0  0
    1.0598  -37.4722   -9.5199 N   0  0  0  0  0  0  0  0  0  0  0  0
    0.9945  -36.1816   -9.9363 C   0  0  0  0  0  0  0  0  0  0  0  0
    2.2162  -35.6148   -9.9555 N   0  0  0  0  0  0  0  0  0  0  0  0
   12.5287  -34.1767  -17.9100 N   0  0  0  0  0  0  0  0  0  0  0  0
   11.6161  -33.5089  -18.6398 C   0  0  0  0  0  0  0  0  0  0  0  0
   10.2876  -33.6772  -18.5112 N   0  0  0  0  0  0  0  0  0  0  0  0
    9.7831  -34.5557  -17.6113 C   0  0  0  0  0  0  0  0  0  0  0  0
   10.7180  -35.3243  -16.7751 C   0  0  0  0  0  0  0  0  0  0  0  0
   12.1662  -35.0823  -16.9761 C   0  0  0  0  0  0  0  0  0  0  0  0
   13.0951  -35.7480  -16.2467 N   0  0  0  0  0  0  0  0  0  0  0  0
    9.9659  -36.1092  -15.9806 N   0  0  0  0  0  0  0  0  0  0  0  0
    8.6646  -35.8650  -16.2820 C   0  0  0  0  0  0  0  0  0  0  0  0
    8.5556  -34.9400  -17.2533 N   0  0  0  0  0  0  0  0  0  0  0  0
  1  3  1  6  0  0  0
  1  5  2  0  0  0  0
  1  9  1  0  0  0  0
  1 18  1  0  0  0  0
  2  4  1  1  0  0  0
  2  6  2  0  0  0  0
  2 10  1  0  0  0  0
  2 17  1  0  0  0  0
  7  9  1  0  0  0  0
  8 10  1  0  0  0  0
 11  7  1  6  0  0  0
 11 13  1  0  0  0  0
 11 15  1  0  0  0  0
 12  8  1  1  0  0  0
 12 14  1  0  0  0  0
 12 16  1  0  0  0  0
 13 21  1  0  0  0  0
 14 22  1  0  0  0  0
 15 17  1  1  0  0  0
 15 19  1  0  0  0  0
 16 18  1  6  0  0  0
 16 20  1  0  0  0  0
 19 21  1  0  0  0  0
 20 22  1  0  0  0  0
 21 32  1  6  0  0  0
 22 42  1  1  0  0  0
 23 24  2  0  0  0  0
 23 28  1  0  0  0  0
 24 25  1  0  0  0  0
 25 26  2  0  0  0  0
 26 27  1  0  0  0  0
 26 32  1  0  0  0  0
 27 28  2  0  0  0  0
 27 30  1  0  0  0  0
 28 29  1  0  0  0  0
 30 31  2  0  0  0  0
 31 32  1  0  0  0  0
 33 34  2  0  0  0  0
 33 38  1  0  0  0  0
 34 35  1  0  0  0  0
 35 36  2  0  0  0  0
 36 37  1  0  0  0  0
 36 42  1  0  0  0  0
 37 38  2  0  0  0  0
 37 40  1  0  0  0  0
 38 39  1  0  0  0  0
 40 41  2  0  0  0  0
 41 42  1  0  0  0  0
M  CHG  2   3  -1   4  -1
M  END
>  <CHROM.1>
142.06669435,-57.12709302,5.49446519,-34.69970143,-14.00386269,2.36132982
-0.26592498,2.13576247

>  <Name>
ligand

>  <RI>
0

>  <Rbt.Current_Directory>
/home/itssahil/PROJECTS/Mol_Feturizer/New_Systems/rnas/4QLN

>  <Rbt.Executable>
rbdock ($Id: //depot/dev/client3/rdock/2013.1/src/exe/rbdock.cxx#4 $)

>  <Rbt.Library>
libRbt.so (2013.1, Build901 2013/11/27)

>  <Rbt.Parameter_File>
/export/apps/rDock/src/rDock_2013.1_src/data/scripts/dock_solv.prm

>  <Rbt.Receptor>
prm/pocket_docking_6.prm

>  <SCORE>
-13.5251

>  <SCORE.INTER>
-16.4045

>  <SCORE.INTER.CONST>
1

>  <SCORE.INTER.POLAR>
0

>  <SCORE.INTER.ROT>
2

>  <SCORE.INTER.SOLV>
14.981

>  <SCORE.INTER.VDW>
-20.8633

>  <SCORE.INTER.norm>
-0.390583

>  <SCORE.INTRA>
2.87935

>  <SCORE.INTRA.DIHEDRAL>
2.23726e-05

>  <SCORE.INTRA.DIHEDRAL.0>
2.39985

>  <SCORE.INTRA.POLAR>
0

>  <SCORE.INTRA.POLAR.0>
0

>  <SCORE.INTRA.REPUL>
0

>  <SCORE.INTRA.REPUL.0>
0

>  <SCORE.INTRA.SOLV>
-0.122842

>  <SCORE.INTRA.SOLV.lig_0>
-110.958

>  <SCORE.INTRA.VDW>
2.94076

>  <SCORE.INTRA.VDW.0>
-2.34644

>  <SCORE.INTRA.norm>
0.068556

>  <SCORE.RESTR>
0

>  <SCORE.RESTR.CAVITY>
0

>  <SCORE.RESTR.norm>
0

>  <SCORE.SYSTEM>
0

>  <SCORE.SYSTEM.CONST>
0

>  <SCORE.SYSTEM.DIHEDRAL>
0

>  <SCORE.SYSTEM.SOLV>
0

>  <SCORE.SYSTEM.norm>
0

>  <SCORE.heavy>
42

>  <SCORE.norm>
-0.322027

>  <RMSD>
7.265

$$$$
ligand
 OpenBabel11021811513D
libRbt.so/2013.1/901 2013/11/27
 42 48  0  0  0  0  0  0  0  0999 V2000
    7.2058  -31.6168  -14.5788 P   0  0  2  0  0  0  0  0  0  0  0  0
    5.3836  -35.6264  -17.0520 P   0  0  1  0  0  0  0  0  0  0  0  0
    7.6970  -30.4321  -15.3776 O   0  5  0  0  0  0  0  0  0  0  0  0
    5.5729  -36.1901  -15.6639 O   0  5  0  0  0  0  0  0  0  0  0  0
    7.5687  -31.7429  -13.1185 O   0  0  0  0  0  0  0  0  0  0  0  0
    4.5893  -36.3988  -18.0776 O   0  0  0  0  0  0  0  0  0  0  0  0
    8.9071  -32.9984  -16.0463 C   0  0  0  0  0  0  0  0  0  0  0  0
    3.4725  -33.9798  -16.2839 C   0  0  0  0  0  0  0  0  0  0  0  0
    7.6728  -32.9604  -15.3322 O   0  0  0  0  0  0  0  0  0  0  0  0
    4.7380  -34.1576  -16.9159 O   0  0  0  0  0  0  0  0  0  0  0  0
    8.7906  -33.9760  -17.2097 C   0  0  1  0  0  0  0  0  0  0  0  0
    3.5728  -32.8716  -15.2433 C   0  0  1  0  0  0  0  0  0  0  0  0
   10.0931  -34.4229  -17.5960 O   0  0  0  0  0  0  0  0  0  0  0  0
    2.5434  -33.0342  -14.2646 O   0  0  0  0  0  0  0  0  0  0  0  0
    7.9752  -35.1982  -16.8226 C   0  0  1  0  0  0  0  0  0  0  0  0
    4.9104  -32.9117  -14.5216 C   0  0  1  0  0  0  0  0  0  0  0  0
    6.8374  -35.3154  -17.6714 O   0  0  0  0  0  0  0  0  0  0  0  0
    5.6026  -31.6806  -14.7074 O   0  0  0  0  0  0  0  0  0  0  0  0
    8.8863  -36.3978  -17.0057 C   0  0  0  0  0  0  0  0  0  0  0  0
    4.5994  -33.1165  -13.0516 C   0  0  0  0  0  0  0  0  0  0  0  0
   10.2163  -35.8442  -17.4949 C   0  0  2  0  0  0  0  0  0  0  0  0
    3.0825  -33.1902  -12.9496 C   0  0  2  0  0  0  0  0  0  0  0  0
   13.3434  -39.6045  -15.5817 N   0  0  0  0  0  0  0  0  0  0  0  0
   12.4073  -39.6621  -16.5470 C   0  0  0  0  0  0  0  0  0  0  0  0
   11.6718  -38.6056  -16.9392 N   0  0  0  0  0  0  0  0  0  0  0  0
   11.8404  -37.3899  -16.3659 C   0  0  0  0  0  0  0  0  0  0  0  0
   12.8464  -37.2456  -15.3019 C   0  0  0  0  0  0  0  0  0  0  0  0
   13.6161  -38.4549  -14.9248 C   0  0  0  0  0  0  0  0  0  0  0  0
   14.5615  -38.4093  -13.9554 N   0  0  0  0  0  0  0  0  0  0  0  0
   12.8102  -35.9578  -14.9115 N   0  0  0  0  0  0  0  0  0  0  0  0
   11.8651  -35.3317  -15.6585 C   0  0  0  0  0  0  0  0  0  0  0  0
   11.2871  -36.1851  -16.5256 N   0  0  0  0  0  0  0  0  0  0  0  0
   -0.0941  -35.7678   -9.6576 N   0  0  0  0  0  0  0  0  0  0  0  0
   -0.0032  -34.4514   -9.9230 C   0  0  0  0  0  0  0  0  0  0  0  0
    0.8687  -33.9245  -10.8016 N   0  0  0  0  0  0  0  0  0  0  0  0
    1.7279  -34.7169  -11.4870 C   0  0  0  0  0  0  0  0  0  0  0  0
    1.6895  -36.1686  -11.2519 C   0  0  0  0  0  0  0  0  0  0  0  0
    0.7010  -36.6719  -10.2691 C   0  0  0  0  0  0  0  0  0  0  0  0
    0.5993  -37.9955   -9.9937 N   0  0  0  0  0  0  0  0  0  0  0  0
    2.6300  -36.7113  -12.0480 N   0  0  0  0  0  0  0  0  0  0  0  0
    3.2188  -35.6967  -12.7320 C   0  0  0  0  0  0  0  0  0  0  0  0
    2.6817  -34.5089  -12.3978 N   0  0  0  0  0  0  0  0  0  0  0  0
  1  3  1  6  0  0  0
  1  5  2  0  0  0  0
  1  9  1  0  0  0  0
  1 18  1  0  0  0  0
  2  4  1  1  0  0  0
  2  6  2  0  0  0  0
  2 10  1  0  0  0  0
  2 17  1  0  0  0  0
  7  9  1  0  0  0  0
  8 10  1  0  0  0  0
 11  7  1  1  0  0  0
 11 13  1  0  0  0  0
 11 15  1  0  0  0  0
 12  8  1  6  0  0  0
 12 14  1  0  0  0  0
 12 16  1  0  0  0  0
 13 21  1  0  0  0  0
 14 22  1  0  0  0  0
 15 17  1  6  0  0  0
 15 19  1  0  0  0  0
 16 18  1  1  0  0  0
 16 20  1  0  0  0  0
 19 21  1  0  0  0  0
 20 22  1  0  0  0  0
 21 32  1  1  0  0  0
 22 42  1  6  0  0  0
 23 24  2  0  0  0  0
 23 28  1  0  0  0  0
 24 25  1  0  0  0  0
 25 26  2  0  0  0  0
 26 27  1  0  0  0  0
 26 32  1  0  0  0  0
 27 28  2  0  0  0  0
 27 30  1  0  0  0  0
 28 29  1  0  0  0  0
 30 31  2  0  0  0  0
 31 32  1  0  0  0  0
 33 34  2  0  0  0  0
 33 38  1  0  0  0  0
 34 35  1  0  0  0  0
 35 36  2  0  0  0  0
 36 37  1  0  0  0  0
 36 42  1  0  0  0  0
 37 38  2  0  0  0  0
 37 40  1  0  0  0  0
 38 39  1  0  0  0  0
 40 41  2  0  0  0  0
 41 42  1  0  0  0  0
M  CHG  2   3  -1   4  -1
M  END
>  <CHROM.1>
-166.82792398,-103.47782537,6.63009060,-35.00926515,-14.75896402,3.13709189
-0.43858332,2.64810301

>  <Name>
ligand

>  <RI>
0

>  <Rbt.Current_Directory>
/home/itssahil/PROJECTS/Mol_Feturizer/New_Systems/rnas/4QLN

>  <Rbt.Executable>
rbdock ($Id: //depot/dev/client3/rdock/2013.1/src/exe/rbdock.cxx#4 $)

>  <Rbt.Library>
libRbt.so (2013.1, Build901 2013/11/27)

>  <Rbt.Parameter_File>
/export/apps/rDock/src/rDock_2013.1_src/data/scripts/dock_solv.prm

>  <Rbt.Receptor>
prm/pocket_docking_7.prm

>  <SCORE>
-12.4919

>  <SCORE.INTER>
-13.4623

>  <SCORE.INTER.CONST>
1

>  <SCORE.INTER.POLAR>
0

>  <SCORE.INTER.ROT>
2

>  <SCORE.INTER.SOLV>
13.8209

>  <SCORE.INTER.VDW>
-18.5152

>  <SCORE.INTER.norm>
-0.320531

>  <SCORE.INTRA>
0.97039

>  <SCORE.INTRA.DIHEDRAL>
-0.000256615

>  <SCORE.INTRA.DIHEDRAL.0>
2.39985

>  <SCORE.INTRA.POLAR>
0

>  <SCORE.INTRA.POLAR.0>
0

>  <SCORE.INTRA.REPUL>
0

>  <SCORE.INTRA.REPUL.0>
0

>  <SCORE.INTRA.SOLV>
-0.0569025

>  <SCORE.INTRA.SOLV.lig_0>
-110.958

>  <SCORE.INTRA.VDW>
0.998969

>  <SCORE.INTRA.VDW.0>
-2.34644

>  <SCORE.INTRA.norm>
0.0231045

>  <SCORE.RESTR>
0

>  <SCORE.RESTR.CAVITY>
0

>  <SCORE.RESTR.norm>
0

>  <SCORE.SYSTEM>
0

>  <SCORE.SYSTEM.CONST>
0

>  <SCORE.SYSTEM.DIHEDRAL>
0

>  <SCORE.SYSTEM.SOLV>
0

>  <SCORE.SYSTEM.norm>
0

>  <SCORE.heavy>
42

>  <SCORE.norm>
-0.297427

>  <RMSD>
7.273

$$$$
ligand
 OpenBabel11021811513D
libRbt.so/2013.1/901 2013/11/27
 42 48  0  0  0  0  0  0  0  0999 V2000
    7.9525  -31.3581  -13.6252 P   0  0  2  0  0  0  0  0  0  0  0  0
    6.1261  -34.3732  -17.2429 P   0  0  1  0  0  0  0  0  0  0  0  0
    8.6103  -30.0583  -14.0262 O   0  5  0  0  0  0  0  0  0  0  0  0
    6.1240  -35.2995  -16.0503 O   0  5  0  0  0  0  0  0  0  0  0  0
    8.1460  -31.9006  -12.2294 O   0  0  0  0  0  0  0  0  0  0  0  0
    5.3939  -34.7655  -18.5036 O   0  0  0  0  0  0  0  0  0  0  0  0
    9.6992  -32.4621  -15.2646 C   0  0  0  0  0  0  0  0  0  0  0  0
    4.2657  -32.8095  -16.2194 C   0  0  0  0  0  0  0  0  0  0  0  0
    8.4009  -32.4938  -14.6741 O   0  0  0  0  0  0  0  0  0  0  0  0
    5.5761  -32.9368  -16.7665 O   0  0  0  0  0  0  0  0  0  0  0  0
    9.6393  -33.0812  -16.6559 C   0  0  1  0  0  0  0  0  0  0  0  0
    4.3321  -32.0312  -14.9114 C   0  0  1  0  0  0  0  0  0  0  0  0
   10.9406  -33.5352  -17.0379 O   0  0  0  0  0  0  0  0  0  0  0  0
    3.1943  -32.3452  -14.1049 O   0  0  0  0  0  0  0  0  0  0  0  0
    8.7018  -34.2764  -16.6871 C   0  0  1  0  0  0  0  0  0  0  0  0
    5.5779  -32.3911  -14.1176 C   0  0  1  0  0  0  0  0  0  0  0  0
    7.6566  -34.0533  -17.6288 O   0  0  0  0  0  0  0  0  0  0  0  0
    6.3721  -31.2286  -13.9015 O   0  0  0  0  0  0  0  0  0  0  0  0
    9.5393  -35.4680  -17.1127 C   0  0  0  0  0  0  0  0  0  0  0  0
    5.0963  -32.9459  -12.7909 C   0  0  0  0  0  0  0  0  0  0  0  0
   10.9505  -34.9376  -17.3180 C   0  0  2  0  0  0  0  0  0  0  0  0
    3.5759  -32.8952  -12.8415 C   0  0  2  0  0  0  0  0  0  0  0  0
   12.9004  -39.5367  -15.6978 N   0  0  0  0  0  0  0  0  0  0  0  0
   11.9851  -39.2684  -16.6473 C   0  0  0  0  0  0  0  0  0  0  0  0
   11.5747  -38.0255  -16.9601 N   0  0  0  0  0  0  0  0  0  0  0  0
   12.0773  -36.9448  -16.3165 C   0  0  0  0  0  0  0  0  0  0  0  0
   13.0840  -37.1559  -15.2644 C   0  0  0  0  0  0  0  0  0  0  0  0
   13.4845  -38.5537  -14.9767 C   0  0  0  0  0  0  0  0  0  0  0  0
   14.4054  -38.8364  -14.0239 N   0  0  0  0  0  0  0  0  0  0  0  0
   13.4102  -35.9371  -14.7950 N   0  0  0  0  0  0  0  0  0  0  0  0
   12.6778  -35.0253  -15.4844 C   0  0  0  0  0  0  0  0  0  0  0  0
   11.8834  -35.6257  -16.3915 N   0  0  0  0  0  0  0  0  0  0  0  0
    2.7799  -36.9904   -9.6529 N   0  0  0  0  0  0  0  0  0  0  0  0
    3.3658  -35.8032   -9.4106 C   0  0  0  0  0  0  0  0  0  0  0  0
    3.5025  -34.8348  -10.3341 N   0  0  0  0  0  0  0  0  0  0  0  0
    3.0426  -35.0096  -11.5966 C   0  0  0  0  0  0  0  0  0  0  0  0
    2.3889  -36.2820  -11.9396 C   0  0  0  0  0  0  0  0  0  0  0  0
    2.2763  -37.2989  -10.8674 C   0  0  0  0  0  0  0  0  0  0  0  0
    1.6877  -38.4981  -11.0988 N   0  0  0  0  0  0  0  0  0  0  0  0
    2.0319  -36.1932  -13.2348 N   0  0  0  0  0  0  0  0  0  0  0  0
    2.4229  -34.9720  -13.6816 C   0  0  0  0  0  0  0  0  0  0  0  0
    3.0250  -34.2671  -12.7062 N   0  0  0  0  0  0  0  0  0  0  0  0
  1  3  1  6  0  0  0
  1  5  2  0  0  0  0
  1  9  1  0  0  0  0
  1 18  1  0  0  0  0
  2  4  1  1  0  0  0
  2  6  2  0  0  0  0
  2 10  1  0  0  0  0
  2 17  1  0  0  0  0
  7  9  1  0  0  0  0
  8 10  1  0  0  0  0
 11  7  1  1  0  0  0
 11 13  1  0  0  0  0
 11 15  1  0  0  0  0
 12  8  1  6  0  0  0
 12 14  1  0  0  0  0
 12 16  1  0  0  0  0
 13 21  1  0  0  0  0
 14 22  1  0  0  0  0
 15 17  1  6  0  0  0
 15 19  1  0  0  0  0
 16 18  1  1  0  0  0
 16 20  1  0  0  0  0
 19 21  1  0  0  0  0
 20 22  1  0  0  0  0
 21 32  1  1  0  0  0
 22 42  1  6  0  0  0
 23 24  2  0  0  0  0
 23 28  1  0  0  0  0
 24 25  1  0  0  0  0
 25 26  2  0  0  0  0
 26 27  1  0  0  0  0
 26 32  1  0  0  0  0
 27 28  2  0  0  0  0
 27 30  1  0  0  0  0
 28 29  1  0  0  0  0
 30 31  2  0  0  0  0
 31 32  1  0  0  0  0
 33 34  2  0  0  0  0
 33 38  1  0  0  0  0
 34 35  1  0  0  0  0
 35 36  2  0  0  0  0
 36 37  1  0  0  0  0
 36 42  1  0  0  0  0
 37 38  2  0  0  0  0
 37 40  1  0  0  0  0
 38 39  1  0  0  0  0
 40 41  2  0  0  0  0
 41 42  1  0  0  0  0
M  CHG  2   3  -1   4  -1
M  END
>  <CHROM.1>
175.62381122,-171.15825695,7.34107876,-34.61118400,-14.64399818,-3.12310230
-0.42655320,2.71393489

>  <Name>
ligand

>  <RI>
0

>  <Rbt.Current_Directory>
/home/itssahil/PROJECTS/Mol_Feturizer/New_Systems/rnas/4QLN

>  <Rbt.Executable>
rbdock ($Id: //depot/dev/client3/rdock/2013.1/src/exe/rbdock.cxx#4 $)

>  <Rbt.Library>
libRbt.so (2013.1, Build901 2013/11/27)

>  <Rbt.Parameter_File>
/export/apps/rDock/src/rDock_2013.1_src/data/scripts/dock_solv.prm

>  <Rbt.Receptor>
prm/pocket_docking_8.prm

>  <SCORE>
-11.2137

>  <SCORE.INTER>
-12.1868

>  <SCORE.INTER.CONST>
1

>  <SCORE.INTER.POLAR>
0

>  <SCORE.INTER.ROT>
2

>  <SCORE.INTER.SOLV>
15.6651

>  <SCORE.INTER.VDW>
-18.2795

>  <SCORE.INTER.norm>
-0.290161

>  <SCORE.INTRA>
0.973061

>  <SCORE.INTRA.DIHEDRAL>
0.000425576

>  <SCORE.INTRA.DIHEDRAL.0>
2.39985

>  <SCORE.INTRA.POLAR>
0

>  <SCORE.INTRA.POLAR.0>
0

>  <SCORE.INTRA.REPUL>
0

>  <SCORE.INTRA.REPUL.0>
0

>  <SCORE.INTRA.SOLV>
-0.148666

>  <SCORE.INTRA.SOLV.lig_0>
-110.958

>  <SCORE.INTRA.VDW>
1.04718

>  <SCORE.INTRA.VDW.0>
-2.34644

>  <SCORE.INTRA.norm>
0.0231681

>  <SCORE.RESTR>
0

>  <SCORE.RESTR.CAVITY>
0

>  <SCORE.RESTR.norm>
0

>  <SCORE.SYSTEM>
0

>  <SCORE.SYSTEM.CONST>
0

>  <SCORE.SYSTEM.DIHEDRAL>
0

>  <SCORE.SYSTEM.SOLV>
0

>  <SCORE.SYSTEM.norm>
0

>  <SCORE.heavy>
42

>  <SCORE.norm>
-0.266993

>  <RMSD>
7.275

$$$$
ligand
 OpenBabel11021811513D
libRbt.so/2013.1/901 2013/11/27
 42 48  0  0  0  0  0  0  0  0999 V2000
    3.2575  -34.0925  -16.3410 P   0  0  2  0  0  0  0  0  0  0  0  0
    6.2684  -32.5210  -12.6021 P   0  0  1  0  0  0  0  0  0  0  0  0
    1.9991  -33.3106  -16.6377 O   0  5  0  0  0  0  0  0  0  0  0  0
    6.8018  -33.9113  -12.8532 O   0  5  0  0  0  0  0  0  0  0  0  0
    3.4296  -35.4835  -16.9025 O   0  0  0  0  0  0  0  0  0  0  0  0
    7.0516  -31.5566  -11.7442 O   0  0  0  0  0  0  0  0  0  0  0  0
    2.2986  -34.2300  -13.8876 C   0  0  0  0  0  0  0  0  0  0  0  0
    7.0592  -31.6316  -14.9552 C   0  0  0  0  0  0  0  0  0  0  0  0
    3.4384  -34.1678  -14.7433 O   0  0  0  0  0  0  0  0  0  0  0  0
    5.9945  -31.8213  -14.0262 O   0  0  0  0  0  0  0  0  0  0  0  0
    2.6260  -33.5638  -12.5566 C   0  0  1  0  0  0  0  0  0  0  0  0
    6.6392  -32.1486  -16.3254 C   0  0  1  0  0  0  0  0  0  0  0  0
    1.7474  -34.0570  -11.5416 O   0  0  0  0  0  0  0  0  0  0  0  0
    7.7996  -32.4669  -17.0974 O   0  0  0  0  0  0  0  0  0  0  0  0
    4.0512  -33.8660  -12.1253 C   0  0  1  0  0  0  0  0  0  0  0  0
    5.8003  -33.4110  -16.2056 C   0  0  1  0  0  0  0  0  0  0  0  0
    4.7867  -32.6543  -11.9851 O   0  0  0  0  0  0  0  0  0  0  0  0
    4.5206  -33.2048  -16.7964 O   0  0  0  0  0  0  0  0  0  0  0  0
    3.9537  -34.5729  -10.7861 C   0  0  0  0  0  0  0  0  0  0  0  0
    6.5493  -34.4970  -16.9535 C   0  0  0  0  0  0  0  0  0  0  0  0
    2.4688  -34.6682  -10.4686 C   0  0  2  0  0  0  0  0  0  0  0  0
    7.8111  -33.8402  -17.4949 C   0  0  2  0  0  0  0  0  0  0  0  0
    3.1263  -39.1809   -7.8645 N   0  0  0  0  0  0  0  0  0  0  0  0
    3.7054  -37.9802   -7.6798 C   0  0  0  0  0  0  0  0  0  0  0  0
    3.4380  -36.8974   -8.4330 N   0  0  0  0  0  0  0  0  0  0  0  0
    2.5433  -36.9605   -9.4481 C   0  0  0  0  0  0  0  0  0  0  0  0
    1.8669  -38.2399   -9.7133 C   0  0  0  0  0  0  0  0  0  0  0  0
    2.2148  -39.3869   -8.8413 C   0  0  0  0  0  0  0  0  0  0  0  0
    1.6381  -40.6003   -9.0168 N   0  0  0  0  0  0  0  0  0  0  0  0
    1.0433  -38.0297  -10.7572 N   0  0  0  0  0  0  0  0  0  0  0  0
    1.1795  -36.7309  -11.1287 C   0  0  0  0  0  0  0  0  0  0  0  0
    2.0733  -36.0934  -10.3484 N   0  0  0  0  0  0  0  0  0  0  0  0
   12.7527  -35.4028  -18.3386 N   0  0  0  0  0  0  0  0  0  0  0  0
   11.8946  -34.7613  -19.1531 C   0  0  0  0  0  0  0  0  0  0  0  0
   10.6425  -34.4192  -18.7998 N   0  0  0  0  0  0  0  0  0  0  0  0
   10.1649  -34.7118  -17.5660 C   0  0  0  0  0  0  0  0  0  0  0  0
   11.0438  -35.4127  -16.6171 C   0  0  0  0  0  0  0  0  0  0  0  0
   12.4090  -35.7552  -17.0810 C   0  0  0  0  0  0  0  0  0  0  0  0
   13.2827  -36.4006  -16.2697 N   0  0  0  0  0  0  0  0  0  0  0  0
   10.3335  -35.5764  -15.4851 N   0  0  0  0  0  0  0  0  0  0  0  0
    9.1080  -35.0290  -15.6912 C   0  0  0  0  0  0  0  0  0  0  0  0
    9.0074  -34.5143  -16.9305 N   0  0  0  0  0  0  0  0  0  0  0  0
  1  3  1  6  0  0  0
  1  5  2  0  0  0  0
  1  9  1  0  0  0  0
  1 18  1  0  0  0  0
  2  4  1  6  0  0  0
  2  6  2  0  0  0  0
  2 10  1  0  0  0  0
  2 17  1  0  0  0  0
  7  9  1  0  0  0  0
  8 10  1  0  0  0  0
 11  7  1  6  0  0  0
 11 13  1  0  0  0  0
 11 15  1  0  0  0  0
 12  8  1  1  0  0  0
 12 14  1  0  0  0  0
 12 16  1  0  0  0  0
 13 21  1  0  0  0  0
 14 22  1  0  0  0  0
 15 17  1  1  0  0  0
 15 19  1  0  0  0  0
 16 18  1  6  0  0  0
 16 20  1  0  0  0  0
 19 21  1  0  0  0  0
 20 22  1  0  0  0  0
 21 32  1  6  0  0  0
 22 42  1  1  0  0  0
 23 24  2  0  0  0  0
 23 28  1  0  0  0  0
 24 25  1  0  0  0  0
 25 26  2  0  0  0  0
 26 27  1  0  0  0  0
 26 32  1  0  0  0  0
 27 28  2  0  0  0  0
 27 30  1  0  0  0  0
 28 29  1  0  0  0  0
 30 31  2  0  0  0  0
 31 32  1  0  0  0  0
 33 34  2  0  0  0  0
 33 38  1  0  0  0  0
 34 35  1  0  0  0  0
 35 36  2  0  0  0  0
 36 37  1  0  0  0  0
 36 42  1  0  0  0  0
 37 38  2  0  0  0  0
 37 40  1  0  0  0  0
 38 39  1  0  0  0  0
 40 41  2  0  0  0  0
 41 42  1  0  0  0  0
M  CHG  2   3  -1   4  -1
M  END
>  <CHROM.1>
-179.58262038,-96.34569271,5.60550949,-34.76470757,-13.88359690,0.71953211
0.34737140,-0.86335644

>  <Name>
ligand

>  <RI>
0

>  <Rbt.Current_Directory>
/home/itssahil/PROJECTS/Mol_Feturizer/New_Systems/rnas/4QLN

>  <Rbt.Executable>
rbdock ($Id: //depot/dev/client3/rdock/2013.1/src/exe/rbdock.cxx#4 $)

>  <Rbt.Library>
libRbt.so (2013.1, Build901 2013/11/27)

>  <Rbt.Parameter_File>
/export/apps/rDock/src/rDock_2013.1_src/data/scripts/dock_solv.prm

>  <Rbt.Receptor>
prm/pocket_docking_7.prm

>  <SCORE>
-14.7109

>  <SCORE.INTER>
-15.9885

>  <SCORE.INTER.CONST>
1

>  <SCORE.INTER.POLAR>
0

>  <SCORE.INTER.ROT>
2

>  <SCORE.INTER.SOLV>
18.2622

>  <SCORE.INTER.VDW>
-21.6797

>  <SCORE.INTER.norm>
-0.380677

>  <SCORE.INTRA>
1.2776

>  <SCORE.INTRA.DIHEDRAL>
-0.000556101

>  <SCORE.INTRA.DIHEDRAL.0>
2.39985

>  <SCORE.INTRA.POLAR>
0

>  <SCORE.INTRA.POLAR.0>
0

>  <SCORE.INTRA.REPUL>
0

>  <SCORE.INTRA.REPUL.0>
0

>  <SCORE.INTRA.SOLV>
-0.0658761

>  <SCORE.INTRA.SOLV.lig_0>
-110.958

>  <SCORE.INTRA.VDW>
1.31082

>  <SCORE.INTRA.VDW.0>
-2.34644

>  <SCORE.INTRA.norm>
0.0304191

>  <SCORE.RESTR>
0

>  <SCORE.RESTR.CAVITY>
0

>  <SCORE.RESTR.norm>
0

>  <SCORE.SYSTEM>
0

>  <SCORE.SYSTEM.CONST>
0

>  <SCORE.SYSTEM.DIHEDRAL>
0

>  <SCORE.SYSTEM.SOLV>
0

>  <SCORE.SYSTEM.norm>
0

>  <SCORE.heavy>
42

>  <SCORE.norm>
-0.350258

>  <RMSD>
7.277

$$$$
ligand
 OpenBabel11021811513D
libRbt.so/2013.1/901 2013/11/27
 42 48  0  0  0  0  0  0  0  0999 V2000
    3.0005  -34.3130  -16.2767 P   0  0  2  0  0  0  0  0  0  0  0  0
    6.1421  -32.6306  -12.6971 P   0  0  1  0  0  0  0  0  0  0  0  0
    1.7289  -33.5433  -16.5477 O   0  5  0  0  0  0  0  0  0  0  0  0
    6.6712  -34.0257  -12.9297 O   0  5  0  0  0  0  0  0  0  0  0  0
    3.1572  -35.7185  -16.8060 O   0  0  0  0  0  0  0  0  0  0  0  0
    6.9527  -31.6406  -11.8956 O   0  0  0  0  0  0  0  0  0  0  0  0
    2.1340  -34.3859  -13.7866 C   0  0  0  0  0  0  0  0  0  0  0  0
    6.8414  -31.8039  -15.1014 C   0  0  0  0  0  0  0  0  0  0  0  0
    3.2409  -34.3439  -14.6855 O   0  0  0  0  0  0  0  0  0  0  0  0
    5.8127  -31.9711  -14.1286 O   0  0  0  0  0  0  0  0  0  0  0  0
    2.5080  -33.6824  -12.4874 C   0  0  1  0  0  0  0  0  0  0  0  0
    6.3728  -32.3596  -16.4404 C   0  0  1  0  0  0  0  0  0  0  0  0
    1.6696  -34.1501  -11.4273 O   0  0  0  0  0  0  0  0  0  0  0  0
    7.5050  -32.6956  -17.2461 O   0  0  0  0  0  0  0  0  0  0  0  0
    3.9494  -33.9684  -12.1013 C   0  0  1  0  0  0  0  0  0  0  0  0
    5.5439  -33.6207  -16.2549 C   0  0  1  0  0  0  0  0  0  0  0  0
    4.6848  -32.7512  -12.0219 O   0  0  0  0  0  0  0  0  0  0  0  0
    4.2423  -33.4345  -16.8030 O   0  0  0  0  0  0  0  0  0  0  0  0
    3.9045  -34.6385  -10.7406 C   0  0  0  0  0  0  0  0  0  0  0  0
    6.2689  -34.7246  -17.0001 C   0  0  0  0  0  0  0  0  0  0  0  0
    2.4328  -34.7293  -10.3656 C   0  0  2  0  0  0  0  0  0  0  0  0
    7.5072  -34.0793  -17.6060 C   0  0  2  0  0  0  0  0  0  0  0  0
    3.2105  -39.1691   -7.6708 N   0  0  0  0  0  0  0  0  0  0  0  0
    3.7921  -37.9624   -7.5415 C   0  0  0  0  0  0  0  0  0  0  0  0
    3.4908  -36.9009   -8.3119 N   0  0  0  0  0  0  0  0  0  0  0  0
    2.5565  -36.9933   -9.2883 C   0  0  0  0  0  0  0  0  0  0  0  0
    1.8747  -38.2812   -9.4920 C   0  0  0  0  0  0  0  0  0  0  0  0
    2.2614  -39.4036   -8.6045 C   0  0  0  0  0  0  0  0  0  0  0  0
    1.6826  -40.6227   -8.7244 N   0  0  0  0  0  0  0  0  0  0  0  0
    1.0093  -38.1010  -10.5073 N   0  0  0  0  0  0  0  0  0  0  0  0
    1.1257  -36.8123  -10.9184 C   0  0  0  0  0  0  0  0  0  0  0  0
    2.0476  -36.1519  -10.1917 N   0  0  0  0  0  0  0  0  0  0  0  0
   12.7066  -34.6681  -18.0437 N   0  0  0  0  0  0  0  0  0  0  0  0
   11.8532  -33.9250  -18.7724 C   0  0  0  0  0  0  0  0  0  0  0  0
   10.5286  -33.8690  -18.5446 N   0  0  0  0  0  0  0  0  0  0  0  0
    9.9667  -34.5802  -17.5375 C   0  0  0  0  0  0  0  0  0  0  0  0
   10.8348  -35.4174  -16.6951 C   0  0  0  0  0  0  0  0  0  0  0  0
   12.2831  -35.4259  -17.0092 C   0  0  0  0  0  0  0  0  0  0  0  0
   13.1528  -36.1696  -16.2822 N   0  0  0  0  0  0  0  0  0  0  0  0
   10.0352  -36.0058  -15.7855 N   0  0  0  0  0  0  0  0  0  0  0  0
    8.7671  -35.5830  -16.0248 C   0  0  0  0  0  0  0  0  0  0  0  0
    8.7262  -34.7341  -17.0682 N   0  0  0  0  0  0  0  0  0  0  0  0
  1  3  1  6  0  0  0
  1  5  2  0  0  0  0
  1  9  1  0  0  0  0
  1 18  1  0  0  0  0
  2  4  1  6  0  0  0
  2  6  2  0  0  0  0
  2 10  1  0  0  0  0
  2 17  1  0  0  0  0
  7  9  1  0  0  0  0
  8 10  1  0  0  0  0
 11  7  1  6  0  0  0
 11 13  1  0  0  0  0
 11 15  1  0  0  0  0
 12  8  1  1  0  0  0
 12 14  1  0  0  0  0
 12 16  1  0  0  0  0
 13 21  1  0  0  0  0
 14 22  1  0  0  0  0
 15 17  1  1  0  0  0
 15 19  1  0  0  0  0
 16 18  1  6  0  0  0
 16 20  1  0  0  0  0
 19 21  1  0  0  0  0
 20 22  1  0  0  0  0
 21 32  1  6  0  0  0
 22 42  1  1  0  0  0
 23 24  2  0  0  0  0
 23 28  1  0  0  0  0
 24 25  1  0  0  0  0
 25 26  2  0  0  0  0
 26 27  1  0  0  0  0
 26 32  1  0  0  0  0
 27 28  2  0  0  0  0
 27 30  1  0  0  0  0
 28 29  1  0  0  0  0
 30 31  2  0  0  0  0
 31 32  1  0  0  0  0
 33 34  2  0  0  0  0
 33 38  1  0  0  0  0
 34 35  1  0  0  0  0
 35 36  2  0  0  0  0
 36 37  1  0  0  0  0
 36 42  1  0  0  0  0
 37 38  2  0  0  0  0
 37 40  1  0  0  0  0
 38 39  1  0  0  0  0
 40 41  2  0  0  0  0
 41 42  1  0  0  0  0
M  CHG  2   3  -1   4  -1
M  END
>  <CHROM.1>
-179.75336120,-73.36039508,5.46488799,-34.83011491,-13.84662044,0.77088951
0.27574072,-0.93859914

>  <Name>
ligand

>  <RI>
0

>  <Rbt.Current_Directory>
/home/itssahil/PROJECTS/Mol_Feturizer/New_Systems/rnas/4QLN

>  <Rbt.Executable>
rbdock ($Id: //depot/dev/client3/rdock/2013.1/src/exe/rbdock.cxx#4 $)

>  <Rbt.Library>
libRbt.so (2013.1, Build901 2013/11/27)

>  <Rbt.Parameter_File>
/export/apps/rDock/src/rDock_2013.1_src/data/scripts/dock_solv.prm

>  <Rbt.Receptor>
prm/pocket_docking_7.prm

>  <SCORE>
-14.4739

>  <SCORE.INTER>
-16.2416

>  <SCORE.INTER.CONST>
1

>  <SCORE.INTER.POLAR>
0

>  <SCORE.INTER.ROT>
2

>  <SCORE.INTER.SOLV>
16.5729

>  <SCORE.INTER.VDW>
-21.2854

>  <SCORE.INTER.norm>
-0.386705

>  <SCORE.INTRA>
1.76176

>  <SCORE.INTRA.DIHEDRAL>
-0.000332128

>  <SCORE.INTRA.DIHEDRAL.0>
2.39985

>  <SCORE.INTRA.POLAR>
0

>  <SCORE.INTRA.POLAR.0>
0

>  <SCORE.INTRA.REPUL>
0

>  <SCORE.INTRA.REPUL.0>
0

>  <SCORE.INTRA.SOLV>
-0.113771

>  <SCORE.INTRA.SOLV.lig_0>
-110.958

>  <SCORE.INTRA.VDW>
1.81881

>  <SCORE.INTRA.VDW.0>
-2.34644

>  <SCORE.INTRA.norm>
0.0419467

>  <SCORE.RESTR>
0.00596611

>  <SCORE.RESTR.CAVITY>
0.00596611

>  <SCORE.RESTR.norm>
0.00014205

>  <SCORE.SYSTEM>
0

>  <SCORE.SYSTEM.CONST>
0

>  <SCORE.SYSTEM.DIHEDRAL>
0

>  <SCORE.SYSTEM.SOLV>
0

>  <SCORE.SYSTEM.norm>
0

>  <SCORE.heavy>
42

>  <SCORE.norm>
-0.344616

>  <RMSD>
7.284

$$$$
ligand
 OpenBabel11021811513D
libRbt.so/2013.1/901 2013/11/27
 42 48  0  0  0  0  0  0  0  0999 V2000
    3.0643  -34.2192  -16.3160 P   0  0  2  0  0  0  0  0  0  0  0  0
    6.2037  -32.6617  -12.6783 P   0  0  1  0  0  0  0  0  0  0  0  0
    1.8170  -33.4129  -16.5937 O   0  5  0  0  0  0  0  0  0  0  0  0
    6.6986  -34.0677  -12.9207 O   0  5  0  0  0  0  0  0  0  0  0  0
    3.1904  -35.6222  -16.8597 O   0  0  0  0  0  0  0  0  0  0  0  0
    7.0300  -31.7029  -11.8554 O   0  0  0  0  0  0  0  0  0  0  0  0
    2.1647  -34.2973  -13.8378 C   0  0  0  0  0  0  0  0  0  0  0  0
    6.9551  -31.8267  -15.0640 C   0  0  0  0  0  0  0  0  0  0  0  0
    3.2837  -34.2745  -14.7224 O   0  0  0  0  0  0  0  0  0  0  0  0
    5.9101  -31.9775  -14.1060 O   0  0  0  0  0  0  0  0  0  0  0  0
    2.5407  -33.6188  -12.5260 C   0  0  1  0  0  0  0  0  0  0  0  0
    6.4889  -32.3545  -16.4150 C   0  0  1  0  0  0  0  0  0  0  0  0
    1.6769  -34.0760  -11.4818 O   0  0  0  0  0  0  0  0  0  0  0  0
    7.6219  -32.7113  -17.2106 O   0  0  0  0  0  0  0  0  0  0  0  0
    3.9690  -33.9475  -12.1254 C   0  0  1  0  0  0  0  0  0  0  0  0
    5.6247  -33.5951  -16.2546 C   0  0  1  0  0  0  0  0  0  0  0  0
    4.7353  -32.7512  -12.0227 O   0  0  0  0  0  0  0  0  0  0  0  0
    4.3355  -33.3681  -16.8166 O   0  0  0  0  0  0  0  0  0  0  0  0
    3.8892  -34.6315  -10.7733 C   0  0  0  0  0  0  0  0  0  0  0  0
    6.3296  -34.7094  -17.0037 C   0  0  0  0  0  0  0  0  0  0  0  0
    2.4109  -34.6874  -10.4176 C   0  0  2  0  0  0  0  0  0  0  0  0
    7.5921  -34.0904  -17.5866 C   0  0  2  0  0  0  0  0  0  0  0  0
    3.1788  -39.2345   -7.9050 N   0  0  0  0  0  0  0  0  0  0  0  0
    3.8088  -38.0526   -7.7723 C   0  0  0  0  0  0  0  0  0  0  0  0
    3.5031  -36.9576   -8.4925 N   0  0  0  0  0  0  0  0  0  0  0  0
    2.5138  -36.9875   -9.4173 C   0  0  0  0  0  0  0  0  0  0  0  0
    1.7771  -38.2446   -9.6210 C   0  0  0  0  0  0  0  0  0  0  0  0
    2.1722  -39.4071   -8.7907 C   0  0  0  0  0  0  0  0  0  0  0  0
    1.5451  -40.6017   -8.9144 N   0  0  0  0  0  0  0  0  0  0  0  0
    0.8640  -38.0033  -10.5804 N   0  0  0  0  0  0  0  0  0  0  0  0
    1.0029  -36.7068  -10.9585 C   0  0  0  0  0  0  0  0  0  0  0  0
    1.9861  -36.1011  -10.2652 N   0  0  0  0  0  0  0  0  0  0  0  0
   12.7005  -35.1360  -18.2057 N   0  0  0  0  0  0  0  0  0  0  0  0
   11.8662  -34.4039  -18.9671 C   0  0  0  0  0  0  0  0  0  0  0  0
   10.5642  -34.2190  -18.6840 N   0  0  0  0  0  0  0  0  0  0  0  0
   10.0071  -34.7778  -17.5824 C   0  0  0  0  0  0  0  0  0  0  0  0
   10.8553  -35.5928  -16.6990 C   0  0  0  0  0  0  0  0  0  0  0  0
   12.2792  -35.7492  -17.0787 C   0  0  0  0  0  0  0  0  0  0  0  0
   13.1296  -36.4833  -16.3197 N   0  0  0  0  0  0  0  0  0  0  0  0
   10.0653  -36.0204  -15.6960 N   0  0  0  0  0  0  0  0  0  0  0  0
    8.8213  -35.5234  -15.9180 C   0  0  0  0  0  0  0  0  0  0  0  0
    8.7865  -34.7835  -17.0415 N   0  0  0  0  0  0  0  0  0  0  0  0
  1  3  1  6  0  0  0
  1  5  2  0  0  0  0
  1  9  1  0  0  0  0
  1 18  1  0  0  0  0
  2  4  1  6  0  0  0
  2  6  2  0  0  0  0
  2 10  1  0  0  0  0
  2 17  1  0  0  0  0
  7  9  1  0  0  0  0
  8 10  1  0  0  0  0
 11  7  1  6  0  0  0
 11 13  1  0  0  0  0
 11 15  1  0  0  0  0
 12  8  1  1  0  0  0
 12 14  1  0  0  0  0
 12 16  1  0  0  0  0
 13 21  1  0  0  0  0
 14 22  1  0  0  0  0
 15 17  1  1  0  0  0
 15 19  1  0  0  0  0
 16 18  1  6  0  0  0
 16 20  1  0  0  0  0
 19 21  1  0  0  0  0
 20 22  1  0  0  0  0
 21 32  1  6  0  0  0
 22 42  1  1  0  0  0
 23 24  2  0  0  0  0
 23 28  1  0  0  0  0
 24 25  1  0  0  0  0
 25 26  2  0  0  0  0
 26 27  1  0  0  0  0
 26 32  1  0  0  0  0
 27 28  2  0  0  0  0
 27 30  1  0  0  0  0
 28 29  1  0  0  0  0
 30 31  2  0  0  0  0
 31 32  1  0  0  0  0
 33 34  2  0  0  0  0
 33 38  1  0  0  0  0
 34 35  1  0  0  0  0
 35 36  2  0  0  0  0
 36 37  1  0  0  0  0
 36 42  1  0  0  0  0
 37 38  2  0  0  0  0
 37 40  1  0  0  0  0
 38 39  1  0  0  0  0
 40 41  2  0  0  0  0
 41 42  1  0  0  0  0
M  CHG  2   3  -1   4  -1
M  END
>  <CHROM.1>
176.16656165,-81.43782626,5.48836821,-34.86060996,-13.89290605,0.73388707
0.32562900,-0.89806791

>  <Name>
ligand

>  <RI>
0

>  <Rbt.Current_Directory>
/home/itssahil/PROJECTS/Mol_Feturizer/New_Systems/rnas/4QLN

>  <Rbt.Executable>
rbdock ($Id: //depot/dev/client3/rdock/2013.1/src/exe/rbdock.cxx#4 $)

>  <Rbt.Library>
libRbt.so (2013.1, Build901 2013/11/27)

>  <Rbt.Parameter_File>
/export/apps/rDock/src/rDock_2013.1_src/data/scripts/dock_solv.prm

>  <Rbt.Receptor>
prm/pocket_docking_7.prm

>  <SCORE>
-14.749

>  <SCORE.INTER>
-16.4512

>  <SCORE.INTER.CONST>
1

>  <SCORE.INTER.POLAR>
0

>  <SCORE.INTER.ROT>
2

>  <SCORE.INTER.SOLV>
17.2526

>  <SCORE.INTER.VDW>
-21.6517

>  <SCORE.INTER.norm>
-0.391695

>  <SCORE.INTRA>
1.70224

>  <SCORE.INTRA.DIHEDRAL>
-0.00058113

>  <SCORE.INTRA.DIHEDRAL.0>
2.39985

>  <SCORE.INTRA.POLAR>
0

>  <SCORE.INTRA.POLAR.0>
0

>  <SCORE.INTRA.REPUL>
0

>  <SCORE.INTRA.REPUL.0>
0

>  <SCORE.INTRA.SOLV>
-0.0925239

>  <SCORE.INTRA.SOLV.lig_0>
-110.958

>  <SCORE.INTRA.VDW>
1.74879

>  <SCORE.INTRA.VDW.0>
-2.34644

>  <SCORE.INTRA.norm>
0.0405294

>  <SCORE.RESTR>
0

>  <SCORE.RESTR.CAVITY>
0

>  <SCORE.RESTR.norm>
0

>  <SCORE.SYSTEM>
0

>  <SCORE.SYSTEM.CONST>
0

>  <SCORE.SYSTEM.DIHEDRAL>
0

>  <SCORE.SYSTEM.SOLV>
0

>  <SCORE.SYSTEM.norm>
0

>  <SCORE.heavy>
42

>  <SCORE.norm>
-0.351166

>  <RMSD>
7.297

$$$$
ligand
 OpenBabel11021811513D
libRbt.so/2013.1/901 2013/11/27
 42 48  0  0  0  0  0  0  0  0999 V2000
    2.5458  -36.4608  -17.0338 P   0  0  2  0  0  0  0  0  0  0  0  0
    4.5145  -32.6260  -14.4010 P   0  0  1  0  0  0  0  0  0  0  0  0
    1.3699  -36.1899  -17.9431 O   0  5  0  0  0  0  0  0  0  0  0  0
    5.1394  -33.8156  -13.7119 O   0  5  0  0  0  0  0  0  0  0  0  0
    2.8949  -37.8808  -16.6574 O   0  0  0  0  0  0  0  0  0  0  0  0
    5.0353  -31.2358  -14.1256 O   0  0  0  0  0  0  0  0  0  0  0  0
    1.0305  -35.3855  -15.1618 C   0  0  0  0  0  0  0  0  0  0  0  0
    5.8172  -33.0577  -16.6526 C   0  0  0  0  0  0  0  0  0  0  0  0
    2.3397  -35.6163  -15.6791 O   0  0  0  0  0  0  0  0  0  0  0  0
    4.5675  -32.8787  -15.9903 O   0  0  0  0  0  0  0  0  0  0  0  0
    1.0055  -34.0553  -14.4184 C   0  0  1  0  0  0  0  0  0  0  0  0
    5.7567  -34.3023  -17.5292 C   0  0  1  0  0  0  0  0  0  0  0  0
   -0.0741  -34.0475  -13.4805 O   0  0  0  0  0  0  0  0  0  0  0  0
    7.0788  -34.7957  -17.7583 O   0  0  0  0  0  0  0  0  0  0  0  0
    2.2946  -33.8318  -13.6459 C   0  0  1  0  0  0  0  0  0  0  0  0
    4.9569  -35.4094  -16.8613 C   0  0  1  0  0  0  0  0  0  0  0  0
    2.9333  -32.6406  -14.0952 O   0  0  0  0  0  0  0  0  0  0  0  0
    3.8505  -35.7751  -17.6806 O   0  0  0  0  0  0  0  0  0  0  0  0
    1.9020  -33.6927  -12.1867 C   0  0  0  0  0  0  0  0  0  0  0  0
    5.9001  -36.5866  -16.7055 C   0  0  0  0  0  0  0  0  0  0  0  0
    0.3884  -33.8410  -12.1431 C   0  0  2  0  0  0  0  0  0  0  0  0
    7.2321  -36.1376  -17.2894 C   0  0  2  0  0  0  0  0  0  0  0  0
   -0.6954  -38.9783  -12.0331 N   0  0  0  0  0  0  0  0  0  0  0  0
   -0.3797  -38.1800  -13.0696 C   0  0  0  0  0  0  0  0  0  0  0  0
   -0.1241  -36.8643  -12.9491 N   0  0  0  0  0  0  0  0  0  0  0  0
   -0.1717  -36.2546  -11.7404 C   0  0  0  0  0  0  0  0  0  0  0  0
   -0.5099  -37.0609  -10.5570 C   0  0  0  0  0  0  0  0  0  0  0  0
   -0.7790  -38.5028  -10.7704 C   0  0  0  0  0  0  0  0  0  0  0  0
   -1.0970  -39.3166   -9.7349 N   0  0  0  0  0  0  0  0  0  0  0  0
   -0.4880  -36.2237   -9.5031 N   0  0  0  0  0  0  0  0  0  0  0  0
   -0.1647  -34.9901   -9.9689 C   0  0  0  0  0  0  0  0  0  0  0  0
    0.0241  -35.0084  -11.3025 N   0  0  0  0  0  0  0  0  0  0  0  0
   11.9640  -37.9496  -15.9114 N   0  0  0  0  0  0  0  0  0  0  0  0
   11.2647  -38.1256  -17.0479 C   0  0  0  0  0  0  0  0  0  0  0  0
   10.0480  -37.5953  -17.2667 N   0  0  0  0  0  0  0  0  0  0  0  0
    9.4439  -36.8317  -16.3243 C   0  0  0  0  0  0  0  0  0  0  0  0
   10.1455  -36.5927  -15.0536 C   0  0  0  0  0  0  0  0  0  0  0  0
   11.4822  -37.2109  -14.8886 C   0  0  0  0  0  0  0  0  0  0  0  0
   12.1966  -37.0404  -13.7491 N   0  0  0  0  0  0  0  0  0  0  0  0
    9.3367  -35.8155  -14.3089 N   0  0  0  0  0  0  0  0  0  0  0  0
    8.2161  -35.5783  -15.0382 C   0  0  0  0  0  0  0  0  0  0  0  0
    8.2797  -36.1836  -16.2384 N   0  0  0  0  0  0  0  0  0  0  0  0
  1  3  1  6  0  0  0
  1  5  2  0  0  0  0
  1  9  1  0  0  0  0
  1 18  1  0  0  0  0
  2  4  1  1  0  0  0
  2  6  2  0  0  0  0
  2 10  1  0  0  0  0
  2 17  1  0  0  0  0
  7  9  1  0  0  0  0
  8 10  1  0  0  0  0
 11  7  1  1  0  0  0
 11 13  1  0  0  0  0
 11 15  1  0  0  0  0
 12  8  1  1  0  0  0
 12 14  1  0  0  0  0
 12 16  1  0  0  0  0
 13 21  1  0  0  0  0
 14 22  1  0  0  0  0
 15 17  1  6  0  0  0
 15 19  1  0  0  0  0
 16 18  1  6  0  0  0
 16 20  1  0  0  0  0
 19 21  1  0  0  0  0
 20 22  1  0  0  0  0
 21 32  1  1  0  0  0
 22 42  1  1  0  0  0
 23 24  2  0  0  0  0
 23 28  1  0  0  0  0
 24 25  1  0  0  0  0
 25 26  2  0  0  0  0
 26 27  1  0  0  0  0
 26 32  1  0  0  0  0
 27 28  2  0  0  0  0
 27 30  1  0  0  0  0
 28 29  1  0  0  0  0
 30 31  2  0  0  0  0
 31 32  1  0  0  0  0
 33 34  2  0  0  0  0
 33 38  1  0  0  0  0
 34 35  1  0  0  0  0
 35 36  2  0  0  0  0
 36 37  1  0  0  0  0
 36 42  1  0  0  0  0
 37 38  2  0  0  0  0
 37 40  1  0  0  0  0
 38 39  1  0  0  0  0
 40 41  2  0  0  0  0
 41 42  1  0  0  0  0
M  CHG  2   3  -1   4  -1
M  END
>  <CHROM.1>
26.18596315,-115.68023564,4.12699240,-35.59418241,-14.62367935,2.91770396
-0.34268709,2.49880345

>  <Name>
ligand

>  <RI>
0

>  <Rbt.Current_Directory>
/home/itssahil/PROJECTS/Mol_Feturizer/New_Systems/rnas/4QLN

>  <Rbt.Executable>
rbdock ($Id: //depot/dev/client3/rdock/2013.1/src/exe/rbdock.cxx#4 $)

>  <Rbt.Library>
libRbt.so (2013.1, Build901 2013/11/27)

>  <Rbt.Parameter_File>
/export/apps/rDock/src/rDock_2013.1_src/data/scripts/dock_solv.prm

>  <Rbt.Receptor>
prm/pocket_docking_7.prm

>  <SCORE>
-13.5607

>  <SCORE.INTER>
-13.9069

>  <SCORE.INTER.CONST>
1

>  <SCORE.INTER.POLAR>
0

>  <SCORE.INTER.ROT>
2

>  <SCORE.INTER.SOLV>
16.5234

>  <SCORE.INTER.VDW>
-19.7124

>  <SCORE.INTER.norm>
-0.331117

>  <SCORE.INTRA>
0.340694

>  <SCORE.INTRA.DIHEDRAL>
-0.00027528

>  <SCORE.INTRA.DIHEDRAL.0>
2.39985

>  <SCORE.INTRA.POLAR>
0

>  <SCORE.INTRA.POLAR.0>
0

>  <SCORE.INTRA.REPUL>
0

>  <SCORE.INTRA.REPUL.0>
0

>  <SCORE.INTRA.SOLV>
0.0299513

>  <SCORE.INTRA.SOLV.lig_0>
-110.958

>  <SCORE.INTRA.VDW>
0.325856

>  <SCORE.INTRA.VDW.0>
-2.34644

>  <SCORE.INTRA.norm>
0.00811177

>  <SCORE.RESTR>
0.00554491

>  <SCORE.RESTR.CAVITY>
0.00554491

>  <SCORE.RESTR.norm>
0.000132022

>  <SCORE.SYSTEM>
0

>  <SCORE.SYSTEM.CONST>
0

>  <SCORE.SYSTEM.DIHEDRAL>
0

>  <SCORE.SYSTEM.SOLV>
0

>  <SCORE.SYSTEM.norm>
0

>  <SCORE.heavy>
42

>  <SCORE.norm>
-0.322873

>  <RMSD>
7.318

$$$$
ligand
 OpenBabel11021811513D
libRbt.so/2013.1/901 2013/11/27
 42 48  0  0  0  0  0  0  0  0999 V2000
    2.2301  -36.3046  -17.2445 P   0  0  2  0  0  0  0  0  0  0  0  0
    4.2072  -32.7398  -14.2617 P   0  0  1  0  0  0  0  0  0  0  0  0
    1.0662  -35.9417  -18.1370 O   0  5  0  0  0  0  0  0  0  0  0  0
    4.8139  -33.9924  -13.6756 O   0  5  0  0  0  0  0  0  0  0  0  0
    2.5623  -37.7560  -16.9931 O   0  0  0  0  0  0  0  0  0  0  0  0
    4.7380  -31.3851  -13.8585 O   0  0  0  0  0  0  0  0  0  0  0  0
    0.7057  -35.3851  -15.2983 C   0  0  0  0  0  0  0  0  0  0  0  0
    5.5289  -32.9823  -16.5305 C   0  0  0  0  0  0  0  0  0  0  0  0
    2.0180  -35.5822  -15.8219 O   0  0  0  0  0  0  0  0  0  0  0  0
    4.2741  -32.8505  -15.8666 O   0  0  0  0  0  0  0  0  0  0  0  0
    0.6855  -34.1263  -14.4395 C   0  0  1  0  0  0  0  0  0  0  0  0
    5.4658  -34.1431  -17.5152 C   0  0  1  0  0  0  0  0  0  0  0  0
   -0.4036  -34.1911  -13.5148 O   0  0  0  0  0  0  0  0  0  0  0  0
    6.7856  -34.6276  -17.7750 O   0  0  0  0  0  0  0  0  0  0  0  0
    1.9686  -33.9856  -13.6380 C   0  0  1  0  0  0  0  0  0  0  0  0
    4.6490  -35.2973  -16.9562 C   0  0  1  0  0  0  0  0  0  0  0  0
    2.6229  -32.7657  -13.9732 O   0  0  0  0  0  0  0  0  0  0  0  0
    3.5477  -35.5772  -17.8153 O   0  0  0  0  0  0  0  0  0  0  0  0
    1.5624  -33.9731  -12.1760 C   0  0  0  0  0  0  0  0  0  0  0  0
    5.5796  -36.4932  -16.8973 C   0  0  0  0  0  0  0  0  0  0  0  0
    0.0471  -34.1094  -12.1600 C   0  0  2  0  0  0  0  0  0  0  0  0
    6.9216  -36.0074  -17.4262 C   0  0  2  0  0  0  0  0  0  0  0  0
   -2.2971  -38.8003  -12.4385 N   0  0  0  0  0  0  0  0  0  0  0  0
   -2.1193  -37.8615  -13.3863 C   0  0  0  0  0  0  0  0  0  0  0  0
   -1.4922  -36.6906  -13.1702 N   0  0  0  0  0  0  0  0  0  0  0  0
   -0.9903  -36.3856  -11.9496 C   0  0  0  0  0  0  0  0  0  0  0  0
   -1.1446  -37.3620  -10.8598 C   0  0  0  0  0  0  0  0  0  0  0  0
   -1.8473  -38.6283  -11.1753 C   0  0  0  0  0  0  0  0  0  0  0  0
   -2.0318  -39.5813  -10.2301 N   0  0  0  0  0  0  0  0  0  0  0  0
   -0.5663  -36.8183   -9.7725 N   0  0  0  0  0  0  0  0  0  0  0  0
   -0.0842  -35.6014  -10.1326 C   0  0  0  0  0  0  0  0  0  0  0  0
   -0.3366  -35.3433  -11.4304 N   0  0  0  0  0  0  0  0  0  0  0  0
   11.7992  -37.5846  -16.2887 N   0  0  0  0  0  0  0  0  0  0  0  0
   11.1329  -37.6002  -17.4580 C   0  0  0  0  0  0  0  0  0  0  0  0
    9.8708  -37.1585  -17.6050 N   0  0  0  0  0  0  0  0  0  0  0  0
    9.1828  -36.6590  -16.5500 C   0  0  0  0  0  0  0  0  0  0  0  0
    9.8437  -36.6083  -15.2368 C   0  0  0  0  0  0  0  0  0  0  0  0
   11.2347  -37.1133  -15.1561 C   0  0  0  0  0  0  0  0  0  0  0  0
   11.9166  -37.1023  -13.9844 N   0  0  0  0  0  0  0  0  0  0  0  0
    8.9527  -36.0764  -14.3789 N   0  0  0  0  0  0  0  0  0  0  0  0
    7.8211  -35.8104  -15.0808 C   0  0  0  0  0  0  0  0  0  0  0  0
    7.9580  -36.1575  -16.3738 N   0  0  0  0  0  0  0  0  0  0  0  0
  1  3  1  6  0  0  0
  1  5  2  0  0  0  0
  1  9  1  0  0  0  0
  1 18  1  0  0  0  0
  2  4  1  1  0  0  0
  2  6  2  0  0  0  0
  2 10  1  0  0  0  0
  2 17  1  0  0  0  0
  7  9  1  0  0  0  0
  8 10  1  0  0  0  0
 11  7  1  1  0  0  0
 11 13  1  0  0  0  0
 11 15  1  0  0  0  0
 12  8  1  1  0  0  0
 12 14  1  0  0  0  0
 12 16  1  0  0  0  0
 13 21  1  0  0  0  0
 14 22  1  0  0  0  0
 15 17  1  6  0  0  0
 15 19  1  0  0  0  0
 16 18  1  6  0  0  0
 16 20  1  0  0  0  0
 19 21  1  0  0  0  0
 20 22  1  0  0  0  0
 21 32  1  1  0  0  0
 22 42  1  1  0  0  0
 23 24  2  0  0  0  0
 23 28  1  0  0  0  0
 24 25  1  0  0  0  0
 25 26  2  0  0  0  0
 26 27  1  0  0  0  0
 26 32  1  0  0  0  0
 27 28  2  0  0  0  0
 27 30  1  0  0  0  0
 28 29  1  0  0  0  0
 30 31  2  0  0  0  0
 31 32  1  0  0  0  0
 33 34  2  0  0  0  0
 33 38  1  0  0  0  0
 34 35  1  0  0  0  0
 35 36  2  0  0  0  0
 36 37  1  0  0  0  0
 36 42  1  0  0  0  0
 37 38  2  0  0  0  0
 37 40  1  0  0  0  0
 38 39  1  0  0  0  0
 40 41  2  0  0  0  0
 41 42  1  0  0  0  0
M  CHG  2   3  -1   4  -1
M  END
>  <CHROM.1>
0.66809898,-106.78362769,3.70950278,-35.60471873,-14.75500062,2.87347705
-0.28047622,2.42621555

>  <Name>
ligand

>  <RI>
0

>  <Rbt.Current_Directory>
/home/itssahil/PROJECTS/Mol_Feturizer/New_Systems/rnas/4QLN

>  <Rbt.Executable>
rbdock ($Id: //depot/dev/client3/rdock/2013.1/src/exe/rbdock.cxx#4 $)

>  <Rbt.Library>
libRbt.so (2013.1, Build901 2013/11/27)

>  <Rbt.Parameter_File>
/export/apps/rDock/src/rDock_2013.1_src/data/scripts/dock_solv.prm

>  <Rbt.Receptor>
prm/pocket_docking_8.prm

>  <SCORE>
-14.2847

>  <SCORE.INTER>
-15.0799

>  <SCORE.INTER.CONST>
1

>  <SCORE.INTER.POLAR>
0

>  <SCORE.INTER.ROT>
2

>  <SCORE.INTER.SOLV>
17.8806

>  <SCORE.INTER.VDW>
-20.9468

>  <SCORE.INTER.norm>
-0.359046

>  <SCORE.INTRA>
0.795215

>  <SCORE.INTRA.DIHEDRAL>
-0.000339461

>  <SCORE.INTRA.DIHEDRAL.0>
2.39985

>  <SCORE.INTRA.POLAR>
0

>  <SCORE.INTRA.POLAR.0>
0

>  <SCORE.INTRA.REPUL>
0

>  <SCORE.INTRA.REPUL.0>
0

>  <SCORE.INTRA.SOLV>
0.0231506

>  <SCORE.INTRA.SOLV.lig_0>
-110.958

>  <SCORE.INTRA.VDW>
0.78381

>  <SCORE.INTRA.VDW.0>
-2.34644

>  <SCORE.INTRA.norm>
0.0189337

>  <SCORE.RESTR>
0

>  <SCORE.RESTR.CAVITY>
0

>  <SCORE.RESTR.norm>
0

>  <SCORE.SYSTEM>
0

>  <SCORE.SYSTEM.CONST>
0

>  <SCORE.SYSTEM.DIHEDRAL>
0

>  <SCORE.SYSTEM.SOLV>
0

>  <SCORE.SYSTEM.norm>
0

>  <SCORE.heavy>
42

>  <SCORE.norm>
-0.340112

>  <RMSD>
7.340

$$$$
ligand
 OpenBabel11021811513D
libRbt.so/2013.1/901 2013/11/27
 42 48  0  0  0  0  0  0  0  0999 V2000
    8.2953  -31.3561  -15.0561 P   0  0  2  0  0  0  0  0  0  0  0  0
    5.9152  -35.3783  -16.9722 P   0  0  1  0  0  0  0  0  0  0  0  0
    8.8164  -30.3007  -16.0035 O   0  5  0  0  0  0  0  0  0  0  0  0
    6.1762  -35.8304  -15.5552 O   0  5  0  0  0  0  0  0  0  0  0  0
    8.7735  -31.3846  -13.6241 O   0  0  0  0  0  0  0  0  0  0  0  0
    4.9683  -36.1600  -17.8507 O   0  0  0  0  0  0  0  0  0  0  0  0
    9.7317  -33.0212  -16.5126 C   0  0  0  0  0  0  0  0  0  0  0  0
    4.2321  -33.4933  -16.2187 C   0  0  0  0  0  0  0  0  0  0  0  0
    8.5736  -32.8006  -15.7094 O   0  0  0  0  0  0  0  0  0  0  0  0
    5.4162  -33.8480  -16.9292 O   0  0  0  0  0  0  0  0  0  0  0  0
    9.4270  -34.0837  -17.5618 C   0  0  1  0  0  0  0  0  0  0  0  0
    4.5214  -32.3108  -15.3027 C   0  0  1  0  0  0  0  0  0  0  0  0
   10.6457  -34.6866  -18.0053 O   0  0  0  0  0  0  0  0  0  0  0  0
    3.5724  -32.2851  -14.2339 O   0  0  0  0  0  0  0  0  0  0  0  0
    8.5446  -35.1821  -16.9933 C   0  0  1  0  0  0  0  0  0  0  0  0
    5.9089  -32.4141  -14.6897 C   0  0  1  0  0  0  0  0  0  0  0  0
    7.3302  -35.2654  -17.7330 O   0  0  0  0  0  0  0  0  0  0  0  0
    6.6877  -31.2769  -15.0496 O   0  0  0  0  0  0  0  0  0  0  0  0
    9.3266  -36.4752  -17.1304 C   0  0  0  0  0  0  0  0  0  0  0  0
    5.7123  -32.4550  -13.1865 C   0  0  0  0  0  0  0  0  0  0  0  0
   10.6518  -36.0982  -17.7759 C   0  0  2  0  0  0  0  0  0  0  0  0
    4.2098  -32.3731  -12.9572 C   0  0  2  0  0  0  0  0  0  0  0  0
   13.5224  -39.9627  -15.6773 N   0  0  0  0  0  0  0  0  0  0  0  0
   12.4941  -40.0179  -16.5439 C   0  0  0  0  0  0  0  0  0  0  0  0
   11.8436  -38.9326  -17.0021 N   0  0  0  0  0  0  0  0  0  0  0  0
   12.2008  -37.6882  -16.6037 C   0  0  0  0  0  0  0  0  0  0  0  0
   13.3175  -37.5447  -15.6564 C   0  0  0  0  0  0  0  0  0  0  0  0
   13.9837  -38.7864  -15.1967 C   0  0  0  0  0  0  0  0  0  0  0  0
   15.0202  -38.7438  -14.3253 N   0  0  0  0  0  0  0  0  0  0  0  0
   13.4619  -36.2254  -15.4303 N   0  0  0  0  0  0  0  0  0  0  0  0
   12.5215  -35.5802  -16.1668 C   0  0  0  0  0  0  0  0  0  0  0  0
   11.7698  -36.4519  -16.8664 N   0  0  0  0  0  0  0  0  0  0  0  0
    2.0154  -37.1219  -13.4104 N   0  0  0  0  0  0  0  0  0  0  0  0
    2.3139  -36.2105  -14.3546 C   0  0  0  0  0  0  0  0  0  0  0  0
    2.8819  -35.0198  -14.0912 N   0  0  0  0  0  0  0  0  0  0  0  0
    3.1931  -34.6650  -12.8210 C   0  0  0  0  0  0  0  0  0  0  0  0
    2.8974  -35.6089  -11.7321 C   0  0  0  0  0  0  0  0  0  0  0  0
    2.2716  -36.9001  -12.1031 C   0  0  0  0  0  0  0  0  0  0  0  0
    1.9669  -37.8265  -11.1614 N   0  0  0  0  0  0  0  0  0  0  0  0
    3.3006  -35.0177  -10.5917 N   0  0  0  0  0  0  0  0  0  0  0  0
    3.8090  -33.8024  -10.9212 C   0  0  0  0  0  0  0  0  0  0  0  0
    3.7449  -33.5922  -12.2489 N   0  0  0  0  0  0  0  0  0  0  0  0
  1  3  1  6  0  0  0
  1  5  2  0  0  0  0
  1  9  1  0  0  0  0
  1 18  1  0  0  0  0
  2  4  1  1  0  0  0
  2  6  2  0  0  0  0
  2 10  1  0  0  0  0
  2 17  1  0  0  0  0
  7  9  1  0  0  0  0
  8 10  1  0  0  0  0
 11  7  1  1  0  0  0
 11 13  1  0  0  0  0
 11 15  1  0  0  0  0
 12  8  1  6  0  0  0
 12 14  1  0  0  0  0
 12 16  1  0  0  0  0
 13 21  1  0  0  0  0
 14 22  1  0  0  0  0
 15 17  1  6  0  0  0
 15 19  1  0  0  0  0
 16 18  1  1  0  0  0
 16 20  1  0  0  0  0
 19 21  1  0  0  0  0
 20 22  1  0  0  0  0
 21 32  1  1  0  0  0
 22 42  1  6  0  0  0
 23 24  2  0  0  0  0
 23 28  1  0  0  0  0
 24 25  1  0  0  0  0
 25 26  2  0  0  0  0
 26 27  1  0  0  0  0
 26 32  1  0  0  0  0
 27 28  2  0  0  0  0
 27 30  1  0  0  0  0
 28 29  1  0  0  0  0
 30 31  2  0  0  0  0
 31 32  1  0  0  0  0
 33 34  2  0  0  0  0
 33 38  1  0  0  0  0
 34 35  1  0  0  0  0
 35 36  2  0  0  0  0
 36 37  1  0  0  0  0
 36 42  1  0  0  0  0
 37 38  2  0  0  0  0
 37 40  1  0  0  0  0
 38 39  1  0  0  0  0
 40 41  2  0  0  0  0
 41 42  1  0  0  0  0
M  CHG  2   3  -1   4  -1
M  END
>  <CHROM.1>
-168.96392157,20.69291894,7.47697211,-34.91031761,-15.19753212,-2.90504436
-0.37572730,2.94067074

>  <Name>
ligand

>  <RI>
0

>  <Rbt.Current_Directory>
/home/itssahil/PROJECTS/Mol_Feturizer/New_Systems/rnas/4QLN

>  <Rbt.Executable>
rbdock ($Id: //depot/dev/client3/rdock/2013.1/src/exe/rbdock.cxx#4 $)

>  <Rbt.Library>
libRbt.so (2013.1, Build901 2013/11/27)

>  <Rbt.Parameter_File>
/export/apps/rDock/src/rDock_2013.1_src/data/scripts/dock_solv.prm

>  <Rbt.Receptor>
prm/pocket_docking_7.prm

>  <SCORE>
-13.1333

>  <SCORE.INTER>
-13.2674

>  <SCORE.INTER.CONST>
1

>  <SCORE.INTER.POLAR>
0

>  <SCORE.INTER.ROT>
2

>  <SCORE.INTER.SOLV>
13.142

>  <SCORE.INTER.VDW>
-18.159

>  <SCORE.INTER.norm>
-0.315891

>  <SCORE.INTRA>
0.134101

>  <SCORE.INTRA.DIHEDRAL>
-0.000372399

>  <SCORE.INTRA.DIHEDRAL.0>
2.39985

>  <SCORE.INTRA.POLAR>
0

>  <SCORE.INTRA.POLAR.0>
0

>  <SCORE.INTRA.REPUL>
0

>  <SCORE.INTRA.REPUL.0>
0

>  <SCORE.INTRA.SOLV>
0.0641456

>  <SCORE.INTRA.SOLV.lig_0>
-110.958

>  <SCORE.INTRA.VDW>
0.102215

>  <SCORE.INTRA.VDW.0>
-2.34644

>  <SCORE.INTRA.norm>
0.00319289

>  <SCORE.RESTR>
0

>  <SCORE.RESTR.CAVITY>
0

>  <SCORE.RESTR.norm>
0

>  <SCORE.SYSTEM>
0

>  <SCORE.SYSTEM.CONST>
0

>  <SCORE.SYSTEM.DIHEDRAL>
0

>  <SCORE.SYSTEM.SOLV>
0

>  <SCORE.SYSTEM.norm>
0

>  <SCORE.heavy>
42

>  <SCORE.norm>
-0.312698

>  <RMSD>
7.345

$$$$
ligand
 OpenBabel11021811513D
libRbt.so/2013.1/901 2013/11/27
 42 48  0  0  0  0  0  0  0  0999 V2000
    2.1013  -36.1322  -17.2050 P   0  0  2  0  0  0  0  0  0  0  0  0
    4.3304  -32.8000  -14.1321 P   0  0  1  0  0  0  0  0  0  0  0  0
    0.9540  -35.6671  -18.0712 O   0  5  0  0  0  0  0  0  0  0  0  0
    4.8620  -34.1071  -13.5943 O   0  5  0  0  0  0  0  0  0  0  0  0
    2.3429  -37.6091  -17.0046 O   0  0  0  0  0  0  0  0  0  0  0  0
    4.9502  -31.4956  -13.6917 O   0  0  0  0  0  0  0  0  0  0  0  0
    0.6578  -35.1830  -15.2119 C   0  0  0  0  0  0  0  0  0  0  0  0
    5.6115  -33.0504  -16.4233 C   0  0  0  0  0  0  0  0  0  0  0  0
    1.9496  -35.4452  -15.7572 O   0  0  0  0  0  0  0  0  0  0  0  0
    4.3743  -32.8616  -15.7405 O   0  0  0  0  0  0  0  0  0  0  0  0
    0.7261  -33.9545  -14.3126 C   0  0  1  0  0  0  0  0  0  0  0  0
    5.4650  -34.1718  -17.4442 C   0  0  1  0  0  0  0  0  0  0  0  0
   -0.3557  -33.9808  -13.3774 O   0  0  0  0  0  0  0  0  0  0  0  0
    6.7486  -34.7298  -17.7354 O   0  0  0  0  0  0  0  0  0  0  0  0
    2.0234  -33.9218  -13.5224 C   0  0  1  0  0  0  0  0  0  0  0  0
    4.5820  -35.2898  -16.9132 C   0  0  1  0  0  0  0  0  0  0  0  0
    2.7506  -32.7352  -13.8257 O   0  0  0  0  0  0  0  0  0  0  0  0
    3.4567  -35.4710  -17.7676 O   0  0  0  0  0  0  0  0  0  0  0  0
    1.6333  -33.9319  -12.0560 C   0  0  0  0  0  0  0  0  0  0  0  0
    5.4353  -36.5434  -16.9041 C   0  0  0  0  0  0  0  0  0  0  0  0
    0.1127  -33.9726  -12.0262 C   0  0  2  0  0  0  0  0  0  0  0  0
    6.8001  -36.1263  -17.4331 C   0  0  2  0  0  0  0  0  0  0  0  0
   -1.6714  -38.8831  -12.5576 N   0  0  0  0  0  0  0  0  0  0  0  0
   -1.3335  -37.9766  -13.4932 C   0  0  0  0  0  0  0  0  0  0  0  0
   -0.8859  -36.7398  -13.2086 N   0  0  0  0  0  0  0  0  0  0  0  0
   -0.7466  -36.3291  -11.9253 C   0  0  0  0  0  0  0  0  0  0  0  0
   -1.0957  -37.2639  -10.8441 C   0  0  0  0  0  0  0  0  0  0  0  0
   -1.5820  -38.6078  -11.2371 C   0  0  0  0  0  0  0  0  0  0  0  0
   -1.9245  -39.5291  -10.3046 N   0  0  0  0  0  0  0  0  0  0  0  0
   -0.8686  -36.6145   -9.6869 N   0  0  0  0  0  0  0  0  0  0  0  0
   -0.4145  -35.3735   -9.9982 C   0  0  0  0  0  0  0  0  0  0  0  0
   -0.3415  -35.2033  -11.3324 N   0  0  0  0  0  0  0  0  0  0  0  0
   11.7926  -37.4405  -16.4736 N   0  0  0  0  0  0  0  0  0  0  0  0
   11.1427  -37.2972  -17.6434 C   0  0  0  0  0  0  0  0  0  0  0  0
    9.8462  -36.9519  -17.7408 N   0  0  0  0  0  0  0  0  0  0  0  0
    9.1035  -36.7230  -16.6308 C   0  0  0  0  0  0  0  0  0  0  0  0
    9.7433  -36.8594  -15.3132 C   0  0  0  0  0  0  0  0  0  0  0  0
   11.1747  -37.2426  -15.2892 C   0  0  0  0  0  0  0  0  0  0  0  0
   11.8406  -37.3894  -14.1174 N   0  0  0  0  0  0  0  0  0  0  0  0
    8.7975  -36.5803  -14.3966 N   0  0  0  0  0  0  0  0  0  0  0  0
    7.6531  -36.2912  -15.0679 C   0  0  0  0  0  0  0  0  0  0  0  0
    7.8352  -36.3763  -16.3986 N   0  0  0  0  0  0  0  0  0  0  0  0
  1  3  1  6  0  0  0
  1  5  2  0  0  0  0
  1  9  1  0  0  0  0
  1 18  1  0  0  0  0
  2  4  1  1  0  0  0
  2  6  2  0  0  0  0
  2 10  1  0  0  0  0
  2 17  1  0  0  0  0
  7  9  1  0  0  0  0
  8 10  1  0  0  0  0
 11  7  1  1  0  0  0
 11 13  1  0  0  0  0
 11 15  1  0  0  0  0
 12  8  1  1  0  0  0
 12 14  1  0  0  0  0
 12 16  1  0  0  0  0
 13 21  1  0  0  0  0
 14 22  1  0  0  0  0
 15 17  1  1  0  0  0
 15 19  1  0  0  0  0
 16 18  1  6  0  0  0
 16 20  1  0  0  0  0
 19 21  1  0  0  0  0
 20 22  1  0  0  0  0
 21 32  1  6  0  0  0
 22 42  1  1  0  0  0
 23 24  2  0  0  0  0
 23 28  1  0  0  0  0
 24 25  1  0  0  0  0
 25 26  2  0  0  0  0
 26 27  1  0  0  0  0
 26 32  1  0  0  0  0
 27 28  2  0  0  0  0
 27 30  1  0  0  0  0
 28 29  1  0  0  0  0
 30 31  2  0  0  0  0
 31 32  1  0  0  0  0
 33 34  2  0  0  0  0
 33 38  1  0  0  0  0
 34 35  1  0  0  0  0
 35 36  2  0  0  0  0
 36 37  1  0  0  0  0
 36 42  1  0  0  0  0
 37 38  2  0  0  0  0
 37 40  1  0  0  0  0
 38 39  1  0  0  0  0
 40 41  2  0  0  0  0
 41 42  1  0  0  0  0
M  CHG  2   3  -1   4  -1
M  END
>  <CHROM.1>
19.42608314,-94.05610486,3.73463539,-35.59209509,-14.72813787,2.89020909
-0.31756248,2.45901929

>  <Name>
ligand

>  <RI>
0

>  <Rbt.Current_Directory>
/home/itssahil/PROJECTS/Mol_Feturizer/New_Systems/rnas/4QLN

>  <Rbt.Executable>
rbdock ($Id: //depot/dev/client3/rdock/2013.1/src/exe/rbdock.cxx#4 $)

>  <Rbt.Library>
libRbt.so (2013.1, Build901 2013/11/27)

>  <Rbt.Parameter_File>
/export/apps/rDock/src/rDock_2013.1_src/data/scripts/dock_solv.prm

>  <Rbt.Receptor>
prm/pocket_docking_8.prm

>  <SCORE>
-14.3225

>  <SCORE.INTER>
-15.1788

>  <SCORE.INTER.CONST>
1

>  <SCORE.INTER.POLAR>
0

>  <SCORE.INTER.ROT>
2

>  <SCORE.INTER.SOLV>
17.4242

>  <SCORE.INTER.VDW>
-20.8606

>  <SCORE.INTER.norm>
-0.361401

>  <SCORE.INTRA>
0.856349

>  <SCORE.INTRA.DIHEDRAL>
-0.000808571

>  <SCORE.INTRA.DIHEDRAL.0>
2.39985

>  <SCORE.INTRA.POLAR>
0

>  <SCORE.INTRA.POLAR.0>
0

>  <SCORE.INTRA.REPUL>
0

>  <SCORE.INTRA.REPUL.0>
0

>  <SCORE.INTRA.SOLV>
0.0188608

>  <SCORE.INTRA.SOLV.lig_0>
-110.958

>  <SCORE.INTRA.VDW>
0.847322

>  <SCORE.INTRA.VDW.0>
-2.34644

>  <SCORE.INTRA.norm>
0.0203893

>  <SCORE.RESTR>
0

>  <SCORE.RESTR.CAVITY>
0

>  <SCORE.RESTR.norm>
0

>  <SCORE.SYSTEM>
0

>  <SCORE.SYSTEM.CONST>
0

>  <SCORE.SYSTEM.DIHEDRAL>
0

>  <SCORE.SYSTEM.SOLV>
0

>  <SCORE.SYSTEM.norm>
0

>  <SCORE.heavy>
42

>  <SCORE.norm>
-0.341012

>  <RMSD>
7.358

$$$$
ligand
 OpenBabel11021811513D
libRbt.so/2013.1/901 2013/11/27
 42 48  0  0  0  0  0  0  0  0999 V2000
    2.1672  -36.1700  -17.0528 P   0  0  2  0  0  0  0  0  0  0  0  0
    4.4013  -32.6564  -14.1930 P   0  0  1  0  0  0  0  0  0  0  0  0
    0.9847  -35.7698  -17.9039 O   0  5  0  0  0  0  0  0  0  0  0  0
    4.9797  -33.9262  -13.6155 O   0  5  0  0  0  0  0  0  0  0  0  0
    2.4503  -37.6308  -16.7964 O   0  0  0  0  0  0  0  0  0  0  0  0
    5.0014  -31.3201  -13.8275 O   0  0  0  0  0  0  0  0  0  0  0  0
    0.7584  -35.1683  -15.0605 C   0  0  0  0  0  0  0  0  0  0  0  0
    5.6222  -32.9769  -16.5082 C   0  0  0  0  0  0  0  0  0  0  0  0
    2.0402  -35.4242  -15.6320 O   0  0  0  0  0  0  0  0  0  0  0  0
    4.4007  -32.7870  -15.7979 O   0  0  0  0  0  0  0  0  0  0  0  0
    0.8225  -33.9005  -14.2172 C   0  0  1  0  0  0  0  0  0  0  0  0
    5.4740  -34.1448  -17.4752 C   0  0  1  0  0  0  0  0  0  0  0  0
   -0.2313  -33.9110  -13.2502 O   0  0  0  0  0  0  0  0  0  0  0  0
    6.7620  -34.6852  -17.7800 O   0  0  0  0  0  0  0  0  0  0  0  0
    2.1406  -33.8035  -13.4678 C   0  0  1  0  0  0  0  0  0  0  0  0
    4.6340  -35.2586  -16.8708 C   0  0  1  0  0  0  0  0  0  0  0  0
    2.8298  -32.6148  -13.8431 O   0  0  0  0  0  0  0  0  0  0  0  0
    3.4896  -35.5029  -17.6831 O   0  0  0  0  0  0  0  0  0  0  0  0
    1.7929  -33.7586  -11.9914 C   0  0  0  0  0  0  0  0  0  0  0  0
    5.5174  -36.4906  -16.8332 C   0  0  0  0  0  0  0  0  0  0  0  0
    0.2751  -33.8331  -11.9150 C   0  0  2  0  0  0  0  0  0  0  0  0
    6.8561  -36.0656  -17.4197 C   0  0  2  0  0  0  0  0  0  0  0  0
   -0.2894  -39.0536  -11.9902 N   0  0  0  0  0  0  0  0  0  0  0  0
    0.1428  -38.2137  -12.9488 C   0  0  0  0  0  0  0  0  0  0  0  0
    0.2367  -36.8808  -12.7881 N   0  0  0  0  0  0  0  0  0  0  0  0
   -0.1089  -36.2957  -11.6163 C   0  0  0  0  0  0  0  0  0  0  0  0
   -0.5912  -37.1480  -10.5182 C   0  0  0  0  0  0  0  0  0  0  0  0
   -0.6673  -38.6063  -10.7717 C   0  0  0  0  0  0  0  0  0  0  0  0
   -1.1000  -39.4621   -9.8145 N   0  0  0  0  0  0  0  0  0  0  0  0
   -0.8613  -36.3274   -9.4857 N   0  0  0  0  0  0  0  0  0  0  0  0
   -0.5777  -35.0615   -9.8860 C   0  0  0  0  0  0  0  0  0  0  0  0
   -0.1289  -35.0425  -11.1558 N   0  0  0  0  0  0  0  0  0  0  0  0
   11.8585  -37.3943  -16.5351 N   0  0  0  0  0  0  0  0  0  0  0  0
   11.1663  -37.3395  -17.6880 C   0  0  0  0  0  0  0  0  0  0  0  0
    9.8732  -36.9773  -17.7670 N   0  0  0  0  0  0  0  0  0  0  0  0
    9.1782  -36.6378  -16.6544 C   0  0  0  0  0  0  0  0  0  0  0  0
    9.8662  -36.6727  -15.3546 C   0  0  0  0  0  0  0  0  0  0  0  0
   11.2906  -37.0818  -15.3504 C   0  0  0  0  0  0  0  0  0  0  0  0
   11.9988  -37.1402  -14.1958 N   0  0  0  0  0  0  0  0  0  0  0  0
    8.9616  -36.2958  -14.4313 N   0  0  0  0  0  0  0  0  0  0  0  0
    7.7972  -36.0424  -15.0825 C   0  0  0  0  0  0  0  0  0  0  0  0
    7.9260  -36.2463  -16.4064 N   0  0  0  0  0  0  0  0  0  0  0  0
  1  3  1  6  0  0  0
  1  5  2  0  0  0  0
  1  9  1  0  0  0  0
  1 18  1  0  0  0  0
  2  4  1  1  0  0  0
  2  6  2  0  0  0  0
  2 10  1  0  0  0  0
  2 17  1  0  0  0  0
  7  9  1  0  0  0  0
  8 10  1  0  0  0  0
 11  7  1  1  0  0  0
 11 13  1  0  0  0  0
 11 15  1  0  0  0  0
 12  8  1  1  0  0  0
 12 14  1  0  0  0  0
 12 16  1  0  0  0  0
 13 21  1  0  0  0  0
 14 22  1  0  0  0  0
 15 17  1  6  0  0  0
 15 19  1  0  0  0  0
 16 18  1  6  0  0  0
 16 20  1  0  0  0  0
 19 21  1  0  0  0  0
 20 22  1  0  0  0  0
 21 32  1  1  0  0  0
 22 42  1  1  0  0  0
 23 24  2  0  0  0  0
 23 28  1  0  0  0  0
 24 25  1  0  0  0  0
 25 26  2  0  0  0  0
 26 27  1  0  0  0  0
 26 32  1  0  0  0  0
 27 28  2  0  0  0  0
 27 30  1  0  0  0  0
 28 29  1  0  0  0  0
 30 31  2  0  0  0  0
 31 32  1  0  0  0  0
 33 34  2  0  0  0  0
 33 38  1  0  0  0  0
 34 35  1  0  0  0  0
 35 36  2  0  0  0  0
 36 37  1  0  0  0  0
 36 42  1  0  0  0  0
 37 38  2  0  0  0  0
 37 40  1  0  0  0  0
 38 39  1  0  0  0  0
 40 41  2  0  0  0  0
 41 42  1  0  0  0  0
M  CHG  2   3  -1   4  -1
M  END
>  <CHROM.1>
42.35873313,-97.59985841,3.94466323,-35.51972034,-14.63352158,2.86784039
-0.36170036,2.45145290

>  <Name>
ligand

>  <RI>
0

>  <Rbt.Current_Directory>
/home/itssahil/PROJECTS/Mol_Feturizer/New_Systems/rnas/4QLN

>  <Rbt.Executable>
rbdock ($Id: //depot/dev/client3/rdock/2013.1/src/exe/rbdock.cxx#4 $)

>  <Rbt.Library>
libRbt.so (2013.1, Build901 2013/11/27)

>  <Rbt.Parameter_File>
/export/apps/rDock/src/rDock_2013.1_src/data/scripts/dock_solv.prm

>  <Rbt.Receptor>
prm/pocket_docking_7.prm

>  <SCORE>
-13.527

>  <SCORE.INTER>
-14.0169

>  <SCORE.INTER.CONST>
1

>  <SCORE.INTER.POLAR>
0

>  <SCORE.INTER.ROT>
2

>  <SCORE.INTER.SOLV>
17.4578

>  <SCORE.INTER.VDW>
-20.0972

>  <SCORE.INTER.norm>
-0.333736

>  <SCORE.INTRA>
0.489882

>  <SCORE.INTRA.DIHEDRAL>
-0.000752856

>  <SCORE.INTRA.DIHEDRAL.0>
2.39985

>  <SCORE.INTRA.POLAR>
0

>  <SCORE.INTRA.POLAR.0>
0

>  <SCORE.INTRA.REPUL>
0

>  <SCORE.INTRA.REPUL.0>
0

>  <SCORE.INTRA.SOLV>
0.00868032

>  <SCORE.INTRA.SOLV.lig_0>
-110.958

>  <SCORE.INTRA.VDW>
0.485918

>  <SCORE.INTRA.VDW.0>
-2.34644

>  <SCORE.INTRA.norm>
0.0116639

>  <SCORE.RESTR>
0

>  <SCORE.RESTR.CAVITY>
0

>  <SCORE.RESTR.norm>
0

>  <SCORE.SYSTEM>
0

>  <SCORE.SYSTEM.CONST>
0

>  <SCORE.SYSTEM.DIHEDRAL>
0

>  <SCORE.SYSTEM.SOLV>
0

>  <SCORE.SYSTEM.norm>
0

>  <SCORE.heavy>
42

>  <SCORE.norm>
-0.322072

>  <RMSD>
7.359

$$$$
ligand
 OpenBabel11021811513D
libRbt.so/2013.1/901 2013/11/27
 42 48  0  0  0  0  0  0  0  0999 V2000
    3.7705  -34.7918  -16.6115 P   0  0  2  0  0  0  0  0  0  0  0  0
    6.1539  -32.0229  -13.1233 P   0  0  1  0  0  0  0  0  0  0  0  0
    2.4722  -34.2754  -17.1863 O   0  5  0  0  0  0  0  0  0  0  0  0
    6.8655  -33.3484  -12.9925 O   0  5  0  0  0  0  0  0  0  0  0  0
    4.1598  -36.2371  -16.8101 O   0  0  0  0  0  0  0  0  0  0  0  0
    6.7235  -30.7926  -12.4591 O   0  0  0  0  0  0  0  0  0  0  0  0
    2.5689  -34.5007  -14.2816 C   0  0  0  0  0  0  0  0  0  0  0  0
    7.0934  -31.5890  -15.5487 C   0  0  0  0  0  0  0  0  0  0  0  0
    3.7816  -34.4792  -15.0325 O   0  0  0  0  0  0  0  0  0  0  0  0
    5.9612  -31.7067  -14.6903 O   0  0  0  0  0  0  0  0  0  0  0  0
    2.6702  -33.5130  -13.1253 C   0  0  1  0  0  0  0  0  0  0  0  0
    6.8882  -32.4541  -16.7858 C   0  0  1  0  0  0  0  0  0  0  0  0
    1.7466  -33.8789  -12.0965 O   0  0  0  0  0  0  0  0  0  0  0  0
    8.1551  -32.7780  -17.3636 O   0  0  0  0  0  0  0  0  0  0  0  0
    4.0641  -33.5137  -12.5208 C   0  0  1  0  0  0  0  0  0  0  0  0
    6.1894  -33.7587  -16.4373 C   0  0  1  0  0  0  0  0  0  0  0  0
    4.6379  -32.2133  -12.6141 O   0  0  0  0  0  0  0  0  0  0  0  0
    4.9675  -33.8669  -17.1615 O   0  0  0  0  0  0  0  0  0  0  0  0
    3.9003  -33.9065  -11.0643 C   0  0  0  0  0  0  0  0  0  0  0  0
    7.1343  -34.8735  -16.8423 C   0  0  0  0  0  0  0  0  0  0  0  0
    2.4098  -34.1282  -10.8542 C   0  0  2  0  0  0  0  0  0  0  0  0
    8.3657  -34.1909  -17.4207 C   0  0  2  0  0  0  0  0  0  0  0  0
    4.5029  -38.5206   -8.8783 N   0  0  0  0  0  0  0  0  0  0  0  0
    5.0755  -37.3342   -9.1536 C   0  0  0  0  0  0  0  0  0  0  0  0
    4.4086  -36.2829   -9.6647 N   0  0  0  0  0  0  0  0  0  0  0  0
    3.0842  -36.3655   -9.9370 C   0  0  0  0  0  0  0  0  0  0  0  0
    2.3857  -37.6311   -9.6628 C   0  0  0  0  0  0  0  0  0  0  0  0
    3.1882  -38.7433   -9.1008 C   0  0  0  0  0  0  0  0  0  0  0  0
    2.6232  -39.9420   -8.8187 N   0  0  0  0  0  0  0  0  0  0  0  0
    1.1006  -37.4451  -10.0180 N   0  0  0  0  0  0  0  0  0  0  0  0
    0.9851  -36.1734  -10.4792 C   0  0  0  0  0  0  0  0  0  0  0  0
    2.1673  -35.5297  -10.4307 N   0  0  0  0  0  0  0  0  0  0  0  0
   11.9114  -37.8921  -16.2802 N   0  0  0  0  0  0  0  0  0  0  0  0
   10.8745  -37.9190  -17.1378 C   0  0  0  0  0  0  0  0  0  0  0  0
   10.0372  -36.8839  -17.3309 N   0  0  0  0  0  0  0  0  0  0  0  0
   10.1996  -35.7234  -16.6506 C   0  0  0  0  0  0  0  0  0  0  0  0
   11.3120  -35.6161  -15.6939 C   0  0  0  0  0  0  0  0  0  0  0  0
   12.1905  -36.7993  -15.5375 C   0  0  0  0  0  0  0  0  0  0  0  0
   13.2385  -36.7844  -14.6775 N   0  0  0  0  0  0  0  0  0  0  0  0
   11.2455  -34.3796  -15.1652 N   0  0  0  0  0  0  0  0  0  0  0  0
   10.1841  -33.7510  -15.7329 C   0  0  0  0  0  0  0  0  0  0  0  0
    9.5610  -34.5514  -16.6174 N   0  0  0  0  0  0  0  0  0  0  0  0
  1  3  1  6  0  0  0
  1  5  2  0  0  0  0
  1  9  1  0  0  0  0
  1 18  1  0  0  0  0
  2  4  1  1  0  0  0
  2  6  2  0  0  0  0
  2 10  1  0  0  0  0
  2 17  1  0  0  0  0
  7  9  1  0  0  0  0
  8 10  1  0  0  0  0
 11  7  1  6  0  0  0
 11 13  1  0  0  0  0
 11 15  1  0  0  0  0
 12  8  1  1  0  0  0
 12 14  1  0  0  0  0
 12 16  1  0  0  0  0
 13 21  1  0  0  0  0
 14 22  1  0  0  0  0
 15 17  1  1  0  0  0
 15 19  1  0  0  0  0
 16 18  1  6  0  0  0
 16 20  1  0  0  0  0
 19 21  1  0  0  0  0
 20 22  1  0  0  0  0
 21 32  1  6  0  0  0
 22 42  1  1  0  0  0
 23 24  2  0  0  0  0
 23 28  1  0  0  0  0
 24 25  1  0  0  0  0
 25 26  2  0  0  0  0
 26 27  1  0  0  0  0
 26 32  1  0  0  0  0
 27 28  2  0  0  0  0
 27 30  1  0  0  0  0
 28 29  1  0  0  0  0
 30 31  2  0  0  0  0
 31 32  1  0  0  0  0
 33 34  2  0  0  0  0
 33 38  1  0  0  0  0
 34 35  1  0  0  0  0
 35 36  2  0  0  0  0
 36 37  1  0  0  0  0
 36 42  1  0  0  0  0
 37 38  2  0  0  0  0
 37 40  1  0  0  0  0
 38 39  1  0  0  0  0
 40 41  2  0  0  0  0
 41 42  1  0  0  0  0
M  CHG  2   3  -1   4  -1
M  END
>  <CHROM.1>
136.25118857,-166.28367309,5.86294477,-34.84529259,-13.92325964,0.56814076
0.41445209,-0.81819912

>  <Name>
ligand

>  <RI>
0

>  <Rbt.Current_Directory>
/home/itssahil/PROJECTS/Mol_Feturizer/New_Systems/rnas/4QLN

>  <Rbt.Executable>
rbdock ($Id: //depot/dev/client3/rdock/2013.1/src/exe/rbdock.cxx#4 $)

>  <Rbt.Library>
libRbt.so (2013.1, Build901 2013/11/27)

>  <Rbt.Parameter_File>
/export/apps/rDock/src/rDock_2013.1_src/data/scripts/dock_solv.prm

>  <Rbt.Receptor>
prm/pocket_docking_8.prm

>  <SCORE>
-13.5845

>  <SCORE.INTER>
-15.6436

>  <SCORE.INTER.CONST>
1

>  <SCORE.INTER.POLAR>
0

>  <SCORE.INTER.ROT>
2

>  <SCORE.INTER.SOLV>
14.5508

>  <SCORE.INTER.VDW>
-20.2127

>  <SCORE.INTER.norm>
-0.372467

>  <SCORE.INTRA>
2.0591

>  <SCORE.INTRA.DIHEDRAL>
0.000447551

>  <SCORE.INTRA.DIHEDRAL.0>
2.39985

>  <SCORE.INTRA.POLAR>
0

>  <SCORE.INTRA.POLAR.0>
0

>  <SCORE.INTRA.REPUL>
0

>  <SCORE.INTRA.REPUL.0>
0

>  <SCORE.INTRA.SOLV>
-0.152066

>  <SCORE.INTRA.SOLV.lig_0>
-110.958

>  <SCORE.INTRA.VDW>
2.13491

>  <SCORE.INTRA.VDW.0>
-2.34644

>  <SCORE.INTRA.norm>
0.0490262

>  <SCORE.RESTR>
0

>  <SCORE.RESTR.CAVITY>
0

>  <SCORE.RESTR.norm>
0

>  <SCORE.SYSTEM>
0

>  <SCORE.SYSTEM.CONST>
0

>  <SCORE.SYSTEM.DIHEDRAL>
0

>  <SCORE.SYSTEM.SOLV>
0

>  <SCORE.SYSTEM.norm>
0

>  <SCORE.heavy>
42

>  <SCORE.norm>
-0.323441

>  <RMSD>
7.364

$$$$
ligand
 OpenBabel11021811513D
libRbt.so/2013.1/901 2013/11/27
 42 48  0  0  0  0  0  0  0  0999 V2000
    2.1842  -36.2029  -17.0060 P   0  0  2  0  0  0  0  0  0  0  0  0
    4.4065  -32.6523  -14.1831 P   0  0  1  0  0  0  0  0  0  0  0  0
    0.9949  -35.8175  -17.8545 O   0  5  0  0  0  0  0  0  0  0  0  0
    4.9966  -33.9136  -13.5988 O   0  5  0  0  0  0  0  0  0  0  0  0
    2.4789  -37.6598  -16.7400 O   0  0  0  0  0  0  0  0  0  0  0  0
    4.9988  -31.3091  -13.8303 O   0  0  0  0  0  0  0  0  0  0  0  0
    0.7776  -35.1964  -15.0146 C   0  0  0  0  0  0  0  0  0  0  0  0
    5.6189  -32.9815  -16.5015 C   0  0  0  0  0  0  0  0  0  0  0  0
    2.0585  -35.4474  -15.5902 O   0  0  0  0  0  0  0  0  0  0  0  0
    4.3994  -32.7949  -15.7869 O   0  0  0  0  0  0  0  0  0  0  0  0
    0.8365  -33.9218  -14.1811 C   0  0  1  0  0  0  0  0  0  0  0  0
    5.4745  -34.1576  -17.4591 C   0  0  1  0  0  0  0  0  0  0  0  0
   -0.2127  -33.9325  -13.2092 O   0  0  0  0  0  0  0  0  0  0  0  0
    6.7649  -34.6912  -17.7658 O   0  0  0  0  0  0  0  0  0  0  0  0
    2.1573  -33.8098  -13.4387 C   0  0  1  0  0  0  0  0  0  0  0  0
    4.6453  -35.2728  -16.8424 C   0  0  1  0  0  0  0  0  0  0  0  0
    2.8363  -32.6191  -13.8261 O   0  0  0  0  0  0  0  0  0  0  0  0
    3.4988  -35.5313  -17.6474 O   0  0  0  0  0  0  0  0  0  0  0  0
    1.8161  -33.7564  -11.9611 C   0  0  0  0  0  0  0  0  0  0  0  0
    5.5376  -36.4982  -16.7997 C   0  0  0  0  0  0  0  0  0  0  0  0
    0.2994  -33.8409  -11.8770 C   0  0  2  0  0  0  0  0  0  0  0  0
    6.8705  -36.0681  -17.3956 C   0  0  2  0  0  0  0  0  0  0  0  0
   -0.3072  -39.0570  -11.9369 N   0  0  0  0  0  0  0  0  0  0  0  0
    0.1045  -38.2201  -12.9071 C   0  0  0  0  0  0  0  0  0  0  0  0
    0.2130  -36.8880  -12.7490 N   0  0  0  0  0  0  0  0  0  0  0  0
   -0.0951  -36.3007  -11.5679 C   0  0  0  0  0  0  0  0  0  0  0  0
   -0.5530  -37.1495  -10.4568 C   0  0  0  0  0  0  0  0  0  0  0  0
   -0.6474  -38.6072  -10.7082 C   0  0  0  0  0  0  0  0  0  0  0  0
   -1.0597  -39.4599   -9.7394 N   0  0  0  0  0  0  0  0  0  0  0  0
   -0.7878  -36.3272   -9.4170 N   0  0  0  0  0  0  0  0  0  0  0  0
   -0.5057  -35.0635   -9.8250 C   0  0  0  0  0  0  0  0  0  0  0  0
   -0.0926  -35.0475  -11.1069 N   0  0  0  0  0  0  0  0  0  0  0  0
   11.8666  -37.4228  -16.5147 N   0  0  0  0  0  0  0  0  0  0  0  0
   11.1661  -37.3903  -17.6635 C   0  0  0  0  0  0  0  0  0  0  0  0
    9.8759  -37.0177  -17.7420 N   0  0  0  0  0  0  0  0  0  0  0  0
    9.1927  -36.6435  -16.6334 C   0  0  0  0  0  0  0  0  0  0  0  0
    9.8903  -36.6523  -15.3382 C   0  0  0  0  0  0  0  0  0  0  0  0
   11.3107  -37.0750  -15.3342 C   0  0  0  0  0  0  0  0  0  0  0  0
   12.0271  -37.1112  -14.1837 N   0  0  0  0  0  0  0  0  0  0  0  0
    8.9964  -36.2434  -14.4181 N   0  0  0  0  0  0  0  0  0  0  0  0
    7.8296  -35.9952  -15.0668 C   0  0  0  0  0  0  0  0  0  0  0  0
    7.9463  -36.2336  -16.3860 N   0  0  0  0  0  0  0  0  0  0  0  0
  1  3  1  6  0  0  0
  1  5  2  0  0  0  0
  1  9  1  0  0  0  0
  1 18  1  0  0  0  0
  2  4  1  1  0  0  0
  2  6  2  0  0  0  0
  2 10  1  0  0  0  0
  2 17  1  0  0  0  0
  7  9  1  0  0  0  0
  8 10  1  0  0  0  0
 11  7  1  1  0  0  0
 11 13  1  0  0  0  0
 11 15  1  0  0  0  0
 12  8  1  1  0  0  0
 12 14  1  0  0  0  0
 12 16  1  0  0  0  0
 13 21  1  0  0  0  0
 14 22  1  0  0  0  0
 15 17  1  6  0  0  0
 15 19  1  0  0  0  0
 16 18  1  6  0  0  0
 16 20  1  0  0  0  0
 19 21  1  0  0  0  0
 20 22  1  0  0  0  0
 21 32  1  1  0  0  0
 22 42  1  1  0  0  0
 23 24  2  0  0  0  0
 23 28  1  0  0  0  0
 24 25  1  0  0  0  0
 25 26  2  0  0  0  0
 26 27  1  0  0  0  0
 26 32  1  0  0  0  0
 27 28  2  0  0  0  0
 27 30  1  0  0  0  0
 28 29  1  0  0  0  0
 30 31  2  0  0  0  0
 31 32  1  0  0  0  0
 33 34  2  0  0  0  0
 33 38  1  0  0  0  0
 34 35  1  0  0  0  0
 35 36  2  0  0  0  0
 36 37  1  0  0  0  0
 36 42  1  0  0  0  0
 37 38  2  0  0  0  0
 37 40  1  0  0  0  0
 38 39  1  0  0  0  0
 40 41  2  0  0  0  0
 41 42  1  0  0  0  0
M  CHG  2   3  -1   4  -1
M  END
>  <CHROM.1>
40.71514734,-99.00797228,3.96005935,-35.52684821,-14.60136056,2.86617308
-0.36454376,2.45444263

>  <Name>
ligand

>  <RI>
0

>  <Rbt.Current_Directory>
/home/itssahil/PROJECTS/Mol_Feturizer/New_Systems/rnas/4QLN

>  <Rbt.Executable>
rbdock ($Id: //depot/dev/client3/rdock/2013.1/src/exe/rbdock.cxx#4 $)

>  <Rbt.Library>
libRbt.so (2013.1, Build901 2013/11/27)

>  <Rbt.Parameter_File>
/export/apps/rDock/src/rDock_2013.1_src/data/scripts/dock_solv.prm

>  <Rbt.Receptor>
prm/pocket_docking_7.prm

>  <SCORE>
-13.5553

>  <SCORE.INTER>
-14.0419

>  <SCORE.INTER.CONST>
1

>  <SCORE.INTER.POLAR>
0

>  <SCORE.INTER.ROT>
2

>  <SCORE.INTER.SOLV>
17.3347

>  <SCORE.INTER.VDW>
-20.0728

>  <SCORE.INTER.norm>
-0.334331

>  <SCORE.INTRA>
0.48662

>  <SCORE.INTRA.DIHEDRAL>
-0.000742241

>  <SCORE.INTRA.DIHEDRAL.0>
2.39985

>  <SCORE.INTRA.POLAR>
0

>  <SCORE.INTRA.POLAR.0>
0

>  <SCORE.INTRA.REPUL>
0

>  <SCORE.INTRA.REPUL.0>
0

>  <SCORE.INTRA.SOLV>
0.0111832

>  <SCORE.INTRA.SOLV.lig_0>
-110.958

>  <SCORE.INTRA.VDW>
0.481399

>  <SCORE.INTRA.VDW.0>
-2.34644

>  <SCORE.INTRA.norm>
0.0115862

>  <SCORE.RESTR>
0

>  <SCORE.RESTR.CAVITY>
0

>  <SCORE.RESTR.norm>
0

>  <SCORE.SYSTEM>
0

>  <SCORE.SYSTEM.CONST>
0

>  <SCORE.SYSTEM.DIHEDRAL>
0

>  <SCORE.SYSTEM.SOLV>
0

>  <SCORE.SYSTEM.norm>
0

>  <SCORE.heavy>
42

>  <SCORE.norm>
-0.322745

>  <RMSD>
7.367

$$$$
ligand
 OpenBabel11021811513D
libRbt.so/2013.1/901 2013/11/27
 42 48  0  0  0  0  0  0  0  0999 V2000
    8.4173  -31.4179  -14.9512 P   0  0  2  0  0  0  0  0  0  0  0  0
    5.9384  -35.3315  -16.9644 P   0  0  1  0  0  0  0  0  0  0  0  0
    9.0111  -30.3808  -15.8757 O   0  5  0  0  0  0  0  0  0  0  0  0
    6.1350  -35.7998  -15.5423 O   0  5  0  0  0  0  0  0  0  0  0  0
    8.8476  -31.4719  -13.5049 O   0  0  0  0  0  0  0  0  0  0  0  0
    4.9893  -36.0703  -17.8771 O   0  0  0  0  0  0  0  0  0  0  0  0
    9.8309  -33.1342  -16.3701 C   0  0  0  0  0  0  0  0  0  0  0  0
    4.3100  -33.3826  -16.2549 C   0  0  0  0  0  0  0  0  0  0  0  0
    8.6574  -32.8699  -15.6032 O   0  0  0  0  0  0  0  0  0  0  0  0
    5.5009  -33.7823  -16.9291 O   0  0  0  0  0  0  0  0  0  0  0  0
    9.5172  -34.1791  -17.4343 C   0  0  1  0  0  0  0  0  0  0  0  0
    4.6175  -32.2166  -15.3237 C   0  0  1  0  0  0  0  0  0  0  0  0
   10.7240  -34.8295  -17.8418 O   0  0  0  0  0  0  0  0  0  0  0  0
    3.6364  -32.1566  -14.2856 O   0  0  0  0  0  0  0  0  0  0  0  0
    8.5729  -35.2429  -16.9003 C   0  0  1  0  0  0  0  0  0  0  0  0
    5.9792  -32.3790  -14.6671 C   0  0  1  0  0  0  0  0  0  0  0  0
    7.3806  -35.2734  -17.6789 O   0  0  0  0  0  0  0  0  0  0  0  0
    6.8148  -31.2732  -14.9957 O   0  0  0  0  0  0  0  0  0  0  0  0
    9.3056  -36.5663  -17.0193 C   0  0  0  0  0  0  0  0  0  0  0  0
    5.7328  -32.4181  -13.1713 C   0  0  0  0  0  0  0  0  0  0  0  0
   10.6651  -36.2411  -17.6200 C   0  0  2  0  0  0  0  0  0  0  0  0
    4.2283  -32.2759  -12.9897 C   0  0  2  0  0  0  0  0  0  0  0  0
   13.4017  -40.2196  -15.5559 N   0  0  0  0  0  0  0  0  0  0  0  0
   12.4127  -40.2281  -16.4686 C   0  0  0  0  0  0  0  0  0  0  0  0
   11.7938  -39.1178  -16.9105 N   0  0  0  0  0  0  0  0  0  0  0  0
   12.1449  -37.8946  -16.4462 C   0  0  0  0  0  0  0  0  0  0  0  0
   13.2195  -37.8022  -15.4455 C   0  0  0  0  0  0  0  0  0  0  0  0
   13.8524  -39.0690  -15.0078 C   0  0  0  0  0  0  0  0  0  0  0  0
   14.8494  -39.0734  -14.0904 N   0  0  0  0  0  0  0  0  0  0  0  0
   13.3664  -36.4949  -15.1596 N   0  0  0  0  0  0  0  0  0  0  0  0
   12.4661  -35.8098  -15.9100 C   0  0  0  0  0  0  0  0  0  0  0  0
   11.7380  -36.6439  -16.6772 N   0  0  0  0  0  0  0  0  0  0  0  0
    1.2146  -36.5571  -13.3905 N   0  0  0  0  0  0  0  0  0  0  0  0
    1.4972  -35.6068  -14.3007 C   0  0  0  0  0  0  0  0  0  0  0  0
    2.2957  -34.5520  -14.0568 N   0  0  0  0  0  0  0  0  0  0  0  0
    2.8758  -34.3864  -12.8435 C   0  0  0  0  0  0  0  0  0  0  0  0
    2.6154  -35.3845  -11.7947 C   0  0  0  0  0  0  0  0  0  0  0  0
    1.7252  -36.5177  -12.1409 C   0  0  0  0  0  0  0  0  0  0  0  0
    1.4336  -37.4816  -11.2332 N   0  0  0  0  0  0  0  0  0  0  0  0
    3.3026  -34.9869  -10.7073 N   0  0  0  0  0  0  0  0  0  0  0  0
    3.9458  -33.8357  -11.0312 C   0  0  0  0  0  0  0  0  0  0  0  0
    3.6916  -33.4779  -12.3033 N   0  0  0  0  0  0  0  0  0  0  0  0
  1  3  1  6  0  0  0
  1  5  2  0  0  0  0
  1  9  1  0  0  0  0
  1 18  1  0  0  0  0
  2  4  1  1  0  0  0
  2  6  2  0  0  0  0
  2 10  1  0  0  0  0
  2 17  1  0  0  0  0
  7  9  1  0  0  0  0
  8 10  1  0  0  0  0
 11  7  1  1  0  0  0
 11 13  1  0  0  0  0
 11 15  1  0  0  0  0
 12  8  1  6  0  0  0
 12 14  1  0  0  0  0
 12 16  1  0  0  0  0
 13 21  1  0  0  0  0
 14 22  1  0  0  0  0
 15 17  1  6  0  0  0
 15 19  1  0  0  0  0
 16 18  1  1  0  0  0
 16 20  1  0  0  0  0
 19 21  1  0  0  0  0
 20 22  1  0  0  0  0
 21 32  1  1  0  0  0
 22 42  1  6  0  0  0
 23 24  2  0  0  0  0
 23 28  1  0  0  0  0
 24 25  1  0  0  0  0
 25 26  2  0  0  0  0
 26 27  1  0  0  0  0
 26 32  1  0  0  0  0
 27 28  2  0  0  0  0
 27 30  1  0  0  0  0
 28 29  1  0  0  0  0
 30 31  2  0  0  0  0
 31 32  1  0  0  0  0
 33 34  2  0  0  0  0
 33 38  1  0  0  0  0
 34 35  1  0  0  0  0
 35 36  2  0  0  0  0
 36 37  1  0  0  0  0
 36 42  1  0  0  0  0
 37 38  2  0  0  0  0
 37 40  1  0  0  0  0
 38 39  1  0  0  0  0
 40 41  2  0  0  0  0
 41 42  1  0  0  0  0
M  CHG  2   3  -1   4  -1
M  END
>  <CHROM.1>
-166.18948705,5.72873188,7.41485555,-34.90385261,-15.13452835,-2.86564756
-0.34842996,2.96780707

>  <Name>
ligand

>  <RI>
0

>  <Rbt.Current_Directory>
/home/itssahil/PROJECTS/Mol_Feturizer/New_Systems/rnas/4QLN

>  <Rbt.Executable>
rbdock ($Id: //depot/dev/client3/rdock/2013.1/src/exe/rbdock.cxx#4 $)

>  <Rbt.Library>
libRbt.so (2013.1, Build901 2013/11/27)

>  <Rbt.Parameter_File>
/export/apps/rDock/src/rDock_2013.1_src/data/scripts/dock_solv.prm

>  <Rbt.Receptor>
prm/pocket_docking_8.prm

>  <SCORE>
-13.4469

>  <SCORE.INTER>
-13.8565

>  <SCORE.INTER.CONST>
1

>  <SCORE.INTER.POLAR>
0

>  <SCORE.INTER.ROT>
2

>  <SCORE.INTER.SOLV>
12.3891

>  <SCORE.INTER.VDW>
-18.3007

>  <SCORE.INTER.norm>
-0.329916

>  <SCORE.INTRA>
0.409624

>  <SCORE.INTRA.DIHEDRAL>
0.000100606

>  <SCORE.INTRA.DIHEDRAL.0>
2.39985

>  <SCORE.INTRA.POLAR>
0

>  <SCORE.INTRA.POLAR.0>
0

>  <SCORE.INTRA.REPUL>
0

>  <SCORE.INTRA.REPUL.0>
0

>  <SCORE.INTRA.SOLV>
-0.0631889

>  <SCORE.INTRA.SOLV.lig_0>
-110.958

>  <SCORE.INTRA.VDW>
0.441168

>  <SCORE.INTRA.VDW.0>
-2.34644

>  <SCORE.INTRA.norm>
0.00975295

>  <SCORE.RESTR>
0

>  <SCORE.RESTR.CAVITY>
0

>  <SCORE.RESTR.norm>
0

>  <SCORE.SYSTEM>
0

>  <SCORE.SYSTEM.CONST>
0

>  <SCORE.SYSTEM.DIHEDRAL>
0

>  <SCORE.SYSTEM.SOLV>
0

>  <SCORE.SYSTEM.norm>
0

>  <SCORE.heavy>
42

>  <SCORE.norm>
-0.320163

>  <RMSD>
7.368

$$$$
ligand
 OpenBabel11021811513D
libRbt.so/2013.1/901 2013/11/27
 42 48  0  0  0  0  0  0  0  0999 V2000
    2.1689  -36.1923  -16.9716 P   0  0  2  0  0  0  0  0  0  0  0  0
    4.4318  -32.6472  -14.1742 P   0  0  1  0  0  0  0  0  0  0  0  0
    0.9745  -35.8027  -17.8110 O   0  5  0  0  0  0  0  0  0  0  0  0
    5.0205  -33.9102  -13.5923 O   0  5  0  0  0  0  0  0  0  0  0  0
    2.4586  -37.6500  -16.7052 O   0  0  0  0  0  0  0  0  0  0  0  0
    5.0335  -31.3062  -13.8290 O   0  0  0  0  0  0  0  0  0  0  0  0
    0.7837  -35.1750  -14.9707 C   0  0  0  0  0  0  0  0  0  0  0  0
    5.6233  -32.9868  -16.5019 C   0  0  0  0  0  0  0  0  0  0  0  0
    2.0586  -35.4334  -15.5564 O   0  0  0  0  0  0  0  0  0  0  0  0
    4.4107  -32.7928  -15.7776 O   0  0  0  0  0  0  0  0  0  0  0  0
    0.8558  -33.8992  -14.1402 C   0  0  1  0  0  0  0  0  0  0  0  0
    5.4653  -34.1640  -17.4559 C   0  0  1  0  0  0  0  0  0  0  0  0
   -0.1853  -33.9029  -13.1596 O   0  0  0  0  0  0  0  0  0  0  0  0
    6.7505  -34.7045  -17.7722 O   0  0  0  0  0  0  0  0  0  0  0  0
    2.1832  -33.7922  -13.4089 C   0  0  1  0  0  0  0  0  0  0  0  0
    4.6357  -35.2740  -16.8303 C   0  0  1  0  0  0  0  0  0  0  0  0
    2.8648  -32.6056  -13.8043 O   0  0  0  0  0  0  0  0  0  0  0  0
    3.4814  -35.5283  -17.6252 O   0  0  0  0  0  0  0  0  0  0  0  0
    1.8546  -33.7342  -11.9287 C   0  0  0  0  0  0  0  0  0  0  0  0
    5.5224  -36.5036  -16.7925 C   0  0  0  0  0  0  0  0  0  0  0  0
    0.3381  -33.8112  -11.8319 C   0  0  2  0  0  0  0  0  0  0  0  0
    6.8524  -36.0812  -17.4003 C   0  0  2  0  0  0  0  0  0  0  0  0
    0.0901  -39.0559  -11.7314 N   0  0  0  0  0  0  0  0  0  0  0  0
    0.5473  -38.2270  -12.6881 C   0  0  0  0  0  0  0  0  0  0  0  0
    0.5493  -36.8858  -12.5767 N   0  0  0  0  0  0  0  0  0  0  0  0
    0.0773  -36.2802  -11.4608 C   0  0  0  0  0  0  0  0  0  0  0  0
   -0.4402  -37.1192  -10.3685 C   0  0  0  0  0  0  0  0  0  0  0  0
   -0.4097  -38.5880  -10.5658 C   0  0  0  0  0  0  0  0  0  0  0  0
   -0.8663  -39.4327   -9.6099 N   0  0  0  0  0  0  0  0  0  0  0  0
   -0.8398  -36.2792   -9.3954 N   0  0  0  0  0  0  0  0  0  0  0  0
   -0.6001  -35.0139   -9.8253 C   0  0  0  0  0  0  0  0  0  0  0  0
   -0.0533  -35.0143  -11.0562 N   0  0  0  0  0  0  0  0  0  0  0  0
   11.8887  -37.3185  -16.5775 N   0  0  0  0  0  0  0  0  0  0  0  0
   11.1840  -37.2668  -17.7230 C   0  0  0  0  0  0  0  0  0  0  0  0
    9.8832  -36.9296  -17.7858 N   0  0  0  0  0  0  0  0  0  0  0  0
    9.1928  -36.6143  -16.6633 C   0  0  0  0  0  0  0  0  0  0  0  0
    9.8943  -36.6477  -15.3707 C   0  0  0  0  0  0  0  0  0  0  0  0
   11.3265  -37.0284  -15.3843 C   0  0  0  0  0  0  0  0  0  0  0  0
   12.0472  -37.0835  -14.2373 N   0  0  0  0  0  0  0  0  0  0  0  0
    8.9917  -36.2974  -14.4351 N   0  0  0  0  0  0  0  0  0  0  0  0
    7.8161  -36.0611  -15.0723 C   0  0  0  0  0  0  0  0  0  0  0  0
    7.9357  -36.2500  -16.3993 N   0  0  0  0  0  0  0  0  0  0  0  0
  1  3  1  6  0  0  0
  1  5  2  0  0  0  0
  1  9  1  0  0  0  0
  1 18  1  0  0  0  0
  2  4  1  1  0  0  0
  2  6  2  0  0  0  0
  2 10  1  0  0  0  0
  2 17  1  0  0  0  0
  7  9  1  0  0  0  0
  8 10  1  0  0  0  0
 11  7  1  1  0  0  0
 11 13  1  0  0  0  0
 11 15  1  0  0  0  0
 12  8  1  1  0  0  0
 12 14  1  0  0  0  0
 12 16  1  0  0  0  0
 13 21  1  0  0  0  0
 14 22  1  0  0  0  0
 15 17  1  6  0  0  0
 15 19  1  0  0  0  0
 16 18  1  6  0  0  0
 16 20  1  0  0  0  0
 19 21  1  0  0  0  0
 20 22  1  0  0  0  0
 21 32  1  1  0  0  0
 22 42  1  1  0  0  0
 23 24  2  0  0  0  0
 23 28  1  0  0  0  0
 24 25  1  0  0  0  0
 25 26  2  0  0  0  0
 26 27  1  0  0  0  0
 26 32  1  0  0  0  0
 27 28  2  0  0  0  0
 27 30  1  0  0  0  0
 28 29  1  0  0  0  0
 30 31  2  0  0  0  0
 31 32  1  0  0  0  0
 33 34  2  0  0  0  0
 33 38  1  0  0  0  0
 34 35  1  0  0  0  0
 35 36  2  0  0  0  0
 36 37  1  0  0  0  0
 36 42  1  0  0  0  0
 37 38  2  0  0  0  0
 37 40  1  0  0  0  0
 38 39  1  0  0  0  0
 40 41  2  0  0  0  0
 41 42  1  0  0  0  0
M  CHG  2   3  -1   4  -1
M  END
>  <CHROM.1>
48.82909381,-96.11477904,4.00272660,-35.51136895,-14.57278203,2.84191499
-0.36579563,2.40538124

>  <Name>
ligand

>  <RI>
0

>  <Rbt.Current_Directory>
/home/itssahil/PROJECTS/Mol_Feturizer/New_Systems/rnas/4QLN

>  <Rbt.Executable>
rbdock ($Id: //depot/dev/client3/rdock/2013.1/src/exe/rbdock.cxx#4 $)

>  <Rbt.Library>
libRbt.so (2013.1, Build901 2013/11/27)

>  <Rbt.Parameter_File>
/export/apps/rDock/src/rDock_2013.1_src/data/scripts/dock_solv.prm

>  <Rbt.Receptor>
prm/pocket_docking_7.prm

>  <SCORE>
-13.568

>  <SCORE.INTER>
-13.9806

>  <SCORE.INTER.CONST>
1

>  <SCORE.INTER.POLAR>
0

>  <SCORE.INTER.ROT>
2

>  <SCORE.INTER.SOLV>
17.2867

>  <SCORE.INTER.VDW>
-20.0159

>  <SCORE.INTER.norm>
-0.33287

>  <SCORE.INTRA>
0.41257

>  <SCORE.INTRA.DIHEDRAL>
-0.000709176

>  <SCORE.INTRA.DIHEDRAL.0>
2.39985

>  <SCORE.INTRA.POLAR>
0

>  <SCORE.INTRA.POLAR.0>
0

>  <SCORE.INTRA.REPUL>
0

>  <SCORE.INTRA.REPUL.0>
0

>  <SCORE.INTRA.SOLV>
0.00151486

>  <SCORE.INTRA.SOLV.lig_0>
-110.958

>  <SCORE.INTRA.VDW>
0.412167

>  <SCORE.INTRA.VDW.0>
-2.34644

>  <SCORE.INTRA.norm>
0.00982309

>  <SCORE.RESTR>
0

>  <SCORE.RESTR.CAVITY>
0

>  <SCORE.RESTR.norm>
0

>  <SCORE.SYSTEM>
0

>  <SCORE.SYSTEM.CONST>
0

>  <SCORE.SYSTEM.DIHEDRAL>
0

>  <SCORE.SYSTEM.SOLV>
0

>  <SCORE.SYSTEM.norm>
0

>  <SCORE.heavy>
42

>  <SCORE.norm>
-0.323047

>  <RMSD>
7.375

$$$$
ligand
 OpenBabel11021811513D
libRbt.so/2013.1/901 2013/11/27
 42 48  0  0  0  0  0  0  0  0999 V2000
    2.2054  -36.2012  -16.9494 P   0  0  2  0  0  0  0  0  0  0  0  0
    4.4313  -32.5986  -14.1961 P   0  0  1  0  0  0  0  0  0  0  0  0
    1.0077  -35.8341  -17.7943 O   0  5  0  0  0  0  0  0  0  0  0  0
    5.0322  -33.8482  -13.5979 O   0  5  0  0  0  0  0  0  0  0  0  0
    2.5094  -37.6525  -16.6644 O   0  0  0  0  0  0  0  0  0  0  0  0
    5.0196  -31.2474  -13.8677 O   0  0  0  0  0  0  0  0  0  0  0  0
    0.8090  -35.1724  -14.9622 C   0  0  0  0  0  0  0  0  0  0  0  0
    5.6276  -32.9559  -16.5187 C   0  0  0  0  0  0  0  0  0  0  0  0
    2.0867  -35.4256  -15.5439 O   0  0  0  0  0  0  0  0  0  0  0  0
    4.4127  -32.7648  -15.7975 O   0  0  0  0  0  0  0  0  0  0  0  0
    0.8679  -33.8855  -14.1480 C   0  0  1  0  0  0  0  0  0  0  0  0
    5.4819  -34.1466  -17.4578 C   0  0  1  0  0  0  0  0  0  0  0  0
   -0.1737  -33.8870  -13.1679 O   0  0  0  0  0  0  0  0  0  0  0  0
    6.7725  -34.6783  -17.7666 O   0  0  0  0  0  0  0  0  0  0  0  0
    2.1938  -33.7561  -13.4174 C   0  0  1  0  0  0  0  0  0  0  0  0
    4.6629  -35.2567  -16.8185 C   0  0  1  0  0  0  0  0  0  0  0  0
    2.8638  -32.5679  -13.8276 O   0  0  0  0  0  0  0  0  0  0  0  0
    3.5117  -35.5326  -17.6107 O   0  0  0  0  0  0  0  0  0  0  0  0
    1.8636  -33.6826  -11.9382 C   0  0  0  0  0  0  0  0  0  0  0  0
    5.5617  -36.4770  -16.7647 C   0  0  0  0  0  0  0  0  0  0  0  0
    0.3480  -33.7734  -11.8412 C   0  0  2  0  0  0  0  0  0  0  0  0
    6.8878  -36.0491  -17.3771 C   0  0  2  0  0  0  0  0  0  0  0  0
    0.4215  -39.0157  -11.5405 N   0  0  0  0  0  0  0  0  0  0  0  0
    0.9057  -38.1942  -12.4901 C   0  0  0  0  0  0  0  0  0  0  0  0
    0.8142  -36.8526  -12.4356 N   0  0  0  0  0  0  0  0  0  0  0  0
    0.2117  -36.2388  -11.3891 C   0  0  0  0  0  0  0  0  0  0  0  0
   -0.3434  -37.0695  -10.3090 C   0  0  0  0  0  0  0  0  0  0  0  0
   -0.2042  -38.5393  -10.4409 C   0  0  0  0  0  0  0  0  0  0  0  0
   -0.6868  -39.3766   -9.4913 N   0  0  0  0  0  0  0  0  0  0  0  0
   -0.8764  -36.2225   -9.4086 N   0  0  0  0  0  0  0  0  0  0  0  0
   -0.6808  -34.9608   -9.8702 C   0  0  0  0  0  0  0  0  0  0  0  0
   -0.0320  -34.9703  -11.0505 N   0  0  0  0  0  0  0  0  0  0  0  0
   11.8885  -37.3959  -16.5099 N   0  0  0  0  0  0  0  0  0  0  0  0
   11.1780  -37.3875  -17.6529 C   0  0  0  0  0  0  0  0  0  0  0  0
    9.8880  -37.0136  -17.7285 N   0  0  0  0  0  0  0  0  0  0  0  0
    9.2154  -36.6129  -16.6225 C   0  0  0  0  0  0  0  0  0  0  0  0
    9.9244  -36.5943  -15.3337 C   0  0  0  0  0  0  0  0  0  0  0  0
   11.3438  -37.0202  -15.3326 C   0  0  0  0  0  0  0  0  0  0  0  0
   12.0703  -37.0322  -14.1879 N   0  0  0  0  0  0  0  0  0  0  0  0
    9.0396  -36.1626  -14.4152 N   0  0  0  0  0  0  0  0  0  0  0  0
    7.8676  -35.9262  -15.0590 C   0  0  0  0  0  0  0  0  0  0  0  0
    7.9722  -36.1945  -16.3736 N   0  0  0  0  0  0  0  0  0  0  0  0
  1  3  1  6  0  0  0
  1  5  2  0  0  0  0
  1  9  1  0  0  0  0
  1 18  1  0  0  0  0
  2  4  1  1  0  0  0
  2  6  2  0  0  0  0
  2 10  1  0  0  0  0
  2 17  1  0  0  0  0
  7  9  1  0  0  0  0
  8 10  1  0  0  0  0
 11  7  1  1  0  0  0
 11 13  1  0  0  0  0
 11 15  1  0  0  0  0
 12  8  1  1  0  0  0
 12 14  1  0  0  0  0
 12 16  1  0  0  0  0
 13 21  1  0  0  0  0
 14 22  1  0  0  0  0
 15 17  1  6  0  0  0
 15 19  1  0  0  0  0
 16 18  1  6  0  0  0
 16 20  1  0  0  0  0
 19 21  1  0  0  0  0
 20 22  1  0  0  0  0
 21 32  1  1  0  0  0
 22 42  1  1  0  0  0
 23 24  2  0  0  0  0
 23 28  1  0  0  0  0
 24 25  1  0  0  0  0
 25 26  2  0  0  0  0
 26 27  1  0  0  0  0
 26 32  1  0  0  0  0
 27 28  2  0  0  0  0
 27 30  1  0  0  0  0
 28 29  1  0  0  0  0
 30 31  2  0  0  0  0
 31 32  1  0  0  0  0
 33 34  2  0  0  0  0
 33 38  1  0  0  0  0
 34 35  1  0  0  0  0
 35 36  2  0  0  0  0
 36 37  1  0  0  0  0
 36 42  1  0  0  0  0
 37 38  2  0  0  0  0
 37 40  1  0  0  0  0
 38 39  1  0  0  0  0
 40 41  2  0  0  0  0
 41 42  1  0  0  0  0
M  CHG  2   3  -1   4  -1
M  END
>  <CHROM.1>
54.75378908,-99.62550590,4.04921065,-35.48547834,-14.54533470,2.83563879
-0.36718010,2.38009593

>  <Name>
ligand

>  <RI>
0

>  <Rbt.Current_Directory>
/home/itssahil/PROJECTS/Mol_Feturizer/New_Systems/rnas/4QLN

>  <Rbt.Executable>
rbdock ($Id: //depot/dev/client3/rdock/2013.1/src/exe/rbdock.cxx#4 $)

>  <Rbt.Library>
libRbt.so (2013.1, Build901 2013/11/27)

>  <Rbt.Parameter_File>
/export/apps/rDock/src/rDock_2013.1_src/data/scripts/dock_solv.prm

>  <Rbt.Receptor>
prm/pocket_docking_7.prm

>  <SCORE>
-13.4706

>  <SCORE.INTER>
-13.743

>  <SCORE.INTER.CONST>
1

>  <SCORE.INTER.POLAR>
0

>  <SCORE.INTER.ROT>
2

>  <SCORE.INTER.SOLV>
17.3566

>  <SCORE.INTER.VDW>
-19.8809

>  <SCORE.INTER.norm>
-0.327215

>  <SCORE.INTRA>
0.272453

>  <SCORE.INTRA.DIHEDRAL>
-0.000580299

>  <SCORE.INTRA.DIHEDRAL.0>
2.39985

>  <SCORE.INTRA.POLAR>
0

>  <SCORE.INTRA.POLAR.0>
0

>  <SCORE.INTRA.REPUL>
0

>  <SCORE.INTRA.REPUL.0>
0

>  <SCORE.INTRA.SOLV>
-0.00113349

>  <SCORE.INTRA.SOLV.lig_0>
-110.958

>  <SCORE.INTRA.VDW>
0.27331

>  <SCORE.INTRA.VDW.0>
-2.34644

>  <SCORE.INTRA.norm>
0.00648698

>  <SCORE.RESTR>
0

>  <SCORE.RESTR.CAVITY>
0

>  <SCORE.RESTR.norm>
0

>  <SCORE.SYSTEM>
0

>  <SCORE.SYSTEM.CONST>
0

>  <SCORE.SYSTEM.DIHEDRAL>
0

>  <SCORE.SYSTEM.SOLV>
0

>  <SCORE.SYSTEM.norm>
0

>  <SCORE.heavy>
42

>  <SCORE.norm>
-0.320728

>  <RMSD>
7.379

$$$$
ligand
 OpenBabel11021811513D
libRbt.so/2013.1/901 2013/11/27
 42 48  0  0  0  0  0  0  0  0999 V2000
    2.2926  -36.3961  -16.7915 P   0  0  2  0  0  0  0  0  0  0  0  0
    4.3349  -32.5410  -14.2456 P   0  0  1  0  0  0  0  0  0  0  0  0
    1.0613  -36.1422  -17.6296 O   0  5  0  0  0  0  0  0  0  0  0  0
    5.0213  -33.7227  -13.6030 O   0  5  0  0  0  0  0  0  0  0  0  0
    2.6902  -37.8114  -16.4470 O   0  0  0  0  0  0  0  0  0  0  0  0
    4.8436  -31.1428  -13.9895 O   0  0  0  0  0  0  0  0  0  0  0  0
    0.8669  -35.3637  -14.8271 C   0  0  0  0  0  0  0  0  0  0  0  0
    5.5140  -32.9316  -16.5717 C   0  0  0  0  0  0  0  0  0  0  0  0
    2.1485  -35.5651  -15.4205 O   0  0  0  0  0  0  0  0  0  0  0  0
    4.3012  -32.7819  -15.8373 O   0  0  0  0  0  0  0  0  0  0  0  0
    0.8590  -34.0394  -14.0730 C   0  0  1  0  0  0  0  0  0  0  0  0
    5.4273  -34.1711  -17.4532 C   0  0  1  0  0  0  0  0  0  0  0  0
   -0.1648  -34.0592  -13.0746 O   0  0  0  0  0  0  0  0  0  0  0  0
    6.7433  -34.6367  -17.7617 O   0  0  0  0  0  0  0  0  0  0  0  0
    2.1858  -33.7957  -13.3739 C   0  0  1  0  0  0  0  0  0  0  0  0
    4.6888  -35.2984  -16.7492 C   0  0  1  0  0  0  0  0  0  0  0  0
    2.7745  -32.5891  -13.8497 O   0  0  0  0  0  0  0  0  0  0  0  0
    3.5444  -35.6803  -17.5066 O   0  0  0  0  0  0  0  0  0  0  0  0
    1.8752  -33.6743  -11.8936 C   0  0  0  0  0  0  0  0  0  0  0  0
    5.6620  -36.4577  -16.6572 C   0  0  0  0  0  0  0  0  0  0  0  0
    0.3698  -33.8528  -11.7643 C   0  0  2  0  0  0  0  0  0  0  0  0
    6.9493  -35.9785  -17.3129 C   0  0  2  0  0  0  0  0  0  0  0  0
    0.9045  -39.0414  -11.1553 N   0  0  0  0  0  0  0  0  0  0  0  0
    1.3391  -38.2340  -12.1405 C   0  0  0  0  0  0  0  0  0  0  0  0
    1.1262  -36.9054  -12.1668 N   0  0  0  0  0  0  0  0  0  0  0  0
    0.4427  -36.2910  -11.1717 C   0  0  0  0  0  0  0  0  0  0  0  0
   -0.0651  -37.1065  -10.0573 C   0  0  0  0  0  0  0  0  0  0  0  0
    0.2088  -38.5626  -10.0997 C   0  0  0  0  0  0  0  0  0  0  0  0
   -0.2226  -39.3855   -9.1137 N   0  0  0  0  0  0  0  0  0  0  0  0
   -0.6963  -36.2622   -9.2201 N   0  0  0  0  0  0  0  0  0  0  0  0
   -0.6019  -35.0159   -9.7504 C   0  0  0  0  0  0  0  0  0  0  0  0
    0.0771  -35.0329  -10.9135 N   0  0  0  0  0  0  0  0  0  0  0  0
   11.9004  -37.4327  -16.3416 N   0  0  0  0  0  0  0  0  0  0  0  0
   11.1552  -37.5796  -17.4527 C   0  0  0  0  0  0  0  0  0  0  0  0
    9.8840  -37.1531  -17.5619 N   0  0  0  0  0  0  0  0  0  0  0  0
    9.2682  -36.5336  -16.5260 C   0  0  0  0  0  0  0  0  0  0  0  0
   10.0179  -36.3354  -15.2759 C   0  0  0  0  0  0  0  0  0  0  0  0
   11.4133  -36.8329  -15.2341 C   0  0  0  0  0  0  0  0  0  0  0  0
   12.1743  -36.6903  -14.1212 N   0  0  0  0  0  0  0  0  0  0  0  0
    9.1858  -35.7056  -14.4251 N   0  0  0  0  0  0  0  0  0  0  0  0
    8.0074  -35.5177  -15.0732 C   0  0  0  0  0  0  0  0  0  0  0  0
    8.0563  -36.0109  -16.3243 N   0  0  0  0  0  0  0  0  0  0  0  0
  1  3  1  6  0  0  0
  1  5  2  0  0  0  0
  1  9  1  0  0  0  0
  1 18  1  0  0  0  0
  2  4  1  1  0  0  0
  2  6  2  0  0  0  0
  2 10  1  0  0  0  0
  2 17  1  0  0  0  0
  7  9  1  0  0  0  0
  8 10  1  0  0  0  0
 11  7  1  1  0  0  0
 11 13  1  0  0  0  0
 11 15  1  0  0  0  0
 12  8  1  1  0  0  0
 12 14  1  0  0  0  0
 12 16  1  0  0  0  0
 13 21  1  0  0  0  0
 14 22  1  0  0  0  0
 15 17  1  6  0  0  0
 15 19  1  0  0  0  0
 16 18  1  6  0  0  0
 16 20  1  0  0  0  0
 19 21  1  0  0  0  0
 20 22  1  0  0  0  0
 21 32  1  1  0  0  0
 22 42  1  1  0  0  0
 23 24  2  0  0  0  0
 23 28  1  0  0  0  0
 24 25  1  0  0  0  0
 25 26  2  0  0  0  0
 26 27  1  0  0  0  0
 26 32  1  0  0  0  0
 27 28  2  0  0  0  0
 27 30  1  0  0  0  0
 28 29  1  0  0  0  0
 30 31  2  0  0  0  0
 31 32  1  0  0  0  0
 33 34  2  0  0  0  0
 33 38  1  0  0  0  0
 34 35  1  0  0  0  0
 35 36  2  0  0  0  0
 36 37  1  0  0  0  0
 36 42  1  0  0  0  0
 37 38  2  0  0  0  0
 37 40  1  0  0  0  0
 38 39  1  0  0  0  0
 40 41  2  0  0  0  0
 41 42  1  0  0  0  0
M  CHG  2   3  -1   4  -1
M  END
>  <CHROM.1>
57.76111009,-109.40326367,4.12618429,-35.49477872,-14.43968854,2.79997448
-0.35994465,2.33879242

>  <Name>
ligand

>  <RI>
0

>  <Rbt.Current_Directory>
/home/itssahil/PROJECTS/Mol_Feturizer/New_Systems/rnas/4QLN

>  <Rbt.Executable>
rbdock ($Id: //depot/dev/client3/rdock/2013.1/src/exe/rbdock.cxx#4 $)

>  <Rbt.Library>
libRbt.so (2013.1, Build901 2013/11/27)

>  <Rbt.Parameter_File>
/export/apps/rDock/src/rDock_2013.1_src/data/scripts/dock_solv.prm

>  <Rbt.Receptor>
prm/pocket_docking_7.prm

>  <SCORE>
-13.3883

>  <SCORE.INTER>
-13.4734

>  <SCORE.INTER.CONST>
1

>  <SCORE.INTER.POLAR>
0

>  <SCORE.INTER.ROT>
2

>  <SCORE.INTER.SOLV>
17.6162

>  <SCORE.INTER.VDW>
-19.7877

>  <SCORE.INTER.norm>
-0.320794

>  <SCORE.INTRA>
0.0850409

>  <SCORE.INTRA.DIHEDRAL>
-0.000277253

>  <SCORE.INTRA.DIHEDRAL.0>
2.39985

>  <SCORE.INTRA.POLAR>
0

>  <SCORE.INTRA.POLAR.0>
0

>  <SCORE.INTRA.REPUL>
0

>  <SCORE.INTRA.REPUL.0>
0

>  <SCORE.INTRA.SOLV>
0.00324769

>  <SCORE.INTRA.SOLV.lig_0>
-110.958

>  <SCORE.INTRA.VDW>
0.0835557

>  <SCORE.INTRA.VDW.0>
-2.34644

>  <SCORE.INTRA.norm>
0.00202478

>  <SCORE.RESTR>
0

>  <SCORE.RESTR.CAVITY>
0

>  <SCORE.RESTR.norm>
0

>  <SCORE.SYSTEM>
0

>  <SCORE.SYSTEM.CONST>
0

>  <SCORE.SYSTEM.DIHEDRAL>
0

>  <SCORE.SYSTEM.SOLV>
0

>  <SCORE.SYSTEM.norm>
0

>  <SCORE.heavy>
42

>  <SCORE.norm>
-0.318769

>  <RMSD>
7.393

$$$$
ligand
 OpenBabel11021811513D
libRbt.so/2013.1/901 2013/11/27
 42 48  0  0  0  0  0  0  0  0999 V2000
    8.9206  -31.3960  -14.7490 P   0  0  2  0  0  0  0  0  0  0  0  0
    6.1313  -35.0788  -16.7912 P   0  0  1  0  0  0  0  0  0  0  0  0
    9.4918  -30.3299  -15.6546 O   0  5  0  0  0  0  0  0  0  0  0  0
    6.4090  -35.6392  -15.4168 O   0  5  0  0  0  0  0  0  0  0  0  0
    9.4513  -31.5540  -13.3442 O   0  0  0  0  0  0  0  0  0  0  0  0
    5.0869  -35.7226  -17.6711 O   0  0  0  0  0  0  0  0  0  0  0  0
   10.1504  -33.0793  -16.3649 C   0  0  0  0  0  0  0  0  0  0  0  0
    4.6467  -33.1121  -15.8523 C   0  0  0  0  0  0  0  0  0  0  0  0
    9.0482  -32.8146  -15.4987 O   0  0  0  0  0  0  0  0  0  0  0  0
    5.7669  -33.5182  -16.6352 O   0  0  0  0  0  0  0  0  0  0  0  0
    9.7145  -34.0449  -17.4605 C   0  0  1  0  0  0  0  0  0  0  0  0
    5.0721  -32.0175  -14.8818 C   0  0  1  0  0  0  0  0  0  0  0  0
   10.8587  -34.7176  -17.9933 O   0  0  0  0  0  0  0  0  0  0  0  0
    4.1721  -31.9806  -13.7716 O   0  0  0  0  0  0  0  0  0  0  0  0
    8.7649  -35.1001  -16.9190 C   0  0  1  0  0  0  0  0  0  0  0  0
    6.4690  -32.2737  -14.3389 C   0  0  1  0  0  0  0  0  0  0  0  0
    7.5193  -35.0358  -17.6070 O   0  0  0  0  0  0  0  0  0  0  0  0
    7.3271  -31.1845  -14.6654 O   0  0  0  0  0  0  0  0  0  0  0  0
    9.4275  -36.4423  -17.1676 C   0  0  0  0  0  0  0  0  0  0  0  0
    6.3297  -32.3927  -12.8336 C   0  0  0  0  0  0  0  0  0  0  0  0
   10.7532  -36.1365  -17.8485 C   0  0  2  0  0  0  0  0  0  0  0  0
    4.8501  -32.2012  -12.5324 C   0  0  2  0  0  0  0  0  0  0  0  0
   15.9011  -37.1406  -17.5852 N   0  0  0  0  0  0  0  0  0  0  0  0
   15.1647  -36.6430  -18.5958 C   0  0  0  0  0  0  0  0  0  0  0  0
   13.8370  -36.4361  -18.5220 N   0  0  0  0  0  0  0  0  0  0  0  0
   13.1500  -36.7260  -17.3910 C   0  0  0  0  0  0  0  0  0  0  0  0
   13.8854  -37.2738  -16.2404 C   0  0  0  0  0  0  0  0  0  0  0  0
   15.3455  -37.4740  -16.3988 C   0  0  0  0  0  0  0  0  0  0  0  0
   16.0977  -37.9733  -15.3886 N   0  0  0  0  0  0  0  0  0  0  0  0
   12.9798  -37.4691  -15.2637 N   0  0  0  0  0  0  0  0  0  0  0  0
   11.7711  -37.0812  -15.7450 C   0  0  0  0  0  0  0  0  0  0  0  0
   11.8724  -36.6380  -17.0129 N   0  0  0  0  0  0  0  0  0  0  0  0
    0.5881  -35.0946  -11.5146 N   0  0  0  0  0  0  0  0  0  0  0  0
    0.7118  -33.9445  -12.2025 C   0  0  0  0  0  0  0  0  0  0  0  0
    1.8812  -33.3054  -12.3861 N   0  0  0  0  0  0  0  0  0  0  0  0
    3.0321  -33.8024  -11.8718 C   0  0  0  0  0  0  0  0  0  0  0  0
    2.9789  -35.0577  -11.1066 C   0  0  0  0  0  0  0  0  0  0  0  0
    1.6534  -35.7015  -10.9485 C   0  0  0  0  0  0  0  0  0  0  0  0
    1.5159  -36.8604  -10.2585 N   0  0  0  0  0  0  0  0  0  0  0  0
    4.2399  -35.3231  -10.7164 N   0  0  0  0  0  0  0  0  0  0  0  0
    5.0305  -34.3256  -11.1895 C   0  0  0  0  0  0  0  0  0  0  0  0
    4.3113  -33.4198  -11.8775 N   0  0  0  0  0  0  0  0  0  0  0  0
  1  3  1  6  0  0  0
  1  5  2  0  0  0  0
  1  9  1  0  0  0  0
  1 18  1  0  0  0  0
  2  4  1  1  0  0  0
  2  6  2  0  0  0  0
  2 10  1  0  0  0  0
  2 17  1  0  0  0  0
  7  9  1  0  0  0  0
  8 10  1  0  0  0  0
 11  7  1  1  0  0  0
 11 13  1  0  0  0  0
 11 15  1  0  0  0  0
 12  8  1  6  0  0  0
 12 14  1  0  0  0  0
 12 16  1  0  0  0  0
 13 21  1  0  0  0  0
 14 22  1  0  0  0  0
 15 17  1  6  0  0  0
 15 19  1  0  0  0  0
 16 18  1  1  0  0  0
 16 20  1  0  0  0  0
 19 21  1  0  0  0  0
 20 22  1  0  0  0  0
 21 32  1  1  0  0  0
 22 42  1  6  0  0  0
 23 24  2  0  0  0  0
 23 28  1  0  0  0  0
 24 25  1  0  0  0  0
 25 26  2  0  0  0  0
 26 27  1  0  0  0  0
 26 32  1  0  0  0  0
 27 28  2  0  0  0  0
 27 30  1  0  0  0  0
 28 29  1  0  0  0  0
 30 31  2  0  0  0  0
 31 32  1  0  0  0  0
 33 34  2  0  0  0  0
 33 38  1  0  0  0  0
 34 35  1  0  0  0  0
 35 36  2  0  0  0  0
 36 37  1  0  0  0  0
 36 42  1  0  0  0  0
 37 38  2  0  0  0  0
 37 40  1  0  0  0  0
 38 39  1  0  0  0  0
 40 41  2  0  0  0  0
 41 42  1  0  0  0  0
M  CHG  2   3  -1   4  -1
M  END
>  <CHROM.1>
-72.43159494,-37.80699937,7.86921550,-34.45754452,-15.04909167,-0.12480106
0.46059101,-0.20074175

>  <Name>
ligand

>  <RI>
0

>  <Rbt.Current_Directory>
/home/itssahil/PROJECTS/Mol_Feturizer/New_Systems/rnas/4QLN

>  <Rbt.Executable>
rbdock ($Id: //depot/dev/client3/rdock/2013.1/src/exe/rbdock.cxx#4 $)

>  <Rbt.Library>
libRbt.so (2013.1, Build901 2013/11/27)

>  <Rbt.Parameter_File>
/export/apps/rDock/src/rDock_2013.1_src/data/scripts/dock_solv.prm

>  <Rbt.Receptor>
prm/pocket_docking_8.prm

>  <SCORE>
-12.4558

>  <SCORE.INTER>
-14.851

>  <SCORE.INTER.CONST>
1

>  <SCORE.INTER.POLAR>
0

>  <SCORE.INTER.ROT>
2

>  <SCORE.INTER.SOLV>
12.896

>  <SCORE.INTER.VDW>
-19.1327

>  <SCORE.INTER.norm>
-0.353595

>  <SCORE.INTRA>
2.39515

>  <SCORE.INTRA.DIHEDRAL>
0.000681162

>  <SCORE.INTRA.DIHEDRAL.0>
2.39985

>  <SCORE.INTRA.POLAR>
0

>  <SCORE.INTRA.POLAR.0>
0

>  <SCORE.INTRA.REPUL>
0

>  <SCORE.INTRA.REPUL.0>
0

>  <SCORE.INTRA.SOLV>
-0.0784174

>  <SCORE.INTRA.SOLV.lig_0>
-110.958

>  <SCORE.INTRA.VDW>
2.43402

>  <SCORE.INTRA.VDW.0>
-2.34644

>  <SCORE.INTRA.norm>
0.0570274

>  <SCORE.RESTR>
0

>  <SCORE.RESTR.CAVITY>
0

>  <SCORE.RESTR.norm>
0

>  <SCORE.SYSTEM>
0

>  <SCORE.SYSTEM.CONST>
0

>  <SCORE.SYSTEM.DIHEDRAL>
0

>  <SCORE.SYSTEM.SOLV>
0

>  <SCORE.SYSTEM.norm>
0

>  <SCORE.heavy>
42

>  <SCORE.norm>
-0.296567

>  <RMSD>
7.397

$$$$
ligand
 OpenBabel11021811513D
libRbt.so/2013.1/901 2013/11/27
 42 48  0  0  0  0  0  0  0  0999 V2000
    2.2747  -36.4291  -16.7873 P   0  0  2  0  0  0  0  0  0  0  0  0
    4.3251  -32.5702  -14.2538 P   0  0  1  0  0  0  0  0  0  0  0  0
    1.0446  -36.1751  -17.6271 O   0  5  0  0  0  0  0  0  0  0  0  0
    5.0081  -33.7513  -13.6066 O   0  5  0  0  0  0  0  0  0  0  0  0
    2.6686  -37.8442  -16.4376 O   0  0  0  0  0  0  0  0  0  0  0  0
    4.8371  -31.1723  -14.0024 O   0  0  0  0  0  0  0  0  0  0  0  0
    0.8504  -35.3862  -14.8275 C   0  0  0  0  0  0  0  0  0  0  0  0
    5.5047  -32.9719  -16.5777 C   0  0  0  0  0  0  0  0  0  0  0  0
    2.1318  -35.5928  -15.4194 O   0  0  0  0  0  0  0  0  0  0  0  0
    4.2918  -32.8166  -15.8446 O   0  0  0  0  0  0  0  0  0  0  0  0
    0.8454  -34.0592  -14.0781 C   0  0  1  0  0  0  0  0  0  0  0  0
    5.4154  -34.2143  -17.4549 C   0  0  1  0  0  0  0  0  0  0  0  0
   -0.1792  -34.0729  -13.0803 O   0  0  0  0  0  0  0  0  0  0  0  0
    6.7304  -34.6843  -17.7609 O   0  0  0  0  0  0  0  0  0  0  0  0
    2.1723  -33.8163  -13.3791 C   0  0  1  0  0  0  0  0  0  0  0  0
    4.6737  -35.3372  -16.7474 C   0  0  1  0  0  0  0  0  0  0  0  0
    2.7643  -32.6129  -13.8587 O   0  0  0  0  0  0  0  0  0  0  0  0
    3.5288  -35.7190  -17.5042 O   0  0  0  0  0  0  0  0  0  0  0  0
    1.8611  -33.6889  -11.8994 C   0  0  0  0  0  0  0  0  0  0  0  0
    5.6439  -36.4987  -16.6507 C   0  0  0  0  0  0  0  0  0  0  0  0
    0.3552  -33.8632  -11.7705 C   0  0  2  0  0  0  0  0  0  0  0  0
    6.9328  -36.0250  -17.3073 C   0  0  2  0  0  0  0  0  0  0  0  0
    0.7779  -39.0662  -11.1980 N   0  0  0  0  0  0  0  0  0  0  0  0
    1.2024  -38.2654  -12.1929 C   0  0  0  0  0  0  0  0  0  0  0  0
    1.0222  -36.9318  -12.2075 N   0  0  0  0  0  0  0  0  0  0  0  0
    0.3849  -36.3052  -11.1897 C   0  0  0  0  0  0  0  0  0  0  0  0
   -0.1091  -37.1129  -10.0635 C   0  0  0  0  0  0  0  0  0  0  0  0
    0.1268  -38.5752  -10.1199 C   0  0  0  0  0  0  0  0  0  0  0  0
   -0.2949  -39.3916   -9.1242 N   0  0  0  0  0  0  0  0  0  0  0  0
   -0.6932  -36.2569   -9.2042 N   0  0  0  0  0  0  0  0  0  0  0  0
   -0.5838  -35.0110   -9.7323 C   0  0  0  0  0  0  0  0  0  0  0  0
    0.0590  -35.0395  -10.9156 N   0  0  0  0  0  0  0  0  0  0  0  0
   11.8984  -37.4367  -16.3469 N   0  0  0  0  0  0  0  0  0  0  0  0
   11.1559  -37.5789  -17.4604 C   0  0  0  0  0  0  0  0  0  0  0  0
    9.8803  -37.1650  -17.5662 N   0  0  0  0  0  0  0  0  0  0  0  0
    9.2568  -36.5640  -16.5241 C   0  0  0  0  0  0  0  0  0  0  0  0
   10.0031  -36.3719  -15.2710 C   0  0  0  0  0  0  0  0  0  0  0  0
   11.4037  -36.8547  -15.2332 C   0  0  0  0  0  0  0  0  0  0  0  0
   12.1620  -36.7165  -14.1179 N   0  0  0  0  0  0  0  0  0  0  0  0
    9.1634  -35.7607  -14.4141 N   0  0  0  0  0  0  0  0  0  0  0  0
    7.9836  -35.5782  -15.0612 C   0  0  0  0  0  0  0  0  0  0  0  0
    8.0391  -36.0567  -16.3178 N   0  0  0  0  0  0  0  0  0  0  0  0
  1  3  1  6  0  0  0
  1  5  2  0  0  0  0
  1  9  1  0  0  0  0
  1 18  1  0  0  0  0
  2  4  1  1  0  0  0
  2  6  2  0  0  0  0
  2 10  1  0  0  0  0
  2 17  1  0  0  0  0
  7  9  1  0  0  0  0
  8 10  1  0  0  0  0
 11  7  1  1  0  0  0
 11 13  1  0  0  0  0
 11 15  1  0  0  0  0
 12  8  1  1  0  0  0
 12 14  1  0  0  0  0
 12 16  1  0  0  0  0
 13 21  1  0  0  0  0
 14 22  1  0  0  0  0
 15 17  1  6  0  0  0
 15 19  1  0  0  0  0
 16 18  1  6  0  0  0
 16 20  1  0  0  0  0
 19 21  1  0  0  0  0
 20 22  1  0  0  0  0
 21 32  1  1  0  0  0
 22 42  1  1  0  0  0
 23 24  2  0  0  0  0
 23 28  1  0  0  0  0
 24 25  1  0  0  0  0
 25 26  2  0  0  0  0
 26 27  1  0  0  0  0
 26 32  1  0  0  0  0
 27 28  2  0  0  0  0
 27 30  1  0  0  0  0
 28 29  1  0  0  0  0
 30 31  2  0  0  0  0
 31 32  1  0  0  0  0
 33 34  2  0  0  0  0
 33 38  1  0  0  0  0
 34 35  1  0  0  0  0
 35 36  2  0  0  0  0
 36 37  1  0  0  0  0
 36 42  1  0  0  0  0
 37 38  2  0  0  0  0
 37 40  1  0  0  0  0
 38 39  1  0  0  0  0
 40 41  2  0  0  0  0
 41 42  1  0  0  0  0
M  CHG  2   3  -1   4  -1
M  END
>  <CHROM.1>
55.51742596,-108.26017475,4.10252432,-35.52107209,-14.44369519,2.80365765
-0.36010298,2.34420370

>  <Name>
ligand

>  <RI>
0

>  <Rbt.Current_Directory>
/home/itssahil/PROJECTS/Mol_Feturizer/New_Systems/rnas/4QLN

>  <Rbt.Executable>
rbdock ($Id: //depot/dev/client3/rdock/2013.1/src/exe/rbdock.cxx#4 $)

>  <Rbt.Library>
libRbt.so (2013.1, Build901 2013/11/27)

>  <Rbt.Parameter_File>
/export/apps/rDock/src/rDock_2013.1_src/data/scripts/dock_solv.prm

>  <Rbt.Receptor>
prm/pocket_docking_7.prm

>  <SCORE>
-13.3227

>  <SCORE.INTER>
-13.4113

>  <SCORE.INTER.CONST>
1

>  <SCORE.INTER.POLAR>
0

>  <SCORE.INTER.ROT>
2

>  <SCORE.INTER.SOLV>
17.655

>  <SCORE.INTER.VDW>
-19.7592

>  <SCORE.INTER.norm>
-0.319317

>  <SCORE.INTRA>
0.0886469

>  <SCORE.INTRA.DIHEDRAL>
-0.000345059

>  <SCORE.INTRA.DIHEDRAL.0>
2.39985

>  <SCORE.INTRA.POLAR>
0

>  <SCORE.INTRA.POLAR.0>
0

>  <SCORE.INTRA.REPUL>
0

>  <SCORE.INTRA.REPUL.0>
0

>  <SCORE.INTRA.SOLV>
0.00489689

>  <SCORE.INTRA.SOLV.lig_0>
-110.958

>  <SCORE.INTRA.VDW>
0.086371

>  <SCORE.INTRA.VDW.0>
-2.34644

>  <SCORE.INTRA.norm>
0.00211064

>  <SCORE.RESTR>
0

>  <SCORE.RESTR.CAVITY>
0

>  <SCORE.RESTR.norm>
0

>  <SCORE.SYSTEM>
0

>  <SCORE.SYSTEM.CONST>
0

>  <SCORE.SYSTEM.DIHEDRAL>
0

>  <SCORE.SYSTEM.SOLV>
0

>  <SCORE.SYSTEM.norm>
0

>  <SCORE.heavy>
42

>  <SCORE.norm>
-0.317207

>  <RMSD>
7.401

$$$$
ligand
 OpenBabel11021811513D
libRbt.so/2013.1/901 2013/11/27
 42 48  0  0  0  0  0  0  0  0999 V2000
    4.4817  -37.7800  -15.4713 P   0  0  2  0  0  0  0  0  0  0  0  0
    4.1457  -33.0526  -13.7242 P   0  0  1  0  0  0  0  0  0  0  0  0
    3.2107  -38.5140  -15.8302 O   0  5  0  0  0  0  0  0  0  0  0  0
    5.5731  -33.4009  -13.3758 O   0  5  0  0  0  0  0  0  0  0  0  0
    5.7726  -38.5459  -15.3070 O   0  0  0  0  0  0  0  0  0  0  0  0
    3.6763  -31.6202  -13.6371 O   0  0  0  0  0  0  0  0  0  0  0  0
    3.3334  -37.4467  -13.1203 C   0  0  0  0  0  0  0  0  0  0  0  0
    4.6053  -33.1223  -16.3198 C   0  0  0  0  0  0  0  0  0  0  0  0
    4.2162  -36.9439  -14.1217 O   0  0  0  0  0  0  0  0  0  0  0  0
    3.8433  -33.5929  -15.2105 O   0  0  0  0  0  0  0  0  0  0  0  0
    2.6787  -36.2809  -12.3890 C   0  0  1  0  0  0  0  0  0  0  0  0
    5.1030  -34.3080  -17.1369 C   0  0  1  0  0  0  0  0  0  0  0  0
    2.2329  -36.7099  -11.0996 O   0  0  0  0  0  0  0  0  0  0  0  0
    6.2587  -33.9260  -17.8868 O   0  0  0  0  0  0  0  0  0  0  0  0
    3.6589  -35.1379  -12.1857 C   0  0  1  0  0  0  0  0  0  0  0  0
    5.4952  -35.4710  -16.2395 C   0  0  1  0  0  0  0  0  0  0  0  0
    3.1709  -33.9576  -12.8161 O   0  0  0  0  0  0  0  0  0  0  0  0
    4.7184  -36.6206  -16.5624 O   0  0  0  0  0  0  0  0  0  0  0  0
    3.7623  -34.9223  -10.6872 C   0  0  0  0  0  0  0  0  0  0  0  0
    6.9629  -35.7434  -16.5063 C   0  0  0  0  0  0  0  0  0  0  0  0
    2.8383  -35.9497  -10.0504 C   0  0  2  0  0  0  0  0  0  0  0  0
    7.3937  -34.7305  -17.5575 C   0  0  2  0  0  0  0  0  0  0  0  0
    7.5770  -37.9006   -8.9029 N   0  0  0  0  0  0  0  0  0  0  0  0
    7.2063  -37.0262   -9.8565 C   0  0  0  0  0  0  0  0  0  0  0  0
    5.9392  -36.6103  -10.0376 N   0  0  0  0  0  0  0  0  0  0  0  0
    4.9388  -37.0631   -9.2444 C   0  0  0  0  0  0  0  0  0  0  0  0
    5.2644  -38.0222   -8.1773 C   0  0  0  0  0  0  0  0  0  0  0  0
    6.6820  -38.4332   -8.0410 C   0  0  0  0  0  0  0  0  0  0  0  0
    7.0677  -39.3119   -7.0846 N   0  0  0  0  0  0  0  0  0  0  0  0
    4.1078  -38.3047   -7.5490 N   0  0  0  0  0  0  0  0  0  0  0  0
    3.1275  -37.5905   -8.1590 C   0  0  0  0  0  0  0  0  0  0  0  0
    3.6227  -36.8501   -9.1694 N   0  0  0  0  0  0  0  0  0  0  0  0
   12.3623  -33.1075  -18.0590 N   0  0  0  0  0  0  0  0  0  0  0  0
   11.6523  -33.9720  -18.8073 C   0  0  0  0  0  0  0  0  0  0  0  0
   10.3712  -34.2987  -18.5588 N   0  0  0  0  0  0  0  0  0  0  0  0
    9.7077  -33.7568  -17.5090 C   0  0  0  0  0  0  0  0  0  0  0  0
   10.4165  -32.8017  -16.6433 C   0  0  0  0  0  0  0  0  0  0  0  0
   11.8257  -32.4931  -16.9827 C   0  0  0  0  0  0  0  0  0  0  0  0
   12.5511  -31.6235  -16.2372 N   0  0  0  0  0  0  0  0  0  0  0  0
    9.5411  -32.4218  -15.6935 N   0  0  0  0  0  0  0  0  0  0  0  0
    8.3750  -33.0762  -15.9300 C   0  0  0  0  0  0  0  0  0  0  0  0
    8.4742  -33.8714  -17.0110 N   0  0  0  0  0  0  0  0  0  0  0  0
  1  3  1  6  0  0  0
  1  5  2  0  0  0  0
  1  9  1  0  0  0  0
  1 18  1  0  0  0  0
  2  4  1  1  0  0  0
  2  6  2  0  0  0  0
  2 10  1  0  0  0  0
  2 17  1  0  0  0  0
  7  9  1  0  0  0  0
  8 10  1  0  0  0  0
 11  7  1  1  0  0  0
 11 13  1  0  0  0  0
 11 15  1  0  0  0  0
 12  8  1  1  0  0  0
 12 14  1  0  0  0  0
 12 16  1  0  0  0  0
 13 21  1  0  0  0  0
 14 22  1  0  0  0  0
 15 17  1  6  0  0  0
 15 19  1  0  0  0  0
 16 18  1  6  0  0  0
 16 20  1  0  0  0  0
 19 21  1  0  0  0  0
 20 22  1  0  0  0  0
 21 32  1  1  0  0  0
 22 42  1  1  0  0  0
 23 24  2  0  0  0  0
 23 28  1  0  0  0  0
 24 25  1  0  0  0  0
 25 26  2  0  0  0  0
 26 27  1  0  0  0  0
 26 32  1  0  0  0  0
 27 28  2  0  0  0  0
 27 30  1  0  0  0  0
 28 29  1  0  0  0  0
 30 31  2  0  0  0  0
 31 32  1  0  0  0  0
 33 34  2  0  0  0  0
 33 38  1  0  0  0  0
 34 35  1  0  0  0  0
 35 36  2  0  0  0  0
 36 37  1  0  0  0  0
 36 42  1  0  0  0  0
 37 38  2  0  0  0  0
 37 40  1  0  0  0  0
 38 39  1  0  0  0  0
 40 41  2  0  0  0  0
 41 42  1  0  0  0  0
M  CHG  2   3  -1   4  -1
M  END
>  <CHROM.1>
97.10105321,-121.77961132,5.93800414,-35.38934515,-13.78586419,2.11300839
0.13847066,1.95121449

>  <Name>
ligand

>  <RI>
0

>  <Rbt.Current_Directory>
/home/itssahil/PROJECTS/Mol_Feturizer/New_Systems/rnas/4QLN

>  <Rbt.Executable>
rbdock ($Id: //depot/dev/client3/rdock/2013.1/src/exe/rbdock.cxx#4 $)

>  <Rbt.Library>
libRbt.so (2013.1, Build901 2013/11/27)

>  <Rbt.Parameter_File>
/export/apps/rDock/src/rDock_2013.1_src/data/scripts/dock_solv.prm

>  <Rbt.Receptor>
prm/pocket_docking_8.prm

>  <SCORE>
-14.1423

>  <SCORE.INTER>
-15.6143

>  <SCORE.INTER.CONST>
1

>  <SCORE.INTER.POLAR>
0

>  <SCORE.INTER.ROT>
2

>  <SCORE.INTER.SOLV>
20.2364

>  <SCORE.INTER.VDW>
-22.0884

>  <SCORE.INTER.norm>
-0.371769

>  <SCORE.INTRA>
1.47204

>  <SCORE.INTRA.DIHEDRAL>
0.000463673

>  <SCORE.INTRA.DIHEDRAL.0>
2.39985

>  <SCORE.INTRA.POLAR>
0

>  <SCORE.INTRA.POLAR.0>
0

>  <SCORE.INTRA.REPUL>
0

>  <SCORE.INTRA.REPUL.0>
0

>  <SCORE.INTRA.SOLV>
-0.0498489

>  <SCORE.INTRA.SOLV.lig_0>
-110.958

>  <SCORE.INTRA.VDW>
1.49674

>  <SCORE.INTRA.VDW.0>
-2.34644

>  <SCORE.INTRA.norm>
0.0350487

>  <SCORE.RESTR>
0

>  <SCORE.RESTR.CAVITY>
0

>  <SCORE.RESTR.norm>
0

>  <SCORE.SYSTEM>
0

>  <SCORE.SYSTEM.CONST>
0

>  <SCORE.SYSTEM.DIHEDRAL>
0

>  <SCORE.SYSTEM.SOLV>
0

>  <SCORE.SYSTEM.norm>
0

>  <SCORE.heavy>
42

>  <SCORE.norm>
-0.336721

>  <RMSD>
7.460

$$$$
ligand
 OpenBabel11021811513D
libRbt.so/2013.1/901 2013/11/27
 42 48  0  0  0  0  0  0  0  0999 V2000
    2.3909  -36.1376  -16.8835 P   0  0  2  0  0  0  0  0  0  0  0  0
    4.4126  -32.3936  -14.1615 P   0  0  1  0  0  0  0  0  0  0  0  0
    1.1617  -35.8504  -17.7139 O   0  5  0  0  0  0  0  0  0  0  0  0
    5.1004  -33.6006  -13.5696 O   0  5  0  0  0  0  0  0  0  0  0  0
    2.7918  -37.5657  -16.6009 O   0  0  0  0  0  0  0  0  0  0  0  0
    4.9161  -31.0066  -13.8418 O   0  0  0  0  0  0  0  0  0  0  0  0
    0.9554  -35.1978  -14.8802 C   0  0  0  0  0  0  0  0  0  0  0  0
    5.6009  -32.6768  -16.4984 C   0  0  0  0  0  0  0  0  0  0  0  0
    2.2396  -35.3688  -15.4775 O   0  0  0  0  0  0  0  0  0  0  0  0
    4.3851  -32.5635  -15.7624 O   0  0  0  0  0  0  0  0  0  0  0  0
    0.9408  -33.9084  -14.0681 C   0  0  1  0  0  0  0  0  0  0  0  0
    5.5210  -33.8762  -17.4345 C   0  0  1  0  0  0  0  0  0  0  0  0
   -0.0864  -33.9756  -13.0752 O   0  0  0  0  0  0  0  0  0  0  0  0
    6.8395  -34.3238  -17.7587 O   0  0  0  0  0  0  0  0  0  0  0  0
    2.2644  -33.6921  -13.3541 C   0  0  1  0  0  0  0  0  0  0  0  0
    4.7836  -35.0358  -16.7840 C   0  0  1  0  0  0  0  0  0  0  0  0
    2.8510  -32.4638  -13.7737 O   0  0  0  0  0  0  0  0  0  0  0  0
    3.6430  -35.3871  -17.5616 O   0  0  0  0  0  0  0  0  0  0  0  0
    1.9484  -33.6375  -11.8710 C   0  0  0  0  0  0  0  0  0  0  0  0
    5.7601  -36.1953  -16.7401 C   0  0  0  0  0  0  0  0  0  0  0  0
    0.4432  -33.8260  -11.7551 C   0  0  2  0  0  0  0  0  0  0  0  0
    7.0481  -35.6836  -17.3693 C   0  0  2  0  0  0  0  0  0  0  0  0
    2.4010  -37.6249   -8.7033 N   0  0  0  0  0  0  0  0  0  0  0  0
    3.0179  -36.5919   -9.3063 C   0  0  0  0  0  0  0  0  0  0  0  0
    2.3822  -35.6838  -10.0695 N   0  0  0  0  0  0  0  0  0  0  0  0
    1.0459  -35.7634  -10.2771 C   0  0  0  0  0  0  0  0  0  0  0  0
    0.2996  -36.8658   -9.6505 C   0  0  0  0  0  0  0  0  0  0  0  0
    1.0698  -37.8261   -8.8250 C   0  0  0  0  0  0  0  0  0  0  0  0
    0.4601  -38.8695   -8.2123 N   0  0  0  0  0  0  0  0  0  0  0  0
   -0.9880  -36.7121  -10.0124 N   0  0  0  0  0  0  0  0  0  0  0  0
   -1.0609  -35.6094  -10.8009 C   0  0  0  0  0  0  0  0  0  0  0  0
    0.1512  -35.0437  -10.9586 N   0  0  0  0  0  0  0  0  0  0  0  0
   11.7923  -37.6353  -16.2487 N   0  0  0  0  0  0  0  0  0  0  0  0
   11.0244  -37.7956  -17.3425 C   0  0  0  0  0  0  0  0  0  0  0  0
    9.8142  -37.2286  -17.4957 N   0  0  0  0  0  0  0  0  0  0  0  0
    9.2886  -36.4414  -16.5262 C   0  0  0  0  0  0  0  0  0  0  0  0
   10.0684  -36.2176  -15.2991 C   0  0  0  0  0  0  0  0  0  0  0  0
   11.3926  -36.8764  -15.2056 C   0  0  0  0  0  0  0  0  0  0  0  0
   12.1755  -36.7222  -14.1096 N   0  0  0  0  0  0  0  0  0  0  0  0
    9.3277  -35.4114  -14.5153 N   0  0  0  0  0  0  0  0  0  0  0  0
    8.1753  -35.1431  -15.1816 C   0  0  0  0  0  0  0  0  0  0  0  0
    8.1518  -35.7566  -16.3792 N   0  0  0  0  0  0  0  0  0  0  0  0
  1  3  1  6  0  0  0
  1  5  2  0  0  0  0
  1  9  1  0  0  0  0
  1 18  1  0  0  0  0
  2  4  1  1  0  0  0
  2  6  2  0  0  0  0
  2 10  1  0  0  0  0
  2 17  1  0  0  0  0
  7  9  1  0  0  0  0
  8 10  1  0  0  0  0
 11  7  1  1  0  0  0
 11 13  1  0  0  0  0
 11 15  1  0  0  0  0
 12  8  1  1  0  0  0
 12 14  1  0  0  0  0
 12 16  1  0  0  0  0
 13 21  1  0  0  0  0
 14 22  1  0  0  0  0
 15 17  1  6  0  0  0
 15 19  1  0  0  0  0
 16 18  1  6  0  0  0
 16 20  1  0  0  0  0
 19 21  1  0  0  0  0
 20 22  1  0  0  0  0
 21 32  1  1  0  0  0
 22 42  1  1  0  0  0
 23 24  2  0  0  0  0
 23 28  1  0  0  0  0
 24 25  1  0  0  0  0
 25 26  2  0  0  0  0
 26 27  1  0  0  0  0
 26 32  1  0  0  0  0
 27 28  2  0  0  0  0
 27 30  1  0  0  0  0
 28 29  1  0  0  0  0
 30 31  2  0  0  0  0
 31 32  1  0  0  0  0
 33 34  2  0  0  0  0
 33 38  1  0  0  0  0
 34 35  1  0  0  0  0
 35 36  2  0  0  0  0
 36 37  1  0  0  0  0
 36 42  1  0  0  0  0
 37 38  2  0  0  0  0
 37 40  1  0  0  0  0
 38 39  1  0  0  0  0
 40 41  2  0  0  0  0
 41 42  1  0  0  0  0
M  CHG  2   3  -1   4  -1
M  END
>  <CHROM.1>
127.58491006,-120.26546070,4.31233408,-35.25917192,-14.25171278,2.64574270
-0.28711270,1.99844058

>  <Name>
ligand

>  <RI>
0

>  <Rbt.Current_Directory>
/home/itssahil/PROJECTS/Mol_Feturizer/New_Systems/rnas/4QLN

>  <Rbt.Executable>
rbdock ($Id: //depot/dev/client3/rdock/2013.1/src/exe/rbdock.cxx#4 $)

>  <Rbt.Library>
libRbt.so (2013.1, Build901 2013/11/27)

>  <Rbt.Parameter_File>
/export/apps/rDock/src/rDock_2013.1_src/data/scripts/dock_solv.prm

>  <Rbt.Receptor>
prm/pocket_docking_7.prm

>  <SCORE>
-12.3824

>  <SCORE.INTER>
-14.6732

>  <SCORE.INTER.CONST>
1

>  <SCORE.INTER.POLAR>
0

>  <SCORE.INTER.ROT>
2

>  <SCORE.INTER.SOLV>
18.1922

>  <SCORE.INTER.VDW>
-20.7796

>  <SCORE.INTER.norm>
-0.349362

>  <SCORE.INTRA>
2.27707

>  <SCORE.INTRA.DIHEDRAL>
5.92148e-05

>  <SCORE.INTRA.DIHEDRAL.0>
2.39985

>  <SCORE.INTRA.POLAR>
0

>  <SCORE.INTRA.POLAR.0>
0

>  <SCORE.INTRA.REPUL>
0

>  <SCORE.INTRA.REPUL.0>
0

>  <SCORE.INTRA.SOLV>
-0.06437

>  <SCORE.INTRA.SOLV.lig_0>
-110.958

>  <SCORE.INTRA.VDW>
2.30923

>  <SCORE.INTRA.VDW.0>
-2.34644

>  <SCORE.INTRA.norm>
0.0542161

>  <SCORE.RESTR>
0.0137455

>  <SCORE.RESTR.CAVITY>
0.0137455

>  <SCORE.RESTR.norm>
0.000327275

>  <SCORE.SYSTEM>
0

>  <SCORE.SYSTEM.CONST>
0

>  <SCORE.SYSTEM.DIHEDRAL>
0

>  <SCORE.SYSTEM.SOLV>
0

>  <SCORE.SYSTEM.norm>
0

>  <SCORE.heavy>
42

>  <SCORE.norm>
-0.294819

>  <RMSD>
7.520

$$$$
ligand
 OpenBabel11021811513D
libRbt.so/2013.1/901 2013/11/27
 42 48  0  0  0  0  0  0  0  0999 V2000
    2.5818  -36.3942  -16.9972 P   0  0  2  0  0  0  0  0  0  0  0  0
    4.3306  -32.5645  -14.2063 P   0  0  1  0  0  0  0  0  0  0  0  0
    1.3413  -36.1775  -17.8322 O   0  5  0  0  0  0  0  0  0  0  0  0
    5.0942  -33.7315  -13.6272 O   0  5  0  0  0  0  0  0  0  0  0  0
    3.0758  -37.7963  -16.7326 O   0  0  0  0  0  0  0  0  0  0  0  0
    4.7379  -31.1518  -13.8627 O   0  0  0  0  0  0  0  0  0  0  0  0
    1.0739  -35.5829  -14.9909 C   0  0  0  0  0  0  0  0  0  0  0  0
    5.5498  -32.7323  -16.5385 C   0  0  0  0  0  0  0  0  0  0  0  0
    2.3704  -35.6585  -15.5813 O   0  0  0  0  0  0  0  0  0  0  0  0
    4.3246  -32.7118  -15.8097 O   0  0  0  0  0  0  0  0  0  0  0  0
    0.9678  -34.3097  -14.1601 C   0  0  1  0  0  0  0  0  0  0  0  0
    5.5564  -33.9201  -17.4925 C   0  0  1  0  0  0  0  0  0  0  0  0
   -0.0588  -34.4605  -13.1758 O   0  0  0  0  0  0  0  0  0  0  0  0
    6.9039  -34.2734  -17.8136 O   0  0  0  0  0  0  0  0  0  0  0  0
    2.2694  -34.0160  -13.4335 C   0  0  1  0  0  0  0  0  0  0  0  0
    4.8944  -35.1362  -16.8643 C   0  0  1  0  0  0  0  0  0  0  0  0
    2.7749  -32.7450  -13.8309 O   0  0  0  0  0  0  0  0  0  0  0  0
    3.7848  -35.5513  -17.6553 O   0  0  0  0  0  0  0  0  0  0  0  0
    1.9412  -34.0050  -11.9521 C   0  0  0  0  0  0  0  0  0  0  0  0
    5.9462  -36.2281  -16.8303 C   0  0  0  0  0  0  0  0  0  0  0  0
    0.4513  -34.2957  -11.8499 C   0  0  2  0  0  0  0  0  0  0  0  0
    7.2009  -35.6218  -17.4426 C   0  0  2  0  0  0  0  0  0  0  0  0
   -1.9814  -36.5399   -7.7727 N   0  0  0  0  0  0  0  0  0  0  0  0
   -2.0262  -35.2709   -8.2185 C   0  0  0  0  0  0  0  0  0  0  0  0
   -1.3411  -34.8303   -9.2898 N   0  0  0  0  0  0  0  0  0  0  0  0
   -0.5460  -35.6669   -9.9988 C   0  0  0  0  0  0  0  0  0  0  0  0
   -0.4445  -37.0719   -9.5739 C   0  0  0  0  0  0  0  0  0  0  0  0
   -1.2285  -37.4814   -8.3844 C   0  0  0  0  0  0  0  0  0  0  0  0
   -1.1923  -38.7560   -7.9265 N   0  0  0  0  0  0  0  0  0  0  0  0
    0.3963  -37.6739  -10.4358 N   0  0  0  0  0  0  0  0  0  0  0  0
    0.7985  -36.7383  -11.3336 C   0  0  0  0  0  0  0  0  0  0  0  0
    0.2367  -35.5420  -11.0734 N   0  0  0  0  0  0  0  0  0  0  0  0
   11.8699  -37.6233  -16.1135 N   0  0  0  0  0  0  0  0  0  0  0  0
   11.0971  -37.8640  -17.1888 C   0  0  0  0  0  0  0  0  0  0  0  0
    9.9086  -37.2715  -17.4028 N   0  0  0  0  0  0  0  0  0  0  0  0
    9.4118  -36.3726  -16.5190 C   0  0  0  0  0  0  0  0  0  0  0  0
   10.1988  -36.0558  -15.3172 C   0  0  0  0  0  0  0  0  0  0  0  0
   11.4979  -36.7498  -15.1530 C   0  0  0  0  0  0  0  0  0  0  0  0
   12.2856  -36.5153  -14.0748 N   0  0  0  0  0  0  0  0  0  0  0  0
    9.4879  -35.1488  -14.6210 N   0  0  0  0  0  0  0  0  0  0  0  0
    8.3463  -34.9067  -15.3154 C   0  0  0  0  0  0  0  0  0  0  0  0
    8.3009  -35.6357  -16.4457 N   0  0  0  0  0  0  0  0  0  0  0  0
  1  3  1  6  0  0  0
  1  5  2  0  0  0  0
  1  9  1  0  0  0  0
  1 18  1  0  0  0  0
  2  4  1  1  0  0  0
  2  6  2  0  0  0  0
  2 10  1  0  0  0  0
  2 17  1  0  0  0  0
  7  9  1  0  0  0  0
  8 10  1  0  0  0  0
 11  7  1  1  0  0  0
 11 13  1  0  0  0  0
 11 15  1  0  0  0  0
 12  8  1  1  0  0  0
 12 14  1  0  0  0  0
 12 16  1  0  0  0  0
 13 21  1  0  0  0  0
 14 22  1  0  0  0  0
 15 17  1  6  0  0  0
 15 19  1  0  0  0  0
 16 18  1  6  0  0  0
 16 20  1  0  0  0  0
 19 21  1  0  0  0  0
 20 22  1  0  0  0  0
 21 32  1  1  0  0  0
 22 42  1  1  0  0  0
 23 24  2  0  0  0  0
 23 28  1  0  0  0  0
 24 25  1  0  0  0  0
 25 26  2  0  0  0  0
 26 27  1  0  0  0  0
 26 32  1  0  0  0  0
 27 28  2  0  0  0  0
 27 30  1  0  0  0  0
 28 29  1  0  0  0  0
 30 31  2  0  0  0  0
 31 32  1  0  0  0  0
 33 34  2  0  0  0  0
 33 38  1  0  0  0  0
 34 35  1  0  0  0  0
 35 36  2  0  0  0  0
 36 37  1  0  0  0  0
 36 42  1  0  0  0  0
 37 38  2  0  0  0  0
 37 40  1  0  0  0  0
 38 39  1  0  0  0  0
 40 41  2  0  0  0  0
 41 42  1  0  0  0  0
M  CHG  2   3  -1   4  -1
M  END
>  <CHROM.1>
-115.54419526,-129.14188159,4.02818771,-35.33790076,-14.23479024,0.52422820
0.23655132,-1.17821453

>  <Name>
ligand

>  <RI>
0

>  <Rbt.Current_Directory>
/home/itssahil/PROJECTS/Mol_Feturizer/New_Systems/rnas/4QLN

>  <Rbt.Executable>
rbdock ($Id: //depot/dev/client3/rdock/2013.1/src/exe/rbdock.cxx#4 $)

>  <Rbt.Library>
libRbt.so (2013.1, Build901 2013/11/27)

>  <Rbt.Parameter_File>
/export/apps/rDock/src/rDock_2013.1_src/data/scripts/dock_solv.prm

>  <Rbt.Receptor>
prm/pocket_docking_8.prm

>  <SCORE>
-14.7491

>  <SCORE.INTER>
-15.4072

>  <SCORE.INTER.CONST>
1

>  <SCORE.INTER.POLAR>
0

>  <SCORE.INTER.ROT>
2

>  <SCORE.INTER.SOLV>
16.8115

>  <SCORE.INTER.VDW>
-20.8087

>  <SCORE.INTER.norm>
-0.366839

>  <SCORE.INTRA>
0.642358

>  <SCORE.INTRA.DIHEDRAL>
0.000436008

>  <SCORE.INTRA.DIHEDRAL.0>
2.39985

>  <SCORE.INTRA.POLAR>
0

>  <SCORE.INTRA.POLAR.0>
0

>  <SCORE.INTRA.REPUL>
0

>  <SCORE.INTRA.REPUL.0>
0

>  <SCORE.INTRA.SOLV>
-0.0667414

>  <SCORE.INTRA.SOLV.lig_0>
-110.958

>  <SCORE.INTRA.VDW>
0.675511

>  <SCORE.INTRA.VDW.0>
-2.34644

>  <SCORE.INTRA.norm>
0.0152942

>  <SCORE.RESTR>
0.0157933

>  <SCORE.RESTR.CAVITY>
0.0157933

>  <SCORE.RESTR.norm>
0.000376032

>  <SCORE.SYSTEM>
0

>  <SCORE.SYSTEM.CONST>
0

>  <SCORE.SYSTEM.DIHEDRAL>
0

>  <SCORE.SYSTEM.SOLV>
0

>  <SCORE.SYSTEM.norm>
0

>  <SCORE.heavy>
42

>  <SCORE.norm>
-0.351169

>  <RMSD>
7.565

$$$$
ligand
 OpenBabel11021811513D
libRbt.so/2013.1/901 2013/11/27
 42 48  0  0  0  0  0  0  0  0999 V2000
   11.3209  -32.4765  -13.8195 P   0  0  2  0  0  0  0  0  0  0  0  0
    7.9065  -33.9893  -17.2206 P   0  0  1  0  0  0  0  0  0  0  0  0
   12.5723  -31.7829  -14.3053 O   0  5  0  0  0  0  0  0  0  0  0  0
    7.4518  -34.7326  -15.9872 O   0  5  0  0  0  0  0  0  0  0  0  0
   11.2556  -33.0106  -12.4087 O   0  0  0  0  0  0  0  0  0  0  0  0
    7.0089  -33.9194  -18.4326 O   0  0  0  0  0  0  0  0  0  0  0  0
   12.0426  -34.4011  -15.4725 C   0  0  0  0  0  0  0  0  0  0  0  0
    7.3145  -31.6313  -16.1992 C   0  0  0  0  0  0  0  0  0  0  0  0
   10.9893  -33.6836  -14.8314 O   0  0  0  0  0  0  0  0  0  0  0  0
    8.2906  -32.4860  -16.7902 O   0  0  0  0  0  0  0  0  0  0  0  0
   11.5635  -34.9004  -16.8304 C   0  0  1  0  0  0  0  0  0  0  0  0
    7.8838  -31.0057  -14.9322 C   0  0  1  0  0  0  0  0  0  0  0  0
   12.3576  -36.0167  -17.2410 O   0  0  0  0  0  0  0  0  0  0  0  0
    6.8161  -30.6083  -14.0685 O   0  0  0  0  0  0  0  0  0  0  0  0
   10.1155  -35.3566  -16.7700 C   0  0  1  0  0  0  0  0  0  0  0  0
    8.7534  -31.9939  -14.1714 C   0  0  1  0  0  0  0  0  0  0  0  0
    9.3255  -34.5970  -17.6798 O   0  0  0  0  0  0  0  0  0  0  0  0
   10.0757  -31.4807  -14.0401 O   0  0  0  0  0  0  0  0  0  0  0  0
   10.1092  -36.8197  -17.1721 C   0  0  0  0  0  0  0  0  0  0  0  0
    8.1210  -32.1576  -12.8028 C   0  0  0  0  0  0  0  0  0  0  0  0
   11.5590  -37.1834  -17.4562 C   0  0  2  0  0  0  0  0  0  0  0  0
    6.8939  -31.2570  -12.7968 C   0  0  2  0  0  0  0  0  0  0  0  0
   12.8296  -38.4758  -12.5274 N   0  0  0  0  0  0  0  0  0  0  0  0
   12.4500  -37.2924  -13.0437 C   0  0  0  0  0  0  0  0  0  0  0  0
   12.1516  -37.1046  -14.3425 N   0  0  0  0  0  0  0  0  0  0  0  0
   12.2189  -38.1289  -15.2264 C   0  0  0  0  0  0  0  0  0  0  0  0
   12.6262  -39.4558  -14.7382 C   0  0  0  0  0  0  0  0  0  0  0  0
   12.9394  -39.5831  -13.2950 C   0  0  0  0  0  0  0  0  0  0  0  0
   13.3218  -40.7692  -12.7633 N   0  0  0  0  0  0  0  0  0  0  0  0
   12.6105  -40.2784  -15.8037 N   0  0  0  0  0  0  0  0  0  0  0  0
   12.2273  -39.5444  -16.8797 C   0  0  0  0  0  0  0  0  0  0  0  0
   11.9936  -38.2633  -16.5357 N   0  0  0  0  0  0  0  0  0  0  0  0
    2.6197  -33.4012  -14.9660 N   0  0  0  0  0  0  0  0  0  0  0  0
    3.5931  -32.6557  -15.5210 C   0  0  0  0  0  0  0  0  0  0  0  0
    4.6425  -32.1665  -14.8360 N   0  0  0  0  0  0  0  0  0  0  0  0
    4.7785  -32.4069  -13.5095 C   0  0  0  0  0  0  0  0  0  0  0  0
    3.7542  -33.2152  -12.8302 C   0  0  0  0  0  0  0  0  0  0  0  0
    2.6291  -33.7181  -13.6533 C   0  0  0  0  0  0  0  0  0  0  0  0
    1.6430  -34.4706  -13.1061 N   0  0  0  0  0  0  0  0  0  0  0  0
    4.1263  -33.3000  -11.5390 N   0  0  0  0  0  0  0  0  0  0  0  0
    5.2861  -32.6068  -11.4035 C   0  0  0  0  0  0  0  0  0  0  0  0
    5.6745  -32.0748  -12.5770 N   0  0  0  0  0  0  0  0  0  0  0  0
  1  3  1  6  0  0  0
  1  5  2  0  0  0  0
  1  9  1  0  0  0  0
  1 18  1  0  0  0  0
  2  4  1  1  0  0  0
  2  6  2  0  0  0  0
  2 10  1  0  0  0  0
  2 17  1  0  0  0  0
  7  9  1  0  0  0  0
  8 10  1  0  0  0  0
 11  7  1  1  0  0  0
 11 13  1  0  0  0  0
 11 15  1  0  0  0  0
 12  8  1  6  0  0  0
 12 14  1  0  0  0  0
 12 16  1  0  0  0  0
 13 21  1  0  0  0  0
 14 22  1  0  0  0  0
 15 17  1  6  0  0  0
 15 19  1  0  0  0  0
 16 18  1  1  0  0  0
 16 20  1  0  0  0  0
 19 21  1  0  0  0  0
 20 22  1  0  0  0  0
 21 32  1  1  0  0  0
 22 42  1  6  0  0  0
 23 24  2  0  0  0  0
 23 28  1  0  0  0  0
 24 25  1  0  0  0  0
 25 26  2  0  0  0  0
 26 27  1  0  0  0  0
 26 32  1  0  0  0  0
 27 28  2  0  0  0  0
 27 30  1  0  0  0  0
 28 29  1  0  0  0  0
 30 31  2  0  0  0  0
 31 32  1  0  0  0  0
 33 34  2  0  0  0  0
 33 38  1  0  0  0  0
 34 35  1  0  0  0  0
 35 36  2  0  0  0  0
 36 37  1  0  0  0  0
 36 42  1  0  0  0  0
 37 38  2  0  0  0  0
 37 40  1  0  0  0  0
 38 39  1  0  0  0  0
 40 41  2  0  0  0  0
 41 42  1  0  0  0  0
M  CHG  2   3  -1   4  -1
M  END
>  <CHROM.1>
47.05091877,13.73154007,8.97907727,-34.47632992,-14.85940451,-0.63930361
0.01817984,0.18898319

>  <Name>
ligand

>  <RI>
0

>  <Rbt.Current_Directory>
/home/itssahil/PROJECTS/Mol_Feturizer/New_Systems/rnas/4QLN

>  <Rbt.Executable>
rbdock ($Id: //depot/dev/client3/rdock/2013.1/src/exe/rbdock.cxx#4 $)

>  <Rbt.Library>
libRbt.so (2013.1, Build901 2013/11/27)

>  <Rbt.Parameter_File>
/export/apps/rDock/src/rDock_2013.1_src/data/scripts/dock_solv.prm

>  <Rbt.Receptor>
prm/pocket_docking_8.prm

>  <SCORE>
-16.256

>  <SCORE.INTER>
-15.7821

>  <SCORE.INTER.CONST>
1

>  <SCORE.INTER.POLAR>
0

>  <SCORE.INTER.ROT>
2

>  <SCORE.INTER.SOLV>
19.5846

>  <SCORE.INTER.VDW>
-21.983

>  <SCORE.INTER.norm>
-0.375765

>  <SCORE.INTRA>
-0.473913

>  <SCORE.INTRA.DIHEDRAL>
-0.000509973

>  <SCORE.INTRA.DIHEDRAL.0>
2.39985

>  <SCORE.INTRA.POLAR>
0

>  <SCORE.INTRA.POLAR.0>
0

>  <SCORE.INTRA.REPUL>
0

>  <SCORE.INTRA.REPUL.0>
0

>  <SCORE.INTRA.SOLV>
0.0405635

>  <SCORE.INTRA.SOLV.lig_0>
-110.958

>  <SCORE.INTRA.VDW>
-0.493939

>  <SCORE.INTRA.VDW.0>
-2.34644

>  <SCORE.INTRA.norm>
-0.0112836

>  <SCORE.RESTR>
0

>  <SCORE.RESTR.CAVITY>
0

>  <SCORE.RESTR.norm>
0

>  <SCORE.SYSTEM>
0

>  <SCORE.SYSTEM.CONST>
0

>  <SCORE.SYSTEM.DIHEDRAL>
0

>  <SCORE.SYSTEM.SOLV>
0

>  <SCORE.SYSTEM.norm>
0

>  <SCORE.heavy>
42

>  <SCORE.norm>
-0.387048

>  <RMSD>
7.774

$$$$
ligand
 OpenBabel11021811513D
libRbt.so/2013.1/901 2013/11/27
 42 48  0  0  0  0  0  0  0  0999 V2000
    9.9121  -33.5067  -12.7772 P   0  0  2  0  0  0  0  0  0  0  0  0
    7.3947  -33.9871  -17.1299 P   0  0  1  0  0  0  0  0  0  0  0  0
   11.2636  -32.8314  -12.7903 O   0  5  0  0  0  0  0  0  0  0  0  0
    6.6303  -34.9330  -16.2348 O   0  5  0  0  0  0  0  0  0  0  0  0
    9.4873  -34.3178  -11.5765 O   0  0  0  0  0  0  0  0  0  0  0  0
    6.8243  -33.5912  -18.4706 O   0  0  0  0  0  0  0  0  0  0  0  0
   10.9619  -35.0939  -14.6035 C   0  0  0  0  0  0  0  0  0  0  0  0
    6.6378  -31.8557  -15.7743 C   0  0  0  0  0  0  0  0  0  0  0  0
    9.8045  -34.4432  -14.0819 O   0  0  0  0  0  0  0  0  0  0  0  0
    7.7043  -32.6443  -16.2971 O   0  0  0  0  0  0  0  0  0  0  0  0
   10.8167  -35.2561  -16.1119 C   0  0  1  0  0  0  0  0  0  0  0  0
    6.8965  -31.5587  -14.3026 C   0  0  1  0  0  0  0  0  0  0  0  0
   11.6550  -36.3226  -16.5650 O   0  0  0  0  0  0  0  0  0  0  0  0
    5.6613  -31.2654  -13.6453 O   0  0  0  0  0  0  0  0  0  0  0  0
    9.3857  -35.5947  -16.4942 C   0  0  1  0  0  0  0  0  0  0  0  0
    7.5242  -32.7524  -13.6007 C   0  0  1  0  0  0  0  0  0  0  0  0
    8.8651  -34.5990  -17.3696 O   0  0  0  0  0  0  0  0  0  0  0  0
    8.7880  -32.3882  -13.0536 O   0  0  0  0  0  0  0  0  0  0  0  0
    9.4365  -36.9353  -17.2032 C   0  0  0  0  0  0  0  0  0  0  0  0
    6.5709  -33.1474  -12.4895 C   0  0  0  0  0  0  0  0  0  0  0  0
   10.9006  -37.3487  -17.2155 C   0  0  2  0  0  0  0  0  0  0  0  0
    5.4061  -32.1708  -12.5686 C   0  0  2  0  0  0  0  0  0  0  0  0
    9.0050  -40.5289  -13.4911 N   0  0  0  0  0  0  0  0  0  0  0  0
    8.5556  -39.3370  -13.9256 C   0  0  0  0  0  0  0  0  0  0  0  0
    9.1499  -38.6242  -14.9002 N   0  0  0  0  0  0  0  0  0  0  0  0
   10.2662  -39.0830  -15.5151 C   0  0  0  0  0  0  0  0  0  0  0  0
   10.8194  -40.3803  -15.0958 C   0  0  0  0  0  0  0  0  0  0  0  0
   10.1092  -41.1057  -14.0158 C   0  0  0  0  0  0  0  0  0  0  0  0
   10.5513  -42.3065  -13.5704 N   0  0  0  0  0  0  0  0  0  0  0  0
   11.9104  -40.5957  -15.8545 N   0  0  0  0  0  0  0  0  0  0  0  0
   12.0451  -39.5312  -16.6863 C   0  0  0  0  0  0  0  0  0  0  0  0
   11.0651  -38.6296  -16.4844 N   0  0  0  0  0  0  0  0  0  0  0  0
    1.7001  -35.3161  -10.5825 N   0  0  0  0  0  0  0  0  0  0  0  0
    2.7959  -34.7926  -10.0023 C   0  0  0  0  0  0  0  0  0  0  0  0
    3.6693  -33.9924  -10.6400 N   0  0  0  0  0  0  0  0  0  0  0  0
    3.4852  -33.6611  -11.9408 C   0  0  0  0  0  0  0  0  0  0  0  0
    2.3088  -34.1942  -12.6451 C   0  0  0  0  0  0  0  0  0  0  0  0
    1.3936  -35.0684  -11.8741 C   0  0  0  0  0  0  0  0  0  0  0  0
    0.2862  -35.6011  -12.4470 N   0  0  0  0  0  0  0  0  0  0  0  0
    2.3658  -33.7173  -13.9030 N   0  0  0  0  0  0  0  0  0  0  0  0
    3.4804  -32.9472  -13.9959 C   0  0  0  0  0  0  0  0  0  0  0  0
    4.1472  -32.9138  -12.8274 N   0  0  0  0  0  0  0  0  0  0  0  0
  1  3  1  1  0  0  0
  1  5  2  0  0  0  0
  1  9  1  0  0  0  0
  1 18  1  0  0  0  0
  2  4  1  1  0  0  0
  2  6  2  0  0  0  0
  2 10  1  0  0  0  0
  2 17  1  0  0  0  0
  7  9  1  0  0  0  0
  8 10  1  0  0  0  0
 11  7  1  1  0  0  0
 11 13  1  0  0  0  0
 11 15  1  0  0  0  0
 12  8  1  6  0  0  0
 12 14  1  0  0  0  0
 12 16  1  0  0  0  0
 13 21  1  0  0  0  0
 14 22  1  0  0  0  0
 15 17  1  6  0  0  0
 15 19  1  0  0  0  0
 16 18  1  1  0  0  0
 16 20  1  0  0  0  0
 19 21  1  0  0  0  0
 20 22  1  0  0  0  0
 21 32  1  1  0  0  0
 22 42  1  6  0  0  0
 23 24  2  0  0  0  0
 23 28  1  0  0  0  0
 24 25  1  0  0  0  0
 25 26  2  0  0  0  0
 26 27  1  0  0  0  0
 26 32  1  0  0  0  0
 27 28  2  0  0  0  0
 27 30  1  0  0  0  0
 28 29  1  0  0  0  0
 30 31  2  0  0  0  0
 31 32  1  0  0  0  0
 33 34  2  0  0  0  0
 33 38  1  0  0  0  0
 34 35  1  0  0  0  0
 35 36  2  0  0  0  0
 36 37  1  0  0  0  0
 36 42  1  0  0  0  0
 37 38  2  0  0  0  0
 37 40  1  0  0  0  0
 38 39  1  0  0  0  0
 40 41  2  0  0  0  0
 41 42  1  0  0  0  0
M  CHG  2   3  -1   4  -1
M  END
>  <CHROM.1>
92.42066448,-167.59651140,7.68336716,-35.26223347,-14.37892210,-0.49562489
0.50380028,-0.19870951

>  <Name>
ligand

>  <RI>
0

>  <Rbt.Current_Directory>
/home/itssahil/PROJECTS/Mol_Feturizer/New_Systems/rnas/4QLN

>  <Rbt.Executable>
rbdock ($Id: //depot/dev/client3/rdock/2013.1/src/exe/rbdock.cxx#4 $)

>  <Rbt.Library>
libRbt.so (2013.1, Build901 2013/11/27)

>  <Rbt.Parameter_File>
/export/apps/rDock/src/rDock_2013.1_src/data/scripts/dock_solv.prm

>  <Rbt.Receptor>
prm/pocket_docking_8.prm

>  <SCORE>
-16.0993

>  <SCORE.INTER>
-17.3628

>  <SCORE.INTER.CONST>
1

>  <SCORE.INTER.POLAR>
0

>  <SCORE.INTER.ROT>
2

>  <SCORE.INTER.SOLV>
19.6323

>  <SCORE.INTER.VDW>
-23.0527

>  <SCORE.INTER.norm>
-0.413401

>  <SCORE.INTRA>
1.26355

>  <SCORE.INTRA.DIHEDRAL>
0.000863639

>  <SCORE.INTRA.DIHEDRAL.0>
2.39985

>  <SCORE.INTRA.POLAR>
0

>  <SCORE.INTRA.POLAR.0>
0

>  <SCORE.INTRA.REPUL>
0

>  <SCORE.INTRA.REPUL.0>
0

>  <SCORE.INTRA.SOLV>
-0.128089

>  <SCORE.INTRA.SOLV.lig_0>
-110.958

>  <SCORE.INTRA.VDW>
1.32716

>  <SCORE.INTRA.VDW.0>
-2.34644

>  <SCORE.INTRA.norm>
0.0300845

>  <SCORE.RESTR>
0

>  <SCORE.RESTR.CAVITY>
0

>  <SCORE.RESTR.norm>
0

>  <SCORE.SYSTEM>
0

>  <SCORE.SYSTEM.CONST>
0

>  <SCORE.SYSTEM.DIHEDRAL>
0

>  <SCORE.SYSTEM.SOLV>
0

>  <SCORE.SYSTEM.norm>
0

>  <SCORE.heavy>
42

>  <SCORE.norm>
-0.383316

>  <RMSD>
7.866

$$$$
ligand
 OpenBabel11021811513D
libRbt.so/2013.1/901 2013/11/27
 42 48  0  0  0  0  0  0  0  0999 V2000
    8.6734  -31.3892  -14.9372 P   0  0  2  0  0  0  0  0  0  0  0  0
    6.0958  -35.4569  -16.4619 P   0  0  1  0  0  0  0  0  0  0  0  0
    9.0653  -30.3511  -15.9627 O   0  5  0  0  0  0  0  0  0  0  0  0
    6.5350  -35.8799  -15.0805 O   0  5  0  0  0  0  0  0  0  0  0  0
    9.3274  -31.3877  -13.5763 O   0  0  0  0  0  0  0  0  0  0  0  0
    5.0509  -36.2591  -17.1996 O   0  0  0  0  0  0  0  0  0  0  0  0
    9.9257  -33.0779  -16.5301 C   0  0  0  0  0  0  0  0  0  0  0  0
    4.5092  -33.5632  -15.5397 C   0  0  0  0  0  0  0  0  0  0  0  0
    8.8761  -32.8455  -15.5924 O   0  0  0  0  0  0  0  0  0  0  0  0
    5.5970  -33.9278  -16.3862 O   0  0  0  0  0  0  0  0  0  0  0  0
    9.4983  -34.1620  -17.5122 C   0  0  1  0  0  0  0  0  0  0  0  0
    4.9040  -32.3618  -14.6902 C   0  0  1  0  0  0  0  0  0  0  0  0
   10.6553  -34.7694  -18.0934 O   0  0  0  0  0  0  0  0  0  0  0  0
    4.0963  -32.3182  -13.5114 O   0  0  0  0  0  0  0  0  0  0  0  0
    8.7006  -35.2520  -16.8165 C   0  0  1  0  0  0  0  0  0  0  0  0
    6.3580  -32.4480  -14.2541 C   0  0  1  0  0  0  0  0  0  0  0  0
    7.4036  -35.3542  -17.3963 O   0  0  0  0  0  0  0  0  0  0  0  0
    7.0788  -31.3155  -14.7307 O   0  0  0  0  0  0  0  0  0  0  0  0
    9.4669  -36.5449  -17.0256 C   0  0  0  0  0  0  0  0  0  0  0  0
    6.3516  -32.4599  -12.7377 C   0  0  0  0  0  0  0  0  0  0  0  0
   10.6984  -36.1762  -17.8394 C   0  0  2  0  0  0  0  0  0  0  0  0
    4.8893  -32.3786  -12.3233 C   0  0  2  0  0  0  0  0  0  0  0  0
   13.6361  -39.9831  -15.7284 N   0  0  0  0  0  0  0  0  0  0  0  0
   12.4824  -40.0584  -16.4174 C   0  0  0  0  0  0  0  0  0  0  0  0
   11.8315  -38.9861  -16.9049 N   0  0  0  0  0  0  0  0  0  0  0  0
   12.3186  -37.7352  -16.7231 C   0  0  0  0  0  0  0  0  0  0  0  0
   13.5773  -37.5700  -15.9793 C   0  0  0  0  0  0  0  0  0  0  0  0
   14.2347  -38.7982  -15.4731 C   0  0  0  0  0  0  0  0  0  0  0  0
   15.3966  -38.7355  -14.7790 N   0  0  0  0  0  0  0  0  0  0  0  0
   13.8317  -36.2485  -15.9439 N   0  0  0  0  0  0  0  0  0  0  0  0
   12.8256  -35.6219  -16.6060 C   0  0  0  0  0  0  0  0  0  0  0  0
   11.9238  -36.5079  -17.0707 N   0  0  0  0  0  0  0  0  0  0  0  0
    6.2765  -37.2281  -10.8635 N   0  0  0  0  0  0  0  0  0  0  0  0
    6.9125  -36.3452  -11.6557 C   0  0  0  0  0  0  0  0  0  0  0  0
    6.4336  -35.1224  -11.9473 N   0  0  0  0  0  0  0  0  0  0  0  0
    5.2483  -34.7025  -11.4425 C   0  0  0  0  0  0  0  0  0  0  0  0
    4.4926  -35.6115  -10.5669 C   0  0  0  0  0  0  0  0  0  0  0  0
    5.0867  -36.9412  -10.2928 C   0  0  0  0  0  0  0  0  0  0  0  0
    4.4562  -37.8389   -9.4961 N   0  0  0  0  0  0  0  0  0  0  0  0
    3.3717  -34.9566  -10.2098 N   0  0  0  0  0  0  0  0  0  0  0  0
    3.4064  -33.7364  -10.8046 C   0  0  0  0  0  0  0  0  0  0  0  0
    4.5240  -33.5851  -11.5390 N   0  0  0  0  0  0  0  0  0  0  0  0
  1  3  1  6  0  0  0
  1  5  2  0  0  0  0
  1  9  1  0  0  0  0
  1 18  1  0  0  0  0
  2  4  1  1  0  0  0
  2  6  2  0  0  0  0
  2 10  1  0  0  0  0
  2 17  1  0  0  0  0
  7  9  1  0  0  0  0
  8 10  1  0  0  0  0
 11  7  1  1  0  0  0
 11 13  1  0  0  0  0
 11 15  1  0  0  0  0
 12  8  1  6  0  0  0
 12 14  1  0  0  0  0
 12 16  1  0  0  0  0
 13 21  1  0  0  0  0
 14 22  1  0  0  0  0
 15 17  1  6  0  0  0
 15 19  1  0  0  0  0
 16 18  1  1  0  0  0
 16 20  1  0  0  0  0
 19 21  1  0  0  0  0
 20 22  1  0  0  0  0
 21 32  1  1  0  0  0
 22 42  1  6  0  0  0
 23 24  2  0  0  0  0
 23 28  1  0  0  0  0
 24 25  1  0  0  0  0
 25 26  2  0  0  0  0
 26 27  1  0  0  0  0
 26 32  1  0  0  0  0
 27 28  2  0  0  0  0
 27 30  1  0  0  0  0
 28 29  1  0  0  0  0
 30 31  2  0  0  0  0
 31 32  1  0  0  0  0
 33 34  2  0  0  0  0
 33 38  1  0  0  0  0
 34 35  1  0  0  0  0
 35 36  2  0  0  0  0
 36 37  1  0  0  0  0
 36 42  1  0  0  0  0
 37 38  2  0  0  0  0
 37 40  1  0  0  0  0
 38 39  1  0  0  0  0
 40 41  2  0  0  0  0
 41 42  1  0  0  0  0
M  CHG  2   3  -1   4  -1
M  END
>  <CHROM.1>
-176.27162392,105.12538305,8.14388807,-34.95492024,-14.75384755,-3.06910488
-0.60339931,2.55717983

>  <Name>
ligand

>  <RI>
0

>  <Rbt.Current_Directory>
/home/itssahil/PROJECTS/Mol_Feturizer/New_Systems/rnas/4QLN

>  <Rbt.Executable>
rbdock ($Id: //depot/dev/client3/rdock/2013.1/src/exe/rbdock.cxx#4 $)

>  <Rbt.Library>
libRbt.so (2013.1, Build901 2013/11/27)

>  <Rbt.Parameter_File>
/export/apps/rDock/src/rDock_2013.1_src/data/scripts/dock_solv.prm

>  <Rbt.Receptor>
prm/pocket_docking_8.prm

>  <SCORE>
-14.7272

>  <SCORE.INTER>
-16.6637

>  <SCORE.INTER.CONST>
1

>  <SCORE.INTER.POLAR>
0

>  <SCORE.INTER.ROT>
2

>  <SCORE.INTER.SOLV>
12.0534

>  <SCORE.INTER.VDW>
-20.0602

>  <SCORE.INTER.norm>
-0.396755

>  <SCORE.INTRA>
1.93644

>  <SCORE.INTRA.DIHEDRAL>
0.000729039

>  <SCORE.INTRA.DIHEDRAL.0>
2.39985

>  <SCORE.INTRA.POLAR>
0

>  <SCORE.INTRA.POLAR.0>
0

>  <SCORE.INTRA.REPUL>
0

>  <SCORE.INTRA.REPUL.0>
0

>  <SCORE.INTRA.SOLV>
0.276417

>  <SCORE.INTRA.SOLV.lig_0>
-110.958

>  <SCORE.INTRA.VDW>
1.79787

>  <SCORE.INTRA.VDW.0>
-2.34644

>  <SCORE.INTRA.norm>
0.0461058

>  <SCORE.RESTR>
0

>  <SCORE.RESTR.CAVITY>
0

>  <SCORE.RESTR.norm>
0

>  <SCORE.SYSTEM>
0

>  <SCORE.SYSTEM.CONST>
0

>  <SCORE.SYSTEM.DIHEDRAL>
0

>  <SCORE.SYSTEM.SOLV>
0

>  <SCORE.SYSTEM.norm>
0

>  <SCORE.heavy>
42

>  <SCORE.norm>
-0.350649

>  <RMSD>
7.871

$$$$
ligand
 OpenBabel11021811513D
libRbt.so/2013.1/901 2013/11/27
 42 48  0  0  0  0  0  0  0  0999 V2000
    8.7463  -31.3766  -14.9353 P   0  0  2  0  0  0  0  0  0  0  0  0
    6.1480  -35.4181  -16.4938 P   0  0  1  0  0  0  0  0  0  0  0  0
    9.1428  -30.3314  -15.9519 O   0  5  0  0  0  0  0  0  0  0  0  0
    6.5859  -35.8554  -15.1163 O   0  5  0  0  0  0  0  0  0  0  0  0
    9.4011  -31.3901  -13.5747 O   0  0  0  0  0  0  0  0  0  0  0  0
    5.0989  -36.2088  -17.2378 O   0  0  0  0  0  0  0  0  0  0  0  0
    9.9895  -33.0574  -16.5435 C   0  0  0  0  0  0  0  0  0  0  0  0
    4.5713  -33.5249  -15.5542 C   0  0  0  0  0  0  0  0  0  0  0  0
    8.9416  -32.8281  -15.6032 O   0  0  0  0  0  0  0  0  0  0  0  0
    5.6568  -33.8874  -16.4044 O   0  0  0  0  0  0  0  0  0  0  0  0
    9.5562  -34.1309  -17.5347 C   0  0  1  0  0  0  0  0  0  0  0  0
    4.9724  -32.3328  -14.6945 C   0  0  1  0  0  0  0  0  0  0  0  0
   10.7100  -34.7388  -18.1218 O   0  0  0  0  0  0  0  0  0  0  0  0
    4.1655  -32.2955  -13.5149 O   0  0  0  0  0  0  0  0  0  0  0  0
    8.7536  -35.2230  -16.8480 C   0  0  1  0  0  0  0  0  0  0  0  0
    6.4261  -32.4299  -14.2600 C   0  0  1  0  0  0  0  0  0  0  0  0
    7.4558  -35.3137  -17.4280 O   0  0  0  0  0  0  0  0  0  0  0  0
    7.1522  -31.2969  -14.7271 O   0  0  0  0  0  0  0  0  0  0  0  0
    9.5135  -36.5177  -17.0689 C   0  0  0  0  0  0  0  0  0  0  0  0
    6.4205  -32.4549  -12.7437 C   0  0  0  0  0  0  0  0  0  0  0  0
   10.7464  -36.1479  -17.8801 C   0  0  2  0  0  0  0  0  0  0  0  0
    4.9588  -32.3702  -12.3278 C   0  0  2  0  0  0  0  0  0  0  0  0
   13.6238  -39.9803  -15.7326 N   0  0  0  0  0  0  0  0  0  0  0  0
   12.4639  -40.0430  -16.4123 C   0  0  0  0  0  0  0  0  0  0  0  0
   11.8307  -38.9654  -16.9114 N   0  0  0  0  0  0  0  0  0  0  0  0
   12.3436  -37.7219  -16.7518 C   0  0  0  0  0  0  0  0  0  0  0  0
   13.6106  -37.5705  -16.0193 C   0  0  0  0  0  0  0  0  0  0  0  0
   14.2475  -38.8038  -15.4993 C   0  0  0  0  0  0  0  0  0  0  0  0
   15.4154  -38.7537  -14.8143 N   0  0  0  0  0  0  0  0  0  0  0  0
   13.8912  -36.2539  -16.0056 N   0  0  0  0  0  0  0  0  0  0  0  0
   12.8929  -35.6174  -16.6700 C   0  0  0  0  0  0  0  0  0  0  0  0
   11.9705  -36.4923  -17.1151 N   0  0  0  0  0  0  0  0  0  0  0  0
    6.3414  -37.2245  -10.8799 N   0  0  0  0  0  0  0  0  0  0  0  0
    6.9836  -36.3360  -11.6606 C   0  0  0  0  0  0  0  0  0  0  0  0
    6.5051  -35.1127  -11.9506 N   0  0  0  0  0  0  0  0  0  0  0  0
    5.3138  -34.6980  -11.4559 C   0  0  0  0  0  0  0  0  0  0  0  0
    4.5510  -35.6133  -10.5930 C   0  0  0  0  0  0  0  0  0  0  0  0
    5.1451  -36.9432  -10.3199 C   0  0  0  0  0  0  0  0  0  0  0  0
    4.5084  -37.8465   -9.5346 N   0  0  0  0  0  0  0  0  0  0  0  0
    3.4251  -34.9627  -10.2440 N   0  0  0  0  0  0  0  0  0  0  0  0
    3.4633  -33.7393  -10.8319 C   0  0  0  0  0  0  0  0  0  0  0  0
    4.5880  -33.5816  -11.5538 N   0  0  0  0  0  0  0  0  0  0  0  0
  1  3  1  6  0  0  0
  1  5  2  0  0  0  0
  1  9  1  0  0  0  0
  1 18  1  0  0  0  0
  2  4  1  1  0  0  0
  2  6  2  0  0  0  0
  2 10  1  0  0  0  0
  2 17  1  0  0  0  0
  7  9  1  0  0  0  0
  8 10  1  0  0  0  0
 11  7  1  1  0  0  0
 11 13  1  0  0  0  0
 11 15  1  0  0  0  0
 12  8  1  6  0  0  0
 12 14  1  0  0  0  0
 12 16  1  0  0  0  0
 13 21  1  0  0  0  0
 14 22  1  0  0  0  0
 15 17  1  6  0  0  0
 15 19  1  0  0  0  0
 16 18  1  1  0  0  0
 16 20  1  0  0  0  0
 19 21  1  0  0  0  0
 20 22  1  0  0  0  0
 21 32  1  1  0  0  0
 22 42  1  6  0  0  0
 23 24  2  0  0  0  0
 23 28  1  0  0  0  0
 24 25  1  0  0  0  0
 25 26  2  0  0  0  0
 26 27  1  0  0  0  0
 26 32  1  0  0  0  0
 27 28  2  0  0  0  0
 27 30  1  0  0  0  0
 28 29  1  0  0  0  0
 30 31  2  0  0  0  0
 31 32  1  0  0  0  0
 33 34  2  0  0  0  0
 33 38  1  0  0  0  0
 34 35  1  0  0  0  0
 35 36  2  0  0  0  0
 36 37  1  0  0  0  0
 36 42  1  0  0  0  0
 37 38  2  0  0  0  0
 37 40  1  0  0  0  0
 38 39  1  0  0  0  0
 40 41  2  0  0  0  0
 41 42  1  0  0  0  0
M  CHG  2   3  -1   4  -1
M  END
>  <CHROM.1>
-177.91538175,105.89200080,8.19748006,-34.93932836,-14.77414416,-3.06843443
-0.60627099,2.56127128

>  <Name>
ligand

>  <RI>
0

>  <Rbt.Current_Directory>
/home/itssahil/PROJECTS/Mol_Feturizer/New_Systems/rnas/4QLN

>  <Rbt.Executable>
rbdock ($Id: //depot/dev/client3/rdock/2013.1/src/exe/rbdock.cxx#4 $)

>  <Rbt.Library>
libRbt.so (2013.1, Build901 2013/11/27)

>  <Rbt.Parameter_File>
/export/apps/rDock/src/rDock_2013.1_src/data/scripts/dock_solv.prm

>  <Rbt.Receptor>
prm/pocket_docking_8.prm

>  <SCORE>
-14.757

>  <SCORE.INTER>
-16.7475

>  <SCORE.INTER.CONST>
1

>  <SCORE.INTER.POLAR>
0

>  <SCORE.INTER.ROT>
2

>  <SCORE.INTER.SOLV>
12.1083

>  <SCORE.INTER.VDW>
-20.1345

>  <SCORE.INTER.norm>
-0.398751

>  <SCORE.INTRA>
1.99053

>  <SCORE.INTRA.DIHEDRAL>
0.000684883

>  <SCORE.INTRA.DIHEDRAL.0>
2.39985

>  <SCORE.INTRA.POLAR>
0

>  <SCORE.INTRA.POLAR.0>
0

>  <SCORE.INTRA.REPUL>
0

>  <SCORE.INTRA.REPUL.0>
0

>  <SCORE.INTRA.SOLV>
0.256763

>  <SCORE.INTRA.SOLV.lig_0>
-110.958

>  <SCORE.INTRA.VDW>
1.86181

>  <SCORE.INTRA.VDW.0>
-2.34644

>  <SCORE.INTRA.norm>
0.0473936

>  <SCORE.RESTR>
0

>  <SCORE.RESTR.CAVITY>
0

>  <SCORE.RESTR.norm>
0

>  <SCORE.SYSTEM>
0

>  <SCORE.SYSTEM.CONST>
0

>  <SCORE.SYSTEM.DIHEDRAL>
0

>  <SCORE.SYSTEM.SOLV>
0

>  <SCORE.SYSTEM.norm>
0

>  <SCORE.heavy>
42

>  <SCORE.norm>
-0.351357

>  <RMSD>
7.884

$$$$
ligand
 OpenBabel11021811513D
libRbt.so/2013.1/901 2013/11/27
 42 48  0  0  0  0  0  0  0  0999 V2000
    8.7338  -31.4203  -14.9601 P   0  0  2  0  0  0  0  0  0  0  0  0
    6.1163  -35.4680  -16.4696 P   0  0  1  0  0  0  0  0  0  0  0  0
    9.1312  -30.3871  -15.9885 O   0  5  0  0  0  0  0  0  0  0  0  0
    6.5566  -35.8927  -15.0889 O   0  5  0  0  0  0  0  0  0  0  0  0
    9.3925  -31.4222  -13.6014 O   0  0  0  0  0  0  0  0  0  0  0  0
    5.0621  -36.2624  -17.2025 O   0  0  0  0  0  0  0  0  0  0  0  0
    9.9662  -33.1221  -16.5545 C   0  0  0  0  0  0  0  0  0  0  0  0
    4.5492  -33.5594  -15.5451 C   0  0  0  0  0  0  0  0  0  0  0  0
    8.9219  -32.8792  -15.6136 O   0  0  0  0  0  0  0  0  0  0  0  0
    5.6309  -33.9346  -16.3946 O   0  0  0  0  0  0  0  0  0  0  0  0
    9.5262  -34.2041  -17.5334 C   0  0  1  0  0  0  0  0  0  0  0  0
    4.9571  -32.3600  -14.6988 C   0  0  1  0  0  0  0  0  0  0  0  0
   10.6760  -34.8223  -18.1175 O   0  0  0  0  0  0  0  0  0  0  0  0
    4.1538  -32.3076  -13.5174 O   0  0  0  0  0  0  0  0  0  0  0  0
    8.7215  -35.2861  -16.8333 C   0  0  1  0  0  0  0  0  0  0  0  0
    6.4118  -32.4581  -14.2675 C   0  0  1  0  0  0  0  0  0  0  0  0
    7.4218  -35.3780  -17.4085 O   0  0  0  0  0  0  0  0  0  0  0  0
    7.1406  -31.3326  -14.7483 O   0  0  0  0  0  0  0  0  0  0  0  0
    9.4760  -36.5858  -17.0429 C   0  0  0  0  0  0  0  0  0  0  0  0
    6.4104  -32.4675  -12.7510 C   0  0  0  0  0  0  0  0  0  0  0  0
   10.7079  -36.2289  -17.8614 C   0  0  2  0  0  0  0  0  0  0  0  0
    4.9503  -32.3731  -12.3318 C   0  0  2  0  0  0  0  0  0  0  0  0
   13.5940  -40.0530  -15.7108 N   0  0  0  0  0  0  0  0  0  0  0  0
   12.4341  -40.1188  -16.3901 C   0  0  0  0  0  0  0  0  0  0  0  0
   11.7985  -39.0431  -16.8901 N   0  0  0  0  0  0  0  0  0  0  0  0
   12.3088  -37.7984  -16.7320 C   0  0  0  0  0  0  0  0  0  0  0  0
   13.5757  -37.6436  -16.0000 C   0  0  0  0  0  0  0  0  0  0  0  0
   14.2153  -38.8750  -15.4789 C   0  0  0  0  0  0  0  0  0  0  0  0
   15.3832  -38.8217  -14.7943 N   0  0  0  0  0  0  0  0  0  0  0  0
   13.8535  -36.3264  -15.9877 N   0  0  0  0  0  0  0  0  0  0  0  0
   12.8537  -35.6927  -16.6525 C   0  0  0  0  0  0  0  0  0  0  0  0
   11.9330  -36.5699  -17.0964 N   0  0  0  0  0  0  0  0  0  0  0  0
    6.2947  -37.2367  -10.8792 N   0  0  0  0  0  0  0  0  0  0  0  0
    6.9348  -36.3611  -11.6762 C   0  0  0  0  0  0  0  0  0  0  0  0
    6.4672  -35.1333  -11.9651 N   0  0  0  0  0  0  0  0  0  0  0  0
    5.2901  -34.7003  -11.4524 C   0  0  0  0  0  0  0  0  0  0  0  0
    4.5306  -35.6006  -10.5710 C   0  0  0  0  0  0  0  0  0  0  0  0
    5.1120  -36.9366  -10.3003 C   0  0  0  0  0  0  0  0  0  0  0  0
    4.4774  -37.8270   -9.4988 N   0  0  0  0  0  0  0  0  0  0  0  0
    3.4194  -34.9334  -10.2064 N   0  0  0  0  0  0  0  0  0  0  0  0
    3.4634  -33.7139  -10.8022 C   0  0  0  0  0  0  0  0  0  0  0  0
    4.5773  -33.5751  -11.5443 N   0  0  0  0  0  0  0  0  0  0  0  0
  1  3  1  6  0  0  0
  1  5  2  0  0  0  0
  1  9  1  0  0  0  0
  1 18  1  0  0  0  0
  2  4  1  1  0  0  0
  2  6  2  0  0  0  0
  2 10  1  0  0  0  0
  2 17  1  0  0  0  0
  7  9  1  0  0  0  0
  8 10  1  0  0  0  0
 11  7  1  1  0  0  0
 11 13  1  0  0  0  0
 11 15  1  0  0  0  0
 12  8  1  6  0  0  0
 12 14  1  0  0  0  0
 12 16  1  0  0  0  0
 13 21  1  0  0  0  0
 14 22  1  0  0  0  0
 15 17  1  6  0  0  0
 15 19  1  0  0  0  0
 16 18  1  1  0  0  0
 16 20  1  0  0  0  0
 19 21  1  0  0  0  0
 20 22  1  0  0  0  0
 21 32  1  1  0  0  0
 22 42  1  6  0  0  0
 23 24  2  0  0  0  0
 23 28  1  0  0  0  0
 24 25  1  0  0  0  0
 25 26  2  0  0  0  0
 26 27  1  0  0  0  0
 26 32  1  0  0  0  0
 27 28  2  0  0  0  0
 27 30  1  0  0  0  0
 28 29  1  0  0  0  0
 30 31  2  0  0  0  0
 31 32  1  0  0  0  0
 33 34  2  0  0  0  0
 33 38  1  0  0  0  0
 34 35  1  0  0  0  0
 35 36  2  0  0  0  0
 36 37  1  0  0  0  0
 36 42  1  0  0  0  0
 37 38  2  0  0  0  0
 37 40  1  0  0  0  0
 38 39  1  0  0  0  0
 40 41  2  0  0  0  0
 41 42  1  0  0  0  0
M  CHG  2   3  -1   4  -1
M  END
>  <CHROM.1>
-177.27381263,104.87357993,8.17179130,-34.98098662,-14.76650383,-3.06230117
-0.60993397,2.55929357

>  <Name>
ligand

>  <RI>
0

>  <Rbt.Current_Directory>
/home/itssahil/PROJECTS/Mol_Feturizer/New_Systems/rnas/4QLN

>  <Rbt.Executable>
rbdock ($Id: //depot/dev/client3/rdock/2013.1/src/exe/rbdock.cxx#4 $)

>  <Rbt.Library>
libRbt.so (2013.1, Build901 2013/11/27)

>  <Rbt.Parameter_File>
/export/apps/rDock/src/rDock_2013.1_src/data/scripts/dock_solv.prm

>  <Rbt.Receptor>
prm/pocket_docking_8.prm

>  <SCORE>
-14.7322

>  <SCORE.INTER>
-16.6699

>  <SCORE.INTER.CONST>
1

>  <SCORE.INTER.POLAR>
0

>  <SCORE.INTER.ROT>
2

>  <SCORE.INTER.SOLV>
12.0592

>  <SCORE.INTER.VDW>
-20.0663

>  <SCORE.INTER.norm>
-0.396903

>  <SCORE.INTRA>
1.93775

>  <SCORE.INTRA.DIHEDRAL>
0.000722518

>  <SCORE.INTRA.DIHEDRAL.0>
2.39985

>  <SCORE.INTRA.POLAR>
0

>  <SCORE.INTRA.POLAR.0>
0

>  <SCORE.INTRA.REPUL>
0

>  <SCORE.INTRA.REPUL.0>
0

>  <SCORE.INTRA.SOLV>
0.282401

>  <SCORE.INTRA.SOLV.lig_0>
-110.958

>  <SCORE.INTRA.VDW>
1.79619

>  <SCORE.INTRA.VDW.0>
-2.34644

>  <SCORE.INTRA.norm>
0.0461369

>  <SCORE.RESTR>
0

>  <SCORE.RESTR.CAVITY>
0

>  <SCORE.RESTR.norm>
0

>  <SCORE.SYSTEM>
0

>  <SCORE.SYSTEM.CONST>
0

>  <SCORE.SYSTEM.DIHEDRAL>
0

>  <SCORE.SYSTEM.SOLV>
0

>  <SCORE.SYSTEM.norm>
0

>  <SCORE.heavy>
42

>  <SCORE.norm>
-0.350766

>  <RMSD>
7.895

$$$$
ligand
 OpenBabel11021811513D
libRbt.so/2013.1/901 2013/11/27
 42 48  0  0  0  0  0  0  0  0999 V2000
    9.8602  -33.5094  -12.7367 P   0  0  2  0  0  0  0  0  0  0  0  0
    7.3704  -34.0428  -17.0991 P   0  0  1  0  0  0  0  0  0  0  0  0
   11.2133  -32.8370  -12.7499 O   0  5  0  0  0  0  0  0  0  0  0  0
    6.5982  -34.9752  -16.1964 O   0  5  0  0  0  0  0  0  0  0  0  0
    9.4259  -34.3035  -11.5281 O   0  0  0  0  0  0  0  0  0  0  0  0
    6.8096  -33.6637  -18.4486 O   0  0  0  0  0  0  0  0  0  0  0  0
   10.9187  -35.1229  -14.5348 C   0  0  0  0  0  0  0  0  0  0  0  0
    6.6091  -31.8920  -15.7770 C   0  0  0  0  0  0  0  0  0  0  0  0
    9.7593  -34.4630  -14.0295 O   0  0  0  0  0  0  0  0  0  0  0  0
    7.6774  -32.6896  -16.2822 O   0  0  0  0  0  0  0  0  0  0  0  0
   10.7830  -35.3049  -16.0418 C   0  0  1  0  0  0  0  0  0  0  0  0
    6.8588  -31.5760  -14.3077 C   0  0  1  0  0  0  0  0  0  0  0  0
   11.6221  -36.3790  -16.4751 O   0  0  0  0  0  0  0  0  0  0  0  0
    5.6199  -31.2715  -13.6625 O   0  0  0  0  0  0  0  0  0  0  0  0
    9.3539  -35.6457  -16.4289 C   0  0  1  0  0  0  0  0  0  0  0  0
    7.4794  -32.7614  -13.5859 C   0  0  1  0  0  0  0  0  0  0  0  0
    8.8411  -34.6608  -17.3210 O   0  0  0  0  0  0  0  0  0  0  0  0
    8.7404  -32.3924  -13.0354 O   0  0  0  0  0  0  0  0  0  0  0  0
    9.4065  -36.9958  -17.1197 C   0  0  0  0  0  0  0  0  0  0  0  0
    6.5180  -33.1397  -12.4757 C   0  0  0  0  0  0  0  0  0  0  0  0
   10.8698  -37.4122  -17.1169 C   0  0  2  0  0  0  0  0  0  0  0  0
    5.3558  -32.1619  -12.5755 C   0  0  2  0  0  0  0  0  0  0  0  0
   13.9158  -41.5872  -16.1840 N   0  0  0  0  0  0  0  0  0  0  0  0
   14.1115  -40.5354  -17.0005 C   0  0  0  0  0  0  0  0  0  0  0  0
   13.2336  -39.5252  -17.1418 N   0  0  0  0  0  0  0  0  0  0  0  0
   12.0706  -39.5126  -16.4475 C   0  0  0  0  0  0  0  0  0  0  0  0
   11.7836  -40.6286  -15.5326 C   0  0  0  0  0  0  0  0  0  0  0  0
   12.7987  -41.7040  -15.4317 C   0  0  0  0  0  0  0  0  0  0  0  0
   12.6136  -42.7673  -14.6127 N   0  0  0  0  0  0  0  0  0  0  0  0
   10.5839  -40.3719  -14.9783 N   0  0  0  0  0  0  0  0  0  0  0  0
   10.1407  -39.1960  -15.4921 C   0  0  0  0  0  0  0  0  0  0  0  0
   11.0268  -38.6835  -16.3676 N   0  0  0  0  0  0  0  0  0  0  0  0
    1.5864  -35.2059  -10.5512 N   0  0  0  0  0  0  0  0  0  0  0  0
    2.6739  -34.6682   -9.9682 C   0  0  0  0  0  0  0  0  0  0  0  0
    3.5661  -33.8983  -10.6169 N   0  0  0  0  0  0  0  0  0  0  0  0
    3.4114  -33.6148  -11.9328 C   0  0  0  0  0  0  0  0  0  0  0  0
    2.2460  -34.1663  -12.6412 C   0  0  0  0  0  0  0  0  0  0  0  0
    1.3085  -35.0048  -11.8574 C   0  0  0  0  0  0  0  0  0  0  0  0
    0.2094  -35.5513  -12.4329 N   0  0  0  0  0  0  0  0  0  0  0  0
    2.3324  -33.7373  -13.9145 N   0  0  0  0  0  0  0  0  0  0  0  0
    3.4544  -32.9786  -14.0128 C   0  0  0  0  0  0  0  0  0  0  0  0
    4.0971  -32.9058  -12.8327 N   0  0  0  0  0  0  0  0  0  0  0  0
  1  3  1  1  0  0  0
  1  5  2  0  0  0  0
  1  9  1  0  0  0  0
  1 18  1  0  0  0  0
  2  4  1  1  0  0  0
  2  6  2  0  0  0  0
  2 10  1  0  0  0  0
  2 17  1  0  0  0  0
  7  9  1  0  0  0  0
  8 10  1  0  0  0  0
 11  7  1  1  0  0  0
 11 13  1  0  0  0  0
 11 15  1  0  0  0  0
 12  8  1  6  0  0  0
 12 14  1  0  0  0  0
 12 16  1  0  0  0  0
 13 21  1  0  0  0  0
 14 22  1  0  0  0  0
 15 17  1  6  0  0  0
 15 19  1  0  0  0  0
 16 18  1  1  0  0  0
 16 20  1  0  0  0  0
 19 21  1  0  0  0  0
 20 22  1  0  0  0  0
 21 32  1  1  0  0  0
 22 42  1  6  0  0  0
 23 24  2  0  0  0  0
 23 28  1  0  0  0  0
 24 25  1  0  0  0  0
 25 26  2  0  0  0  0
 26 27  1  0  0  0  0
 26 32  1  0  0  0  0
 27 28  2  0  0  0  0
 27 30  1  0  0  0  0
 28 29  1  0  0  0  0
 30 31  2  0  0  0  0
 31 32  1  0  0  0  0
 33 34  2  0  0  0  0
 33 38  1  0  0  0  0
 34 35  1  0  0  0  0
 35 36  2  0  0  0  0
 36 37  1  0  0  0  0
 36 42  1  0  0  0  0
 37 38  2  0  0  0  0
 37 40  1  0  0  0  0
 38 39  1  0  0  0  0
 40 41  2  0  0  0  0
 41 42  1  0  0  0  0
M  CHG  2   3  -1   4  -1
M  END
>  <CHROM.1>
-80.01103978,-165.96407403,8.04340624,-35.36227290,-14.55948227,-2.62309875
-0.47620836,2.98206506

>  <Name>
ligand

>  <RI>
0

>  <Rbt.Current_Directory>
/home/itssahil/PROJECTS/Mol_Feturizer/New_Systems/rnas/4QLN

>  <Rbt.Executable>
rbdock ($Id: //depot/dev/client3/rdock/2013.1/src/exe/rbdock.cxx#4 $)

>  <Rbt.Library>
libRbt.so (2013.1, Build901 2013/11/27)

>  <Rbt.Parameter_File>
/export/apps/rDock/src/rDock_2013.1_src/data/scripts/dock_solv.prm

>  <Rbt.Receptor>
prm/pocket_docking_8.prm

>  <SCORE>
-17.8368

>  <SCORE.INTER>
-19.3485

>  <SCORE.INTER.CONST>
1

>  <SCORE.INTER.POLAR>
0

>  <SCORE.INTER.ROT>
2

>  <SCORE.INTER.SOLV>
20.192

>  <SCORE.INTER.VDW>
-24.563

>  <SCORE.INTER.norm>
-0.46068

>  <SCORE.INTRA>
1.51177

>  <SCORE.INTRA.DIHEDRAL>
0.000426964

>  <SCORE.INTRA.DIHEDRAL.0>
2.39985

>  <SCORE.INTRA.POLAR>
0

>  <SCORE.INTRA.POLAR.0>
0

>  <SCORE.INTRA.REPUL>
0

>  <SCORE.INTRA.REPUL.0>
0

>  <SCORE.INTRA.SOLV>
-0.12872

>  <SCORE.INTRA.SOLV.lig_0>
-110.958

>  <SCORE.INTRA.VDW>
1.57592

>  <SCORE.INTRA.VDW.0>
-2.34644

>  <SCORE.INTRA.norm>
0.0359945

>  <SCORE.RESTR>
0

>  <SCORE.RESTR.CAVITY>
0

>  <SCORE.RESTR.norm>
0

>  <SCORE.SYSTEM>
0

>  <SCORE.SYSTEM.CONST>
0

>  <SCORE.SYSTEM.DIHEDRAL>
0

>  <SCORE.SYSTEM.SOLV>
0

>  <SCORE.SYSTEM.norm>
0

>  <SCORE.heavy>
42

>  <SCORE.norm>
-0.424685

>  <RMSD>
8.172

$$$$
ligand
 OpenBabel11021811513D
libRbt.so/2013.1/901 2013/11/27
 42 48  0  0  0  0  0  0  0  0999 V2000
   -3.1210  -37.8461  -12.6219 P   0  0  2  0  0  0  0  0  0  0  0  0
   -3.0494  -32.8200  -13.1195 P   0  0  1  0  0  0  0  0  0  0  0  0
   -2.1909  -38.4904  -11.6205 O   0  5  0  0  0  0  0  0  0  0  0  0
   -3.8199  -33.2329  -14.3509 O   0  5  0  0  0  0  0  0  0  0  0  0
   -3.7910  -38.6908  -13.6791 O   0  0  0  0  0  0  0  0  0  0  0  0
   -3.0193  -31.3700  -12.7000 O   0  0  0  0  0  0  0  0  0  0  0  0
   -0.9219  -36.7667  -13.5996 C   0  0  0  0  0  0  0  0  0  0  0  0
   -4.9482  -33.6291  -11.4784 C   0  0  0  0  0  0  0  0  0  0  0  0
   -2.3235  -36.6570  -13.3573 O   0  0  0  0  0  0  0  0  0  0  0  0
   -3.5806  -33.6940  -11.8759 O   0  0  0  0  0  0  0  0  0  0  0  0
   -0.2926  -35.3788  -13.5769 C   0  0  1  0  0  0  0  0  0  0  0  0
   -5.5062  -35.0397  -11.3374 C   0  0  1  0  0  0  0  0  0  0  0  0
    0.9356  -35.3944  -14.3095 O   0  0  0  0  0  0  0  0  0  0  0  0
   -6.9288  -35.0118  -11.4760 O   0  0  0  0  0  0  0  0  0  0  0  0
   -1.2057  -34.3495  -14.2213 C   0  0  1  0  0  0  0  0  0  0  0  0
   -4.9528  -35.9621  -12.4118 C   0  0  1  0  0  0  0  0  0  0  0  0
   -1.5299  -33.3282  -13.2828 O   0  0  0  0  0  0  0  0  0  0  0  0
   -4.2634  -37.0540  -11.8104 O   0  0  0  0  0  0  0  0  0  0  0  0
   -0.4326  -33.7590  -15.3859 C   0  0  0  0  0  0  0  0  0  0  0  0
   -6.1459  -36.4701  -13.1980 C   0  0  0  0  0  0  0  0  0  0  0  0
    0.9166  -34.4622  -15.3939 C   0  0  2  0  0  0  0  0  0  0  0  0
   -7.3716  -35.8311  -12.5608 C   0  0  2  0  0  0  0  0  0  0  0  0
   -0.4109  -34.7569  -20.4663 N   0  0  0  0  0  0  0  0  0  0  0  0
   -0.8066  -33.8915  -19.5147 C   0  0  0  0  0  0  0  0  0  0  0  0
   -0.3792  -33.9359  -18.2393 N   0  0  0  0  0  0  0  0  0  0  0  0
    0.5001  -34.8830  -17.8334 C   0  0  0  0  0  0  0  0  0  0  0  0
    0.9807  -35.8665  -18.8165 C   0  0  0  0  0  0  0  0  0  0  0  0
    0.4637  -35.7530  -20.2010 C   0  0  0  0  0  0  0  0  0  0  0  0
    0.8553  -36.6176  -21.1679 N   0  0  0  0  0  0  0  0  0  0  0  0
    1.8302  -36.6801  -18.1618 N   0  0  0  0  0  0  0  0  0  0  0  0
    1.8891  -36.2563  -16.8734 C   0  0  0  0  0  0  0  0  0  0  0  0
    1.0965  -35.1850  -16.6775 N   0  0  0  0  0  0  0  0  0  0  0  0
   -6.8908  -32.5072  -16.5973 N   0  0  0  0  0  0  0  0  0  0  0  0
   -5.9456  -33.1246  -15.8645 C   0  0  0  0  0  0  0  0  0  0  0  0
   -6.2169  -33.9609  -14.8463 N   0  0  0  0  0  0  0  0  0  0  0  0
   -7.4965  -34.2341  -14.4945 C   0  0  0  0  0  0  0  0  0  0  0  0
   -8.5871  -33.5973  -15.2490 C   0  0  0  0  0  0  0  0  0  0  0  0
   -8.2071  -32.6889  -16.3566 C   0  0  0  0  0  0  0  0  0  0  0  0
   -9.1498  -32.0618  -17.1024 N   0  0  0  0  0  0  0  0  0  0  0  0
   -9.7377  -34.0338  -14.7026 N   0  0  0  0  0  0  0  0  0  0  0  0
   -9.4125  -34.8753  -13.6877 C   0  0  0  0  0  0  0  0  0  0  0  0
   -8.0778  -34.9945  -13.5636 N   0  0  0  0  0  0  0  0  0  0  0  0
  1  3  1  1  0  0  0
  1  5  2  0  0  0  0
  1  9  1  0  0  0  0
  1 18  1  0  0  0  0
  2  4  1  6  0  0  0
  2  6  2  0  0  0  0
  2 10  1  0  0  0  0
  2 17  1  0  0  0  0
  7  9  1  0  0  0  0
  8 10  1  0  0  0  0
 11  7  1  6  0  0  0
 11 13  1  0  0  0  0
 11 15  1  0  0  0  0
 12  8  1  6  0  0  0
 12 14  1  0  0  0  0
 12 16  1  0  0  0  0
 13 21  1  0  0  0  0
 14 22  1  0  0  0  0
 15 17  1  1  0  0  0
 15 19  1  0  0  0  0
 16 18  1  1  0  0  0
 16 20  1  0  0  0  0
 19 21  1  0  0  0  0
 20 22  1  0  0  0  0
 21 32  1  6  0  0  0
 22 42  1  6  0  0  0
 23 24  2  0  0  0  0
 23 28  1  0  0  0  0
 24 25  1  0  0  0  0
 25 26  2  0  0  0  0
 26 27  1  0  0  0  0
 26 32  1  0  0  0  0
 27 28  2  0  0  0  0
 27 30  1  0  0  0  0
 28 29  1  0  0  0  0
 30 31  2  0  0  0  0
 31 32  1  0  0  0  0
 33 34  2  0  0  0  0
 33 38  1  0  0  0  0
 34 35  1  0  0  0  0
 35 36  2  0  0  0  0
 36 37  1  0  0  0  0
 36 42  1  0  0  0  0
 37 38  2  0  0  0  0
 37 40  1  0  0  0  0
 38 39  1  0  0  0  0
 40 41  2  0  0  0  0
 41 42  1  0  0  0  0
M  CHG  2   3  -1   4  -1
M  END
>  <CHROM.1>
143.33861888,80.26312182,-3.33072571,-34.93141476,-14.71821670,-2.74267562
0.31271704,-1.19295358

>  <Name>
ligand

>  <RI>
0

>  <Rbt.Current_Directory>
/home/itssahil/PROJECTS/Mol_Feturizer/New_Systems/rnas/4QLN

>  <Rbt.Executable>
rbdock ($Id: //depot/dev/client3/rdock/2013.1/src/exe/rbdock.cxx#4 $)

>  <Rbt.Library>
libRbt.so (2013.1, Build901 2013/11/27)

>  <Rbt.Parameter_File>
/export/apps/rDock/src/rDock_2013.1_src/data/scripts/dock_solv.prm

>  <Rbt.Receptor>
prm/blind_docking_80.prm

>  <SCORE>
43.2059

>  <SCORE.INTER>
17.8791

>  <SCORE.INTER.CONST>
1

>  <SCORE.INTER.POLAR>
0

>  <SCORE.INTER.ROT>
2

>  <SCORE.INTER.SOLV>
45.5532

>  <SCORE.INTER.VDW>
-8.19833

>  <SCORE.INTER.norm>
0.425693

>  <SCORE.INTRA>
2.81088

>  <SCORE.INTRA.DIHEDRAL>
0.000560142

>  <SCORE.INTRA.DIHEDRAL.0>
2.39985

>  <SCORE.INTRA.POLAR>
0

>  <SCORE.INTRA.POLAR.0>
0

>  <SCORE.INTRA.REPUL>
0

>  <SCORE.INTRA.REPUL.0>
0

>  <SCORE.INTRA.SOLV>
0.971183

>  <SCORE.INTRA.SOLV.lig_0>
-110.958

>  <SCORE.INTRA.VDW>
2.32501

>  <SCORE.INTRA.VDW.0>
-2.34644

>  <SCORE.INTRA.norm>
0.0669258

>  <SCORE.RESTR>
22.5159

>  <SCORE.RESTR.CAVITY>
22.5159

>  <SCORE.RESTR.norm>
0.536093

>  <SCORE.SYSTEM>
0

>  <SCORE.SYSTEM.CONST>
0

>  <SCORE.SYSTEM.DIHEDRAL>
0

>  <SCORE.SYSTEM.SOLV>
0

>  <SCORE.SYSTEM.norm>
0

>  <SCORE.heavy>
42

>  <SCORE.norm>
1.02871

>  <RMSD>
10.761

$$$$
ligand
 OpenBabel11021811513D
libRbt.so/2013.1/901 2013/11/27
 42 48  0  0  0  0  0  0  0  0999 V2000
   -2.6305  -31.8987  -12.9056 P   0  0  2  0  0  0  0  0  0  0  0  0
   -4.0403  -36.7125  -13.5006 P   0  0  1  0  0  0  0  0  0  0  0  0
   -3.1385  -31.1361  -11.7042 O   0  5  0  0  0  0  0  0  0  0  0  0
   -3.4723  -36.3952  -14.8633 O   0  5  0  0  0  0  0  0  0  0  0  0
   -2.0143  -31.1533  -14.0652 O   0  0  0  0  0  0  0  0  0  0  0  0
   -4.3361  -38.1437  -13.1216 O   0  0  0  0  0  0  0  0  0  0  0  0
   -5.1836  -32.3521  -13.3884 C   0  0  0  0  0  0  0  0  0  0  0  0
   -1.6964  -36.5033  -12.3106 C   0  0  0  0  0  0  0  0  0  0  0  0
   -3.8337  -32.8058  -13.4716 O   0  0  0  0  0  0  0  0  0  0  0  0
   -3.0583  -36.0887  -12.3874 O   0  0  0  0  0  0  0  0  0  0  0  0
   -6.1152  -33.5513  -13.2592 C   0  0  1  0  0  0  0  0  0  0  0  0
   -0.7918  -35.2784  -12.2638 C   0  0  1  0  0  0  0  0  0  0  0  0
   -7.4287  -33.1905  -13.6950 O   0  0  0  0  0  0  0  0  0  0  0  0
    0.5171  -35.6275  -12.7207 O   0  0  0  0  0  0  0  0  0  0  0  0
   -5.6421  -34.7114  -14.1188 C   0  0  1  0  0  0  0  0  0  0  0  0
   -1.3170  -34.1698  -13.1620 C   0  0  1  0  0  0  0  0  0  0  0  0
   -5.3869  -35.8513  -13.3037 O   0  0  0  0  0  0  0  0  0  0  0  0
   -1.5723  -32.9980  -12.3932 O   0  0  0  0  0  0  0  0  0  0  0  0
   -6.7663  -35.0101  -15.0932 C   0  0  0  0  0  0  0  0  0  0  0  0
   -0.2312  -33.8946  -14.1842 C   0  0  0  0  0  0  0  0  0  0  0  0
   -7.8709  -34.0122  -14.7787 C   0  0  2  0  0  0  0  0  0  0  0  0
    0.9063  -34.8513  -13.8565 C   0  0  2  0  0  0  0  0  0  0  0  0
  -11.4837  -31.4550  -17.6048 N   0  0  0  0  0  0  0  0  0  0  0  0
  -11.6167  -32.1814  -16.4797 C   0  0  0  0  0  0  0  0  0  0  0  0
  -10.5902  -32.7887  -15.8563 N   0  0  0  0  0  0  0  0  0  0  0  0
   -9.3293  -32.6976  -16.3428 C   0  0  0  0  0  0  0  0  0  0  0  0
   -9.1020  -31.9196  -17.5708 C   0  0  0  0  0  0  0  0  0  0  0  0
  -10.2824  -31.2808  -18.1998 C   0  0  0  0  0  0  0  0  0  0  0  0
  -10.1612  -30.5466  -19.3320 N   0  0  0  0  0  0  0  0  0  0  0  0
   -7.7832  -31.9903  -17.8315 N   0  0  0  0  0  0  0  0  0  0  0  0
   -7.2151  -32.7465  -16.8575 C   0  0  0  0  0  0  0  0  0  0  0  0
   -8.1365  -33.1679  -15.9699 N   0  0  0  0  0  0  0  0  0  0  0  0
    1.4866  -35.2086  -19.0630 N   0  0  0  0  0  0  0  0  0  0  0  0
    1.2510  -34.1337  -18.2881 C   0  0  0  0  0  0  0  0  0  0  0  0
    1.1235  -34.1903  -16.9501 N   0  0  0  0  0  0  0  0  0  0  0  0
    1.2293  -35.3700  -16.2920 C   0  0  0  0  0  0  0  0  0  0  0  0
    1.4869  -36.5915  -17.0702 C   0  0  0  0  0  0  0  0  0  0  0  0
    1.6151  -36.4468  -18.5396 C   0  0  0  0  0  0  0  0  0  0  0  0
    1.8532  -37.5217  -19.3308 N   0  0  0  0  0  0  0  0  0  0  0  0
    1.5462  -37.6048  -16.1856 N   0  0  0  0  0  0  0  0  0  0  0  0
    1.3439  -37.0786  -14.9503 C   0  0  0  0  0  0  0  0  0  0  0  0
    1.1549  -35.7477  -15.0135 N   0  0  0  0  0  0  0  0  0  0  0  0
  1  3  1  1  0  0  0
  1  5  2  0  0  0  0
  1  9  1  0  0  0  0
  1 18  1  0  0  0  0
  2  4  1  6  0  0  0
  2  6  2  0  0  0  0
  2 10  1  0  0  0  0
  2 17  1  0  0  0  0
  7  9  1  0  0  0  0
  8 10  1  0  0  0  0
 11  7  1  6  0  0  0
 11 13  1  0  0  0  0
 11 15  1  0  0  0  0
 12  8  1  6  0  0  0
 12 14  1  0  0  0  0
 12 16  1  0  0  0  0
 13 21  1  0  0  0  0
 14 22  1  0  0  0  0
 15 17  1  1  0  0  0
 15 19  1  0  0  0  0
 16 18  1  1  0  0  0
 16 20  1  0  0  0  0
 19 21  1  0  0  0  0
 20 22  1  0  0  0  0
 21 32  1  6  0  0  0
 22 42  1  6  0  0  0
 23 24  2  0  0  0  0
 23 28  1  0  0  0  0
 24 25  1  0  0  0  0
 25 26  2  0  0  0  0
 26 27  1  0  0  0  0
 26 32  1  0  0  0  0
 27 28  2  0  0  0  0
 27 30  1  0  0  0  0
 28 29  1  0  0  0  0
 30 31  2  0  0  0  0
 31 32  1  0  0  0  0
 33 34  2  0  0  0  0
 33 38  1  0  0  0  0
 34 35  1  0  0  0  0
 35 36  2  0  0  0  0
 36 37  1  0  0  0  0
 36 42  1  0  0  0  0
 37 38  2  0  0  0  0
 37 40  1  0  0  0  0
 38 39  1  0  0  0  0
 40 41  2  0  0  0  0
 41 42  1  0  0  0  0
M  CHG  2   3  -1   4  -1
M  END
>  <CHROM.1>
-96.66509357,163.52649155,-3.68960151,-34.22688769,-14.97692752,0.09641478
-0.32938405,1.59149468

>  <Name>
ligand

>  <RI>
0

>  <Rbt.Current_Directory>
/home/itssahil/PROJECTS/Mol_Feturizer/New_Systems/rnas/4QLN

>  <Rbt.Executable>
rbdock ($Id: //depot/dev/client3/rdock/2013.1/src/exe/rbdock.cxx#4 $)

>  <Rbt.Library>
libRbt.so (2013.1, Build901 2013/11/27)

>  <Rbt.Parameter_File>
/export/apps/rDock/src/rDock_2013.1_src/data/scripts/dock_solv.prm

>  <Rbt.Receptor>
prm/blind_docking_80.prm

>  <SCORE>
78.6564

>  <SCORE.INTER>
52.1337

>  <SCORE.INTER.CONST>
1

>  <SCORE.INTER.POLAR>
0

>  <SCORE.INTER.ROT>
2

>  <SCORE.INTER.SOLV>
51.8957

>  <SCORE.INTER.VDW>
12.5239

>  <SCORE.INTER.norm>
1.24128

>  <SCORE.INTRA>
1.63783

>  <SCORE.INTRA.DIHEDRAL>
-0.000668237

>  <SCORE.INTRA.DIHEDRAL.0>
2.39985

>  <SCORE.INTRA.POLAR>
0

>  <SCORE.INTRA.POLAR.0>
0

>  <SCORE.INTRA.REPUL>
0

>  <SCORE.INTRA.REPUL.0>
0

>  <SCORE.INTRA.SOLV>
-0.146559

>  <SCORE.INTRA.SOLV.lig_0>
-110.958

>  <SCORE.INTRA.VDW>
1.71145

>  <SCORE.INTRA.VDW.0>
-2.34644

>  <SCORE.INTRA.norm>
0.038996

>  <SCORE.RESTR>
24.8849

>  <SCORE.RESTR.CAVITY>
24.8849

>  <SCORE.RESTR.norm>
0.592497

>  <SCORE.SYSTEM>
0

>  <SCORE.SYSTEM.CONST>
0

>  <SCORE.SYSTEM.DIHEDRAL>
0

>  <SCORE.SYSTEM.SOLV>
0

>  <SCORE.SYSTEM.norm>
0

>  <SCORE.heavy>
42

>  <SCORE.norm>
1.87277

>  <RMSD>
11.026

$$$$
ligand
 OpenBabel11021811513D
libRbt.so/2013.1/901 2013/11/27
 42 48  0  0  0  0  0  0  0  0999 V2000
   -2.2838  -33.4586  -14.1035 P   0  0  2  0  0  0  0  0  0  0  0  0
   -5.6535  -33.5571  -17.8651 P   0  0  1  0  0  0  0  0  0  0  0  0
   -1.4162  -32.2328  -13.9373 O   0  5  0  0  0  0  0  0  0  0  0  0
   -5.6214  -35.0094  -17.4524 O   0  5  0  0  0  0  0  0  0  0  0  0
   -1.9181  -34.7414  -13.3960 O   0  0  0  0  0  0  0  0  0  0  0  0
   -6.7408  -33.0590  -18.7867 O   0  0  0  0  0  0  0  0  0  0  0  0
   -1.3363  -33.4926  -16.5649 C   0  0  0  0  0  0  0  0  0  0  0  0
   -6.7298  -32.7792  -15.5870 C   0  0  0  0  0  0  0  0  0  0  0  0
   -2.4175  -33.7710  -15.6769 O   0  0  0  0  0  0  0  0  0  0  0  0
   -5.6696  -32.6543  -16.5320 O   0  0  0  0  0  0  0  0  0  0  0  0
   -1.8874  -33.1489  -17.9436 C   0  0  1  0  0  0  0  0  0  0  0  0
   -6.1497  -32.9464  -14.1882 C   0  0  1  0  0  0  0  0  0  0  0  0
   -0.8841  -33.3828  -18.9357 O   0  0  0  0  0  0  0  0  0  0  0  0
   -7.1056  -33.5918  -13.3435 O   0  0  0  0  0  0  0  0  0  0  0  0
   -3.0905  -34.0111  -18.2865 C   0  0  1  0  0  0  0  0  0  0  0  0
   -4.8948  -33.8046  -14.2100 C   0  0  1  0  0  0  0  0  0  0  0  0
   -4.2297  -33.1891  -18.5218 O   0  0  0  0  0  0  0  0  0  0  0  0
   -3.7904  -33.0680  -13.6933 O   0  0  0  0  0  0  0  0  0  0  0  0
   -2.7283  -34.7713  -19.5488 C   0  0  0  0  0  0  0  0  0  0  0  0
   -5.1792  -35.0038  -13.3264 C   0  0  0  0  0  0  0  0  0  0  0  0
   -1.3169  -34.3342  -19.9118 C   0  0  2  0  0  0  0  0  0  0  0  0
   -6.5975  -34.8158  -12.8070 C   0  0  2  0  0  0  0  0  0  0  0  0
    2.3624  -36.9895  -17.2678 N   0  0  0  0  0  0  0  0  0  0  0  0
    1.7032  -35.8623  -16.9420 C   0  0  0  0  0  0  0  0  0  0  0  0
    0.7741  -35.2862  -17.7268 N   0  0  0  0  0  0  0  0  0  0  0  0
    0.4420  -35.8277  -18.9233 C   0  0  0  0  0  0  0  0  0  0  0  0
    1.1192  -37.0620  -19.3507 C   0  0  0  0  0  0  0  0  0  0  0  0
    2.1311  -37.6360  -18.4322 C   0  0  0  0  0  0  0  0  0  0  0  0
    2.8006  -38.7706  -18.7486 N   0  0  0  0  0  0  0  0  0  0  0  0
    0.6114  -37.3808  -20.5561 N   0  0  0  0  0  0  0  0  0  0  0  0
   -0.3093  -36.4350  -20.8736 C   0  0  0  0  0  0  0  0  0  0  0  0
   -0.4106  -35.5093  -19.9003 N   0  0  0  0  0  0  0  0  0  0  0  0
  -10.7140  -36.3161  -15.7011 N   0  0  0  0  0  0  0  0  0  0  0  0
  -10.1821  -35.0935  -15.5174 C   0  0  0  0  0  0  0  0  0  0  0  0
   -9.1125  -34.8531  -14.7378 N   0  0  0  0  0  0  0  0  0  0  0  0
   -8.4953  -35.8615  -14.0759 C   0  0  0  0  0  0  0  0  0  0  0  0
   -9.0181  -37.2283  -14.2262 C   0  0  0  0  0  0  0  0  0  0  0  0
  -10.1990  -37.4116  -15.1026 C   0  0  0  0  0  0  0  0  0  0  0  0
  -10.7435  -38.6381  -15.2962 N   0  0  0  0  0  0  0  0  0  0  0  0
   -8.2332  -38.0241  -13.4756 N   0  0  0  0  0  0  0  0  0  0  0  0
   -7.2915  -37.2364  -12.8955 C   0  0  0  0  0  0  0  0  0  0  0  0
   -7.4476  -35.9484  -13.2528 N   0  0  0  0  0  0  0  0  0  0  0  0
  1  3  1  1  0  0  0
  1  5  2  0  0  0  0
  1  9  1  0  0  0  0
  1 18  1  0  0  0  0
  2  4  1  1  0  0  0
  2  6  2  0  0  0  0
  2 10  1  0  0  0  0
  2 17  1  0  0  0  0
  7  9  1  0  0  0  0
  8 10  1  0  0  0  0
 11  7  1  1  0  0  0
 11 13  1  0  0  0  0
 11 15  1  0  0  0  0
 12  8  1  6  0  0  0
 12 14  1  0  0  0  0
 12 16  1  0  0  0  0
 13 21  1  0  0  0  0
 14 22  1  0  0  0  0
 15 17  1  6  0  0  0
 15 19  1  0  0  0  0
 16 18  1  1  0  0  0
 16 20  1  0  0  0  0
 19 21  1  0  0  0  0
 20 22  1  0  0  0  0
 21 32  1  1  0  0  0
 22 42  1  6  0  0  0
 23 24  2  0  0  0  0
 23 28  1  0  0  0  0
 24 25  1  0  0  0  0
 25 26  2  0  0  0  0
 26 27  1  0  0  0  0
 26 32  1  0  0  0  0
 27 28  2  0  0  0  0
 27 30  1  0  0  0  0
 28 29  1  0  0  0  0
 30 31  2  0  0  0  0
 31 32  1  0  0  0  0
 33 34  2  0  0  0  0
 33 38  1  0  0  0  0
 34 35  1  0  0  0  0
 35 36  2  0  0  0  0
 36 37  1  0  0  0  0
 36 42  1  0  0  0  0
 37 38  2  0  0  0  0
 37 40  1  0  0  0  0
 38 39  1  0  0  0  0
 40 41  2  0  0  0  0
 41 42  1  0  0  0  0
M  CHG  2   3  -1   4  -1
M  END
>  <CHROM.1>
16.97156021,2.69764405,-3.99405619,-34.92396978,-16.33236483,-0.37780496
0.19776171,1.05810086

>  <Name>
ligand

>  <RI>
0

>  <Rbt.Current_Directory>
/home/itssahil/PROJECTS/Mol_Feturizer/New_Systems/rnas/4QLN

>  <Rbt.Executable>
rbdock ($Id: //depot/dev/client3/rdock/2013.1/src/exe/rbdock.cxx#4 $)

>  <Rbt.Library>
libRbt.so (2013.1, Build901 2013/11/27)

>  <Rbt.Parameter_File>
/export/apps/rDock/src/rDock_2013.1_src/data/scripts/dock_solv.prm

>  <Rbt.Receptor>
prm/blind_docking_80.prm

>  <SCORE>
208.789

>  <SCORE.INTER>
199.62

>  <SCORE.INTER.CONST>
1

>  <SCORE.INTER.POLAR>
0

>  <SCORE.INTER.ROT>
2

>  <SCORE.INTER.SOLV>
60.848

>  <SCORE.INTER.VDW>
107.864

>  <SCORE.INTER.norm>
4.75286

>  <SCORE.INTRA>
0.221639

>  <SCORE.INTRA.DIHEDRAL>
-0.000159081

>  <SCORE.INTRA.DIHEDRAL.0>
2.39985

>  <SCORE.INTRA.POLAR>
0

>  <SCORE.INTRA.POLAR.0>
0

>  <SCORE.INTRA.REPUL>
0

>  <SCORE.INTRA.REPUL.0>
0

>  <SCORE.INTRA.SOLV>
0.0188126

>  <SCORE.INTRA.SOLV.lig_0>
-110.958

>  <SCORE.INTRA.VDW>
0.212313

>  <SCORE.INTRA.VDW.0>
-2.34644

>  <SCORE.INTRA.norm>
0.00527713

>  <SCORE.RESTR>
8.94697

>  <SCORE.RESTR.CAVITY>
8.94697

>  <SCORE.RESTR.norm>
0.213023

>  <SCORE.SYSTEM>
0

>  <SCORE.SYSTEM.CONST>
0

>  <SCORE.SYSTEM.DIHEDRAL>
0

>  <SCORE.SYSTEM.SOLV>
0

>  <SCORE.SYSTEM.norm>
0

>  <SCORE.heavy>
42

>  <SCORE.norm>
4.97116

>  <RMSD>
11.770

$$$$
ligand
 OpenBabel11021811513D
libRbt.so/2013.1/901 2013/11/27
 42 48  0  0  0  0  0  0  0  0999 V2000
   -6.0691  -37.0900  -14.0166 P   0  0  2  0  0  0  0  0  0  0  0  0
   -5.0979  -32.1584  -13.5166 P   0  0  1  0  0  0  0  0  0  0  0  0
   -5.6774  -38.0249  -12.8961 O   0  5  0  0  0  0  0  0  0  0  0  0
   -5.4097  -32.2552  -14.9909 O   0  5  0  0  0  0  0  0  0  0  0  0
   -6.4150  -37.6479  -15.3764 O   0  0  0  0  0  0  0  0  0  0  0  0
   -5.0170  -30.8060  -12.8502 O   0  0  0  0  0  0  0  0  0  0  0  0
   -3.5340  -36.3638  -13.9656 C   0  0  0  0  0  0  0  0  0  0  0  0
   -7.5635  -32.7629  -12.8034 C   0  0  0  0  0  0  0  0  0  0  0  0
   -4.8945  -36.0050  -14.2007 O   0  0  0  0  0  0  0  0  0  0  0  0
   -6.1704  -33.0524  -12.7146 O   0  0  0  0  0  0  0  0  0  0  0  0
   -2.7653  -35.1440  -13.4719 C   0  0  1  0  0  0  0  0  0  0  0  0
   -8.3305  -34.0390  -13.1263 C   0  0  1  0  0  0  0  0  0  0  0  0
   -1.3693  -35.3168  -13.7302 O   0  0  0  0  0  0  0  0  0  0  0  0
   -9.5814  -33.7092  -13.7347 O   0  0  0  0  0  0  0  0  0  0  0  0
   -3.2177  -33.8816  -14.1861 C   0  0  1  0  0  0  0  0  0  0  0  0
   -7.5580  -34.9162  -14.0986 C   0  0  1  0  0  0  0  0  0  0  0  0
   -3.7154  -32.9378  -13.2424 O   0  0  0  0  0  0  0  0  0  0  0  0
   -7.3039  -36.1892  -13.5120 O   0  0  0  0  0  0  0  0  0  0  0  0
   -1.9930  -33.3214  -14.8852 C   0  0  0  0  0  0  0  0  0  0  0  0
   -8.4360  -35.0747  -15.3248 C   0  0  0  0  0  0  0  0  0  0  0  0
   -0.8523  -34.2750  -14.5625 C   0  0  2  0  0  0  0  0  0  0  0  0
   -9.7049  -34.2847  -15.0376 C   0  0  2  0  0  0  0  0  0  0  0  0
   -1.1671  -34.4027  -19.8030 N   0  0  0  0  0  0  0  0  0  0  0  0
   -1.8770  -33.6910  -18.9082 C   0  0  0  0  0  0  0  0  0  0  0  0
   -1.6860  -33.7596  -17.5778 N   0  0  0  0  0  0  0  0  0  0  0  0
   -0.7390  -34.5734  -17.0524 C   0  0  0  0  0  0  0  0  0  0  0  0
    0.0797  -35.3845  -17.9670 C   0  0  0  0  0  0  0  0  0  0  0  0
   -0.1905  -35.2547  -19.4186 C   0  0  0  0  0  0  0  0  0  0  0  0
    0.5179  -35.9652  -20.3292 N   0  0  0  0  0  0  0  0  0  0  0  0
    0.9290  -36.0910  -17.1977 N   0  0  0  0  0  0  0  0  0  0  0  0
    0.6772  -35.7625  -15.9047 C   0  0  0  0  0  0  0  0  0  0  0  0
   -0.3168  -34.8577  -15.8179 N   0  0  0  0  0  0  0  0  0  0  0  0
  -13.0335  -31.0514  -17.4950 N   0  0  0  0  0  0  0  0  0  0  0  0
  -13.2656  -31.9806  -16.5494 C   0  0  0  0  0  0  0  0  0  0  0  0
  -12.3045  -32.7464  -16.0022 N   0  0  0  0  0  0  0  0  0  0  0  0
  -11.0116  -32.6180  -16.3866 C   0  0  0  0  0  0  0  0  0  0  0  0
  -10.6773  -31.6223  -17.4166 C   0  0  0  0  0  0  0  0  0  0  0  0
  -11.7914  -30.8173  -17.9706 C   0  0  0  0  0  0  0  0  0  0  0  0
  -11.5704  -29.8778  -18.9228 N   0  0  0  0  0  0  0  0  0  0  0  0
   -9.3468  -31.7000  -17.6081 N   0  0  0  0  0  0  0  0  0  0  0  0
   -8.8714  -32.6609  -16.7746 C   0  0  0  0  0  0  0  0  0  0  0  0
   -9.8628  -33.2077  -16.0472 N   0  0  0  0  0  0  0  0  0  0  0  0
  1  3  1  1  0  0  0
  1  5  2  0  0  0  0
  1  9  1  0  0  0  0
  1 18  1  0  0  0  0
  2  4  1  6  0  0  0
  2  6  2  0  0  0  0
  2 10  1  0  0  0  0
  2 17  1  0  0  0  0
  7  9  1  0  0  0  0
  8 10  1  0  0  0  0
 11  7  1  6  0  0  0
 11 13  1  0  0  0  0
 11 15  1  0  0  0  0
 12  8  1  6  0  0  0
 12 14  1  0  0  0  0
 12 16  1  0  0  0  0
 13 21  1  0  0  0  0
 14 22  1  0  0  0  0
 15 17  1  1  0  0  0
 15 19  1  0  0  0  0
 16 18  1  1  0  0  0
 16 20  1  0  0  0  0
 19 21  1  0  0  0  0
 20 22  1  0  0  0  0
 21 32  1  6  0  0  0
 22 42  1  6  0  0  0
 23 24  2  0  0  0  0
 23 28  1  0  0  0  0
 24 25  1  0  0  0  0
 25 26  2  0  0  0  0
 26 27  1  0  0  0  0
 26 32  1  0  0  0  0
 27 28  2  0  0  0  0
 27 30  1  0  0  0  0
 28 29  1  0  0  0  0
 30 31  2  0  0  0  0
 31 32  1  0  0  0  0
 33 34  2  0  0  0  0
 33 38  1  0  0  0  0
 34 35  1  0  0  0  0
 35 36  2  0  0  0  0
 36 37  1  0  0  0  0
 36 42  1  0  0  0  0
 37 38  2  0  0  0  0
 37 40  1  0  0  0  0
 38 39  1  0  0  0  0
 40 41  2  0  0  0  0
 41 42  1  0  0  0  0
M  CHG  2   3  -1   4  -1
M  END
>  <CHROM.1>
119.99866983,-84.82501976,-5.61645786,-34.05146567,-15.44328468,0.08091983
-0.26690683,2.00028749

>  <Name>
ligand

>  <RI>
0

>  <Rbt.Current_Directory>
/home/itssahil/PROJECTS/Mol_Feturizer/New_Systems/rnas/4QLN

>  <Rbt.Executable>
rbdock ($Id: //depot/dev/client3/rdock/2013.1/src/exe/rbdock.cxx#4 $)

>  <Rbt.Library>
libRbt.so (2013.1, Build901 2013/11/27)

>  <Rbt.Parameter_File>
/export/apps/rDock/src/rDock_2013.1_src/data/scripts/dock_solv.prm

>  <Rbt.Receptor>
prm/blind_docking_80.prm

>  <SCORE>
153.96

>  <SCORE.INTER>
142.306

>  <SCORE.INTER.CONST>
1

>  <SCORE.INTER.POLAR>
0

>  <SCORE.INTER.ROT>
2

>  <SCORE.INTER.SOLV>
58.4113

>  <SCORE.INTER.VDW>
70.4672

>  <SCORE.INTER.norm>
3.38825

>  <SCORE.INTRA>
3.07876

>  <SCORE.INTRA.DIHEDRAL>
-0.000575667

>  <SCORE.INTRA.DIHEDRAL.0>
2.39985

>  <SCORE.INTRA.POLAR>
0

>  <SCORE.INTRA.POLAR.0>
0

>  <SCORE.INTRA.REPUL>
0

>  <SCORE.INTRA.REPUL.0>
0

>  <SCORE.INTRA.SOLV>
-0.0865344

>  <SCORE.INTRA.SOLV.lig_0>
-110.958

>  <SCORE.INTRA.VDW>
3.12231

>  <SCORE.INTRA.VDW.0>
-2.34644

>  <SCORE.INTRA.norm>
0.0733038

>  <SCORE.RESTR>
8.57482

>  <SCORE.RESTR.CAVITY>
8.57482

>  <SCORE.RESTR.norm>
0.204162

>  <SCORE.SYSTEM>
0

>  <SCORE.SYSTEM.CONST>
0

>  <SCORE.SYSTEM.DIHEDRAL>
0

>  <SCORE.SYSTEM.SOLV>
0

>  <SCORE.SYSTEM.norm>
0

>  <SCORE.heavy>
42

>  <SCORE.norm>
3.66572

>  <RMSD>
12.617

$$$$
ligand
 OpenBabel11021811513D
libRbt.so/2013.1/901 2013/11/27
 42 48  0  0  0  0  0  0  0  0999 V2000
   -6.0659  -37.0932  -14.0151 P   0  0  2  0  0  0  0  0  0  0  0  0
   -5.0890  -32.1627  -13.5151 P   0  0  1  0  0  0  0  0  0  0  0  0
   -5.6702  -38.0293  -12.8971 O   0  5  0  0  0  0  0  0  0  0  0  0
   -5.4072  -32.2580  -14.9883 O   0  5  0  0  0  0  0  0  0  0  0  0
   -6.4180  -37.6497  -15.3739 O   0  0  0  0  0  0  0  0  0  0  0  0
   -5.0043  -30.8109  -12.8481 O   0  0  0  0  0  0  0  0  0  0  0  0
   -3.5301  -36.3688  -13.9743 C   0  0  0  0  0  0  0  0  0  0  0  0
   -7.5521  -32.7660  -12.7921 C   0  0  0  0  0  0  0  0  0  0  0  0
   -4.8913  -36.0088  -14.2033 O   0  0  0  0  0  0  0  0  0  0  0  0
   -6.1588  -33.0566  -12.7094 O   0  0  0  0  0  0  0  0  0  0  0  0
   -2.7584  -35.1499  -13.4828 C   0  0  1  0  0  0  0  0  0  0  0  0
   -8.3213  -34.0413  -13.1127 C   0  0  1  0  0  0  0  0  0  0  0  0
   -1.3636  -35.3235  -13.7472 O   0  0  0  0  0  0  0  0  0  0  0  0
   -9.5746  -33.7101  -13.7156 O   0  0  0  0  0  0  0  0  0  0  0  0
   -3.2130  -33.8866  -14.1941 C   0  0  1  0  0  0  0  0  0  0  0  0
   -7.5535  -34.9183  -14.0890 C   0  0  1  0  0  0  0  0  0  0  0  0
   -3.7060  -32.9433  -13.2475 O   0  0  0  0  0  0  0  0  0  0  0  0
   -7.2979  -36.1919  -13.5045 O   0  0  0  0  0  0  0  0  0  0  0  0
   -1.9908  -33.3267  -14.8979 C   0  0  0  0  0  0  0  0  0  0  0  0
   -8.4369  -35.0751  -15.3117 C   0  0  0  0  0  0  0  0  0  0  0  0
   -0.8494  -34.2814  -14.5808 C   0  0  2  0  0  0  0  0  0  0  0  0
   -9.7040  -34.2844  -15.0185 C   0  0  2  0  0  0  0  0  0  0  0  0
   -1.1919  -34.4105  -19.8196 N   0  0  0  0  0  0  0  0  0  0  0  0
   -1.8981  -33.6998  -18.9211 C   0  0  0  0  0  0  0  0  0  0  0  0
   -1.7000  -33.7678  -17.5917 N   0  0  0  0  0  0  0  0  0  0  0  0
   -0.7490  -34.5800  -17.0713 C   0  0  0  0  0  0  0  0  0  0  0  0
    0.0663  -35.3900  -17.9900 C   0  0  0  0  0  0  0  0  0  0  0  0
   -0.2119  -35.2609  -19.4402 C   0  0  0  0  0  0  0  0  0  0  0  0
    0.4928  -35.9704  -20.3544 N   0  0  0  0  0  0  0  0  0  0  0  0
    0.9207  -36.0950  -17.2251 N   0  0  0  0  0  0  0  0  0  0  0  0
    0.6753  -35.7666  -15.9309 C   0  0  0  0  0  0  0  0  0  0  0  0
   -0.3197  -34.8634  -15.8390 N   0  0  0  0  0  0  0  0  0  0  0  0
  -13.0447  -31.0667  -17.4798 N   0  0  0  0  0  0  0  0  0  0  0  0
  -13.2740  -31.9991  -16.5367 C   0  0  0  0  0  0  0  0  0  0  0  0
  -12.3100  -32.7602  -15.9880 N   0  0  0  0  0  0  0  0  0  0  0  0
  -11.0167  -32.6231  -16.3682 C   0  0  0  0  0  0  0  0  0  0  0  0
  -10.6854  -31.6235  -17.3954 C   0  0  0  0  0  0  0  0  0  0  0  0
  -11.8027  -30.8241  -17.9512 C   0  0  0  0  0  0  0  0  0  0  0  0
  -11.5845  -29.8816  -18.9010 N   0  0  0  0  0  0  0  0  0  0  0  0
   -9.3539  -31.6927  -17.5829 N   0  0  0  0  0  0  0  0  0  0  0  0
   -8.8751  -32.6522  -16.7498 C   0  0  0  0  0  0  0  0  0  0  0  0
   -9.8654  -33.2065  -16.0265 N   0  0  0  0  0  0  0  0  0  0  0  0
  1  3  1  1  0  0  0
  1  5  2  0  0  0  0
  1  9  1  0  0  0  0
  1 18  1  0  0  0  0
  2  4  1  6  0  0  0
  2  6  2  0  0  0  0
  2 10  1  0  0  0  0
  2 17  1  0  0  0  0
  7  9  1  0  0  0  0
  8 10  1  0  0  0  0
 11  7  1  6  0  0  0
 11 13  1  0  0  0  0
 11 15  1  0  0  0  0
 12  8  1  6  0  0  0
 12 14  1  0  0  0  0
 12 16  1  0  0  0  0
 13 21  1  0  0  0  0
 14 22  1  0  0  0  0
 15 17  1  1  0  0  0
 15 19  1  0  0  0  0
 16 18  1  1  0  0  0
 16 20  1  0  0  0  0
 19 21  1  0  0  0  0
 20 22  1  0  0  0  0
 21 32  1  6  0  0  0
 22 42  1  6  0  0  0
 23 24  2  0  0  0  0
 23 28  1  0  0  0  0
 24 25  1  0  0  0  0
 25 26  2  0  0  0  0
 26 27  1  0  0  0  0
 26 32  1  0  0  0  0
 27 28  2  0  0  0  0
 27 30  1  0  0  0  0
 28 29  1  0  0  0  0
 30 31  2  0  0  0  0
 31 32  1  0  0  0  0
 33 34  2  0  0  0  0
 33 38  1  0  0  0  0
 34 35  1  0  0  0  0
 35 36  2  0  0  0  0
 36 37  1  0  0  0  0
 36 42  1  0  0  0  0
 37 38  2  0  0  0  0
 37 40  1  0  0  0  0
 38 39  1  0  0  0  0
 40 41  2  0  0  0  0
 41 42  1  0  0  0  0
M  CHG  2   3  -1   4  -1
M  END
>  <CHROM.1>
119.84096654,-85.39903520,-5.61791596,-34.05589672,-15.44288927,0.07714010
-0.26853215,1.99715347

>  <Name>
ligand

>  <RI>
0

>  <Rbt.Current_Directory>
/home/itssahil/PROJECTS/Mol_Feturizer/New_Systems/rnas/4QLN

>  <Rbt.Executable>
rbdock ($Id: //depot/dev/client3/rdock/2013.1/src/exe/rbdock.cxx#4 $)

>  <Rbt.Library>
libRbt.so (2013.1, Build901 2013/11/27)

>  <Rbt.Parameter_File>
/export/apps/rDock/src/rDock_2013.1_src/data/scripts/dock_solv.prm

>  <Rbt.Receptor>
prm/blind_docking_80.prm

>  <SCORE>
154.117

>  <SCORE.INTER>
142.526

>  <SCORE.INTER.CONST>
1

>  <SCORE.INTER.POLAR>
0

>  <SCORE.INTER.ROT>
2

>  <SCORE.INTER.SOLV>
58.5919

>  <SCORE.INTER.VDW>
70.5534

>  <SCORE.INTER.norm>
3.39348

>  <SCORE.INTRA>
3.06559

>  <SCORE.INTRA.DIHEDRAL>
-0.000579218

>  <SCORE.INTRA.DIHEDRAL.0>
2.39985

>  <SCORE.INTRA.POLAR>
0

>  <SCORE.INTRA.POLAR.0>
0

>  <SCORE.INTRA.REPUL>
0

>  <SCORE.INTRA.REPUL.0>
0

>  <SCORE.INTRA.SOLV>
-0.0852827

>  <SCORE.INTRA.SOLV.lig_0>
-110.958

>  <SCORE.INTRA.VDW>
3.10852

>  <SCORE.INTRA.VDW.0>
-2.34644

>  <SCORE.INTRA.norm>
0.0729903

>  <SCORE.RESTR>
8.52573

>  <SCORE.RESTR.CAVITY>
8.52573

>  <SCORE.RESTR.norm>
0.202993

>  <SCORE.SYSTEM>
0

>  <SCORE.SYSTEM.CONST>
0

>  <SCORE.SYSTEM.DIHEDRAL>
0

>  <SCORE.SYSTEM.SOLV>
0

>  <SCORE.SYSTEM.norm>
0

>  <SCORE.heavy>
42

>  <SCORE.norm>
3.66946

>  <RMSD>
12.622

$$$$
ligand
 OpenBabel11021811513D
libRbt.so/2013.1/901 2013/11/27
 42 48  0  0  0  0  0  0  0  0999 V2000
   -6.2220  -37.0790  -13.9833 P   0  0  2  0  0  0  0  0  0  0  0  0
   -5.2922  -32.1631  -13.2872 P   0  0  1  0  0  0  0  0  0  0  0  0
   -5.8964  -38.0450  -12.8680 O   0  5  0  0  0  0  0  0  0  0  0  0
   -5.5149  -32.2184  -14.7798 O   0  5  0  0  0  0  0  0  0  0  0  0
   -6.4846  -37.5983  -15.3766 O   0  0  0  0  0  0  0  0  0  0  0  0
   -5.2541  -30.8301  -12.5794 O   0  0  0  0  0  0  0  0  0  0  0  0
   -3.6959  -36.3537  -13.7598 C   0  0  0  0  0  0  0  0  0  0  0  0
   -7.7950  -32.7882  -12.7406 C   0  0  0  0  0  0  0  0  0  0  0  0
   -5.0406  -35.9888  -14.0659 O   0  0  0  0  0  0  0  0  0  0  0  0
   -6.4091  -33.0797  -12.5766 O   0  0  0  0  0  0  0  0  0  0  0  0
   -2.9606  -35.1481  -13.1867 C   0  0  1  0  0  0  0  0  0  0  0  0
   -8.5387  -34.0549  -13.1447 C   0  0  1  0  0  0  0  0  0  0  0  0
   -1.5513  -35.3132  -13.3655 O   0  0  0  0  0  0  0  0  0  0  0  0
   -9.7516  -33.7084  -13.8176 O   0  0  0  0  0  0  0  0  0  0  0  0
   -3.3719  -33.8662  -13.8910 C   0  0  1  0  0  0  0  0  0  0  0  0
   -7.7075  -34.9041  -14.0932 C   0  0  1  0  0  0  0  0  0  0  0  0
   -3.9272  -32.9496  -12.9526 O   0  0  0  0  0  0  0  0  0  0  0  0
   -7.4866  -36.1931  -13.5285 O   0  0  0  0  0  0  0  0  0  0  0  0
   -2.1086  -33.2862  -14.4993 C   0  0  0  0  0  0  0  0  0  0  0  0
   -8.5101  -35.0282  -15.3739 C   0  0  0  0  0  0  0  0  0  0  0  0
   -0.9874  -34.2482  -14.1356 C   0  0  2  0  0  0  0  0  0  0  0  0
   -9.7955  -34.2469  -15.1413 C   0  0  2  0  0  0  0  0  0  0  0  0
   -1.2313  -34.5309  -19.3738 N   0  0  0  0  0  0  0  0  0  0  0  0
   -2.0264  -33.8838  -18.5018 C   0  0  0  0  0  0  0  0  0  0  0  0
   -1.8427  -33.8998  -17.1687 N   0  0  0  0  0  0  0  0  0  0  0  0
   -0.8153  -34.5888  -16.6167 C   0  0  0  0  0  0  0  0  0  0  0  0
    0.0995  -35.3227  -17.5053 C   0  0  0  0  0  0  0  0  0  0  0  0
   -0.1686  -35.2577  -18.9616 C   0  0  0  0  0  0  0  0  0  0  0  0
    0.6250  -35.9040  -19.8494 N   0  0  0  0  0  0  0  0  0  0  0  0
    1.0152  -35.9106  -16.7127 N   0  0  0  0  0  0  0  0  0  0  0  0
    0.7144  -35.5831  -15.4299 C   0  0  0  0  0  0  0  0  0  0  0  0
   -0.3764  -34.7950  -15.3725 N   0  0  0  0  0  0  0  0  0  0  0  0
  -12.9766  -30.9435  -17.6987 N   0  0  0  0  0  0  0  0  0  0  0  0
  -13.2631  -31.8987  -16.7948 C   0  0  0  0  0  0  0  0  0  0  0  0
  -12.3352  -32.6803  -16.2137 N   0  0  0  0  0  0  0  0  0  0  0  0
  -11.0220  -32.5421  -16.5176 C   0  0  0  0  0  0  0  0  0  0  0  0
  -10.6286  -31.5181  -17.4978 C   0  0  0  0  0  0  0  0  0  0  0  0
  -11.7089  -30.6970  -18.0936 C   0  0  0  0  0  0  0  0  0  0  0  0
  -11.4331  -29.7314  -19.0044 N   0  0  0  0  0  0  0  0  0  0  0  0
   -9.2891  -31.5914  -17.6127 N   0  0  0  0  0  0  0  0  0  0  0  0
   -8.8627  -32.5756  -16.7800 C   0  0  0  0  0  0  0  0  0  0  0  0
   -9.8947  -33.1420  -16.1278 N   0  0  0  0  0  0  0  0  0  0  0  0
  1  3  1  1  0  0  0
  1  5  2  0  0  0  0
  1  9  1  0  0  0  0
  1 18  1  0  0  0  0
  2  4  1  6  0  0  0
  2  6  2  0  0  0  0
  2 10  1  0  0  0  0
  2 17  1  0  0  0  0
  7  9  1  0  0  0  0
  8 10  1  0  0  0  0
 11  7  1  6  0  0  0
 11 13  1  0  0  0  0
 11 15  1  0  0  0  0
 12  8  1  6  0  0  0
 12 14  1  0  0  0  0
 12 16  1  0  0  0  0
 13 21  1  0  0  0  0
 14 22  1  0  0  0  0
 15 17  1  1  0  0  0
 15 19  1  0  0  0  0
 16 18  1  1  0  0  0
 16 20  1  0  0  0  0
 19 21  1  0  0  0  0
 20 22  1  0  0  0  0
 21 32  1  6  0  0  0
 22 42  1  6  0  0  0
 23 24  2  0  0  0  0
 23 28  1  0  0  0  0
 24 25  1  0  0  0  0
 25 26  2  0  0  0  0
 26 27  1  0  0  0  0
 26 32  1  0  0  0  0
 27 28  2  0  0  0  0
 27 30  1  0  0  0  0
 28 29  1  0  0  0  0
 30 31  2  0  0  0  0
 31 32  1  0  0  0  0
 33 34  2  0  0  0  0
 33 38  1  0  0  0  0
 34 35  1  0  0  0  0
 35 36  2  0  0  0  0
 36 37  1  0  0  0  0
 36 42  1  0  0  0  0
 37 38  2  0  0  0  0
 37 40  1  0  0  0  0
 38 39  1  0  0  0  0
 40 41  2  0  0  0  0
 41 42  1  0  0  0  0
M  CHG  2   3  -1   4  -1
M  END
>  <CHROM.1>
112.33459918,-84.73608068,-5.71061641,-34.02584629,-15.29274944,0.13486277
-0.25215354,2.00292821

>  <Name>
ligand

>  <RI>
0

>  <Rbt.Current_Directory>
/home/itssahil/PROJECTS/Mol_Feturizer/New_Systems/rnas/4QLN

>  <Rbt.Executable>
rbdock ($Id: //depot/dev/client3/rdock/2013.1/src/exe/rbdock.cxx#4 $)

>  <Rbt.Library>
libRbt.so (2013.1, Build901 2013/11/27)

>  <Rbt.Parameter_File>
/export/apps/rDock/src/rDock_2013.1_src/data/scripts/dock_solv.prm

>  <Rbt.Receptor>
prm/blind_docking_80.prm

>  <SCORE>
145.617

>  <SCORE.INTER>
132.784

>  <SCORE.INTER.CONST>
1

>  <SCORE.INTER.POLAR>
0

>  <SCORE.INTER.ROT>
2

>  <SCORE.INTER.SOLV>
56.4657

>  <SCORE.INTER.VDW>
64.7671

>  <SCORE.INTER.norm>
3.16151

>  <SCORE.INTRA>
2.97354

>  <SCORE.INTRA.DIHEDRAL>
-0.000472539

>  <SCORE.INTRA.DIHEDRAL.0>
2.39985

>  <SCORE.INTRA.POLAR>
0

>  <SCORE.INTRA.POLAR.0>
0

>  <SCORE.INTRA.REPUL>
0

>  <SCORE.INTRA.REPUL.0>
0

>  <SCORE.INTRA.SOLV>
-0.0843218

>  <SCORE.INTRA.SOLV.lig_0>
-110.958

>  <SCORE.INTRA.VDW>
3.01593

>  <SCORE.INTRA.VDW.0>
-2.34644

>  <SCORE.INTRA.norm>
0.0707985

>  <SCORE.RESTR>
9.86009

>  <SCORE.RESTR.CAVITY>
9.86009

>  <SCORE.RESTR.norm>
0.234764

>  <SCORE.SYSTEM>
0

>  <SCORE.SYSTEM.CONST>
0

>  <SCORE.SYSTEM.DIHEDRAL>
0

>  <SCORE.SYSTEM.SOLV>
0

>  <SCORE.SYSTEM.norm>
0

>  <SCORE.heavy>
42

>  <SCORE.norm>
3.46708

>  <RMSD>
12.669

$$$$
ligand
 OpenBabel11021811513D
libRbt.so/2013.1/901 2013/11/27
 42 48  0  0  0  0  0  0  0  0999 V2000
   -6.2243  -37.0781  -13.9826 P   0  0  2  0  0  0  0  0  0  0  0  0
   -5.2970  -32.1615  -13.2886 P   0  0  1  0  0  0  0  0  0  0  0  0
   -5.8983  -38.0434  -12.8670 O   0  5  0  0  0  0  0  0  0  0  0  0
   -5.5195  -32.2175  -14.7812 O   0  5  0  0  0  0  0  0  0  0  0  0
   -6.4865  -37.5982  -15.3757 O   0  0  0  0  0  0  0  0  0  0  0  0
   -5.2596  -30.8281  -12.5814 O   0  0  0  0  0  0  0  0  0  0  0  0
   -3.6986  -36.3515  -13.7593 C   0  0  0  0  0  0  0  0  0  0  0  0
   -7.7995  -32.7875  -12.7420 C   0  0  0  0  0  0  0  0  0  0  0  0
   -5.0434  -35.9874  -14.0657 O   0  0  0  0  0  0  0  0  0  0  0  0
   -6.4135  -33.0783  -12.5777 O   0  0  0  0  0  0  0  0  0  0  0  0
   -2.9639  -35.1453  -13.1866 C   0  0  1  0  0  0  0  0  0  0  0  0
   -8.5426  -34.0549  -13.1456 C   0  0  1  0  0  0  0  0  0  0  0  0
   -1.5545  -35.3097  -13.3653 O   0  0  0  0  0  0  0  0  0  0  0  0
   -9.7555  -33.7093  -13.8187 O   0  0  0  0  0  0  0  0  0  0  0  0
   -3.3758  -33.8639  -13.8915 C   0  0  1  0  0  0  0  0  0  0  0  0
   -7.7109  -34.9040  -14.0936 C   0  0  1  0  0  0  0  0  0  0  0  0
   -3.9316  -32.9471  -12.9536 O   0  0  0  0  0  0  0  0  0  0  0  0
   -7.4894  -36.1926  -13.5283 O   0  0  0  0  0  0  0  0  0  0  0  0
   -2.1127  -33.2835  -14.4999 C   0  0  0  0  0  0  0  0  0  0  0  0
   -8.5133  -35.0290  -15.3744 C   0  0  0  0  0  0  0  0  0  0  0  0
   -0.9910  -34.2448  -14.1358 C   0  0  2  0  0  0  0  0  0  0  0  0
   -9.7991  -34.2483  -15.1422 C   0  0  2  0  0  0  0  0  0  0  0  0
   -1.2336  -34.5287  -19.3740 N   0  0  0  0  0  0  0  0  0  0  0  0
   -2.0290  -33.8816  -18.5024 C   0  0  0  0  0  0  0  0  0  0  0  0
   -1.8456  -33.8972  -17.1692 N   0  0  0  0  0  0  0  0  0  0  0  0
   -0.8183  -34.5859  -16.6168 C   0  0  0  0  0  0  0  0  0  0  0  0
    0.0968  -35.3199  -17.5049 C   0  0  0  0  0  0  0  0  0  0  0  0
   -0.1709  -35.2553  -18.9614 C   0  0  0  0  0  0  0  0  0  0  0  0
    0.6229  -35.9017  -19.8488 N   0  0  0  0  0  0  0  0  0  0  0  0
    1.0123  -35.9075  -16.7120 N   0  0  0  0  0  0  0  0  0  0  0  0
    0.7112  -35.5798  -15.4294 C   0  0  0  0  0  0  0  0  0  0  0  0
   -0.3797  -34.7918  -15.3725 N   0  0  0  0  0  0  0  0  0  0  0  0
  -12.9799  -30.9359  -17.6883 N   0  0  0  0  0  0  0  0  0  0  0  0
  -13.2657  -31.8893  -16.7824 C   0  0  0  0  0  0  0  0  0  0  0  0
  -12.3380  -32.6737  -16.2047 N   0  0  0  0  0  0  0  0  0  0  0  0
  -11.0257  -32.5403  -16.5144 C   0  0  0  0  0  0  0  0  0  0  0  0
  -10.6330  -31.5186  -17.4973 C   0  0  0  0  0  0  0  0  0  0  0  0
  -11.7131  -30.6942  -18.0890 C   0  0  0  0  0  0  0  0  0  0  0  0
  -11.4378  -29.7303  -19.0018 N   0  0  0  0  0  0  0  0  0  0  0  0
   -9.2943  -31.5966  -17.6180 N   0  0  0  0  0  0  0  0  0  0  0  0
   -8.8677  -32.5816  -16.7863 C   0  0  0  0  0  0  0  0  0  0  0  0
   -9.8987  -33.1438  -16.1292 N   0  0  0  0  0  0  0  0  0  0  0  0
  1  3  1  1  0  0  0
  1  5  2  0  0  0  0
  1  9  1  0  0  0  0
  1 18  1  0  0  0  0
  2  4  1  6  0  0  0
  2  6  2  0  0  0  0
  2 10  1  0  0  0  0
  2 17  1  0  0  0  0
  7  9  1  0  0  0  0
  8 10  1  0  0  0  0
 11  7  1  6  0  0  0
 11 13  1  0  0  0  0
 11 15  1  0  0  0  0
 12  8  1  6  0  0  0
 12 14  1  0  0  0  0
 12 16  1  0  0  0  0
 13 21  1  0  0  0  0
 14 22  1  0  0  0  0
 15 17  1  1  0  0  0
 15 19  1  0  0  0  0
 16 18  1  1  0  0  0
 16 20  1  0  0  0  0
 19 21  1  0  0  0  0
 20 22  1  0  0  0  0
 21 32  1  6  0  0  0
 22 42  1  6  0  0  0
 23 24  2  0  0  0  0
 23 28  1  0  0  0  0
 24 25  1  0  0  0  0
 25 26  2  0  0  0  0
 26 27  1  0  0  0  0
 26 32  1  0  0  0  0
 27 28  2  0  0  0  0
 27 30  1  0  0  0  0
 28 29  1  0  0  0  0
 30 31  2  0  0  0  0
 31 32  1  0  0  0  0
 33 34  2  0  0  0  0
 33 38  1  0  0  0  0
 34 35  1  0  0  0  0
 35 36  2  0  0  0  0
 36 37  1  0  0  0  0
 36 42  1  0  0  0  0
 37 38  2  0  0  0  0
 37 40  1  0  0  0  0
 38 39  1  0  0  0  0
 40 41  2  0  0  0  0
 41 42  1  0  0  0  0
M  CHG  2   3  -1   4  -1
M  END
>  <CHROM.1>
112.36147070,-84.39258470,-5.71408208,-34.02421895,-15.29233981,0.13471884
-0.25213971,2.00394881

>  <Name>
ligand

>  <RI>
0

>  <Rbt.Current_Directory>
/home/itssahil/PROJECTS/Mol_Feturizer/New_Systems/rnas/4QLN

>  <Rbt.Executable>
rbdock ($Id: //depot/dev/client3/rdock/2013.1/src/exe/rbdock.cxx#4 $)

>  <Rbt.Library>
libRbt.so (2013.1, Build901 2013/11/27)

>  <Rbt.Parameter_File>
/export/apps/rDock/src/rDock_2013.1_src/data/scripts/dock_solv.prm

>  <Rbt.Receptor>
prm/blind_docking_80.prm

>  <SCORE>
145.667

>  <SCORE.INTER>
132.838

>  <SCORE.INTER.CONST>
1

>  <SCORE.INTER.POLAR>
0

>  <SCORE.INTER.ROT>
2

>  <SCORE.INTER.SOLV>
56.4748

>  <SCORE.INTER.VDW>
64.8007

>  <SCORE.INTER.norm>
3.16282

>  <SCORE.INTRA>
2.98181

>  <SCORE.INTRA.DIHEDRAL>
-0.000469086

>  <SCORE.INTRA.DIHEDRAL.0>
2.39985

>  <SCORE.INTRA.POLAR>
0

>  <SCORE.INTRA.POLAR.0>
0

>  <SCORE.INTRA.REPUL>
0

>  <SCORE.INTRA.REPUL.0>
0

>  <SCORE.INTRA.SOLV>
-0.0850664

>  <SCORE.INTRA.SOLV.lig_0>
-110.958

>  <SCORE.INTRA.VDW>
3.02457

>  <SCORE.INTRA.VDW.0>
-2.34644

>  <SCORE.INTRA.norm>
0.0709954

>  <SCORE.RESTR>
9.84684

>  <SCORE.RESTR.CAVITY>
9.84684

>  <SCORE.RESTR.norm>
0.234449

>  <SCORE.SYSTEM>
0

>  <SCORE.SYSTEM.CONST>
0

>  <SCORE.SYSTEM.DIHEDRAL>
0

>  <SCORE.SYSTEM.SOLV>
0

>  <SCORE.SYSTEM.norm>
0

>  <SCORE.heavy>
42

>  <SCORE.norm>
3.46826

>  <RMSD>
12.672

$$$$
ligand
 OpenBabel11021811513D
libRbt.so/2013.1/901 2013/11/27
 42 48  0  0  0  0  0  0  0  0999 V2000
   -5.7215  -32.5478  -12.7062 P   0  0  2  0  0  0  0  0  0  0  0  0
   -6.5230  -36.6789  -15.5002 P   0  0  1  0  0  0  0  0  0  0  0  0
   -6.2409  -32.5181  -11.2877 O   0  5  0  0  0  0  0  0  0  0  0  0
   -6.0977  -35.6825  -16.5522 O   0  5  0  0  0  0  0  0  0  0  0  0
   -5.2908  -31.2656  -13.3773 O   0  0  0  0  0  0  0  0  0  0  0  0
   -6.6008  -38.1477  -15.8405 O   0  0  0  0  0  0  0  0  0  0  0  0
   -8.2200  -33.0983  -13.3479 C   0  0  0  0  0  0  0  0  0  0  0  0
   -4.1502  -36.7021  -14.3500 C   0  0  0  0  0  0  0  0  0  0  0  0
   -6.8311  -33.2543  -13.6339 O   0  0  0  0  0  0  0  0  0  0  0  0
   -5.5569  -36.5074  -14.2235 O   0  0  0  0  0  0  0  0  0  0  0  0
   -8.9743  -34.3431  -13.7997 C   0  0  1  0  0  0  0  0  0  0  0  0
   -3.4137  -35.5209  -13.7308 C   0  0  1  0  0  0  0  0  0  0  0  0
  -10.3509  -34.0208  -14.0152 O   0  0  0  0  0  0  0  0  0  0  0  0
   -2.1051  -35.4177  -14.2972 O   0  0  0  0  0  0  0  0  0  0  0  0
   -8.4134  -34.8839  -15.1040 C   0  0  1  0  0  0  0  0  0  0  0  0
   -4.1414  -34.2136  -14.0013 C   0  0  1  0  0  0  0  0  0  0  0  0
   -7.9544  -36.2199  -14.9220 O   0  0  0  0  0  0  0  0  0  0  0  0
   -4.4948  -33.5879  -12.7713 O   0  0  0  0  0  0  0  0  0  0  0  0
   -9.5533  -34.8576  -16.1052 C   0  0  0  0  0  0  0  0  0  0  0  0
   -3.1748  -33.3356  -14.7723 C   0  0  0  0  0  0  0  0  0  0  0  0
  -10.7552  -34.2982  -15.3586 C   0  0  2  0  0  0  0  0  0  0  0  0
   -1.9012  -34.1535  -14.9330 C   0  0  2  0  0  0  0  0  0  0  0  0
   -9.5177  -30.3620  -18.6072 N   0  0  0  0  0  0  0  0  0  0  0  0
   -8.7880  -31.4203  -18.2088 C   0  0  0  0  0  0  0  0  0  0  0  0
   -9.2392  -32.3629  -17.3609 N   0  0  0  0  0  0  0  0  0  0  0  0
  -10.4912  -32.2950  -16.8482 C   0  0  0  0  0  0  0  0  0  0  0  0
  -11.3518  -31.1666  -17.2368 C   0  0  0  0  0  0  0  0  0  0  0  0
  -10.7836  -30.1687  -18.1739 C   0  0  0  0  0  0  0  0  0  0  0  0
  -11.5085  -29.0997  -18.5830 N   0  0  0  0  0  0  0  0  0  0  0  0
  -12.5231  -31.3386  -16.5957 N   0  0  0  0  0  0  0  0  0  0  0  0
  -12.4226  -32.4760  -15.8612 C   0  0  0  0  0  0  0  0  0  0  0  0
  -11.2116  -33.0463  -16.0118 N   0  0  0  0  0  0  0  0  0  0  0  0
    1.4913  -35.9719  -18.5046 N   0  0  0  0  0  0  0  0  0  0  0  0
    1.5744  -35.9498  -17.1615 C   0  0  0  0  0  0  0  0  0  0  0  0
    0.6172  -35.4463  -16.3616 N   0  0  0  0  0  0  0  0  0  0  0  0
   -0.5167  -34.9187  -16.8830 C   0  0  0  0  0  0  0  0  0  0  0  0
   -0.6820  -34.9067  -18.3447 C   0  0  0  0  0  0  0  0  0  0  0  0
    0.4166  -35.4798  -19.1577 C   0  0  0  0  0  0  0  0  0  0  0  0
    0.3444  -35.5086  -20.5112 N   0  0  0  0  0  0  0  0  0  0  0  0
   -1.8770  -34.3373  -18.5911 N   0  0  0  0  0  0  0  0  0  0  0  0
   -2.4278  -34.0131  -17.3931 C   0  0  0  0  0  0  0  0  0  0  0  0
   -1.6177  -34.3591  -16.3758 N   0  0  0  0  0  0  0  0  0  0  0  0
  1  3  1  1  0  0  0
  1  5  2  0  0  0  0
  1  9  1  0  0  0  0
  1 18  1  0  0  0  0
  2  4  1  6  0  0  0
  2  6  2  0  0  0  0
  2 10  1  0  0  0  0
  2 17  1  0  0  0  0
  7  9  1  0  0  0  0
  8 10  1  0  0  0  0
 11  7  1  6  0  0  0
 11 13  1  0  0  0  0
 11 15  1  0  0  0  0
 12  8  1  6  0  0  0
 12 14  1  0  0  0  0
 12 16  1  0  0  0  0
 13 21  1  0  0  0  0
 14 22  1  0  0  0  0
 15 17  1  1  0  0  0
 15 19  1  0  0  0  0
 16 18  1  1  0  0  0
 16 20  1  0  0  0  0
 19 21  1  0  0  0  0
 20 22  1  0  0  0  0
 21 32  1  6  0  0  0
 22 42  1  6  0  0  0
 23 24  2  0  0  0  0
 23 28  1  0  0  0  0
 24 25  1  0  0  0  0
 25 26  2  0  0  0  0
 26 27  1  0  0  0  0
 26 32  1  0  0  0  0
 27 28  2  0  0  0  0
 27 30  1  0  0  0  0
 28 29  1  0  0  0  0
 30 31  2  0  0  0  0
 31 32  1  0  0  0  0
 33 34  2  0  0  0  0
 33 38  1  0  0  0  0
 34 35  1  0  0  0  0
 35 36  2  0  0  0  0
 36 37  1  0  0  0  0
 36 42  1  0  0  0  0
 37 38  2  0  0  0  0
 37 40  1  0  0  0  0
 38 39  1  0  0  0  0
 40 41  2  0  0  0  0
 41 42  1  0  0  0  0
M  CHG  2   3  -1   4  -1
M  END
>  <CHROM.1>
99.79397516,-68.40836288,-5.90970586,-34.02499504,-15.69430322,3.11927419
0.31243174,-1.24397896

>  <Name>
ligand

>  <RI>
0

>  <Rbt.Current_Directory>
/home/itssahil/PROJECTS/Mol_Feturizer/New_Systems/rnas/4QLN

>  <Rbt.Executable>
rbdock ($Id: //depot/dev/client3/rdock/2013.1/src/exe/rbdock.cxx#4 $)

>  <Rbt.Library>
libRbt.so (2013.1, Build901 2013/11/27)

>  <Rbt.Parameter_File>
/export/apps/rDock/src/rDock_2013.1_src/data/scripts/dock_solv.prm

>  <Rbt.Receptor>
prm/blind_docking_80.prm

>  <SCORE>
226

>  <SCORE.INTER>
217.72

>  <SCORE.INTER.CONST>
1

>  <SCORE.INTER.POLAR>
0

>  <SCORE.INTER.ROT>
2

>  <SCORE.INTER.SOLV>
64.3912

>  <SCORE.INTER.VDW>
118.749

>  <SCORE.INTER.norm>
5.1838

>  <SCORE.INTRA>
2.6297

>  <SCORE.INTRA.DIHEDRAL>
5.62953e-05

>  <SCORE.INTRA.DIHEDRAL.0>
2.39985

>  <SCORE.INTRA.POLAR>
0

>  <SCORE.INTRA.POLAR.0>
0

>  <SCORE.INTRA.REPUL>
0

>  <SCORE.INTRA.REPUL.0>
0

>  <SCORE.INTRA.SOLV>
-0.117431

>  <SCORE.INTRA.SOLV.lig_0>
-110.958

>  <SCORE.INTRA.VDW>
2.68838

>  <SCORE.INTRA.VDW.0>
-2.34644

>  <SCORE.INTRA.norm>
0.0626118

>  <SCORE.RESTR>
5.65049

>  <SCORE.RESTR.CAVITY>
5.65049

>  <SCORE.RESTR.norm>
0.134536

>  <SCORE.SYSTEM>
0

>  <SCORE.SYSTEM.CONST>
0

>  <SCORE.SYSTEM.DIHEDRAL>
0

>  <SCORE.SYSTEM.SOLV>
0

>  <SCORE.SYSTEM.norm>
0

>  <SCORE.heavy>
42

>  <SCORE.norm>
5.38095

>  <RMSD>
12.846

$$$$
ligand
 OpenBabel11021811513D
libRbt.so/2013.1/901 2013/11/27
 42 48  0  0  0  0  0  0  0  0999 V2000
   -5.7236  -32.5515  -12.7004 P   0  0  2  0  0  0  0  0  0  0  0  0
   -6.5229  -36.6830  -15.4943 P   0  0  1  0  0  0  0  0  0  0  0  0
   -6.2418  -32.5226  -11.2814 O   0  5  0  0  0  0  0  0  0  0  0  0
   -6.0995  -35.6861  -16.5465 O   0  5  0  0  0  0  0  0  0  0  0  0
   -5.2948  -31.2687  -13.3717 O   0  0  0  0  0  0  0  0  0  0  0  0
   -6.5993  -38.1520  -15.8347 O   0  0  0  0  0  0  0  0  0  0  0  0
   -8.2220  -33.1046  -13.3400 C   0  0  0  0  0  0  0  0  0  0  0  0
   -4.1491  -36.7038  -14.3461 C   0  0  0  0  0  0  0  0  0  0  0  0
   -6.8332  -33.2591  -13.6272 O   0  0  0  0  0  0  0  0  0  0  0  0
   -5.5559  -36.5107  -14.2184 O   0  0  0  0  0  0  0  0  0  0  0  0
   -8.9753  -34.3502  -13.7914 C   0  0  1  0  0  0  0  0  0  0  0  0
   -3.4134  -35.5219  -13.7274 C   0  0  1  0  0  0  0  0  0  0  0  0
  -10.3525  -34.0294  -14.0057 O   0  0  0  0  0  0  0  0  0  0  0  0
   -2.1054  -35.4172  -14.2948 O   0  0  0  0  0  0  0  0  0  0  0  0
   -8.4149  -34.8902  -15.0963 C   0  0  1  0  0  0  0  0  0  0  0  0
   -4.1427  -34.2153  -13.9970 C   0  0  1  0  0  0  0  0  0  0  0  0
   -7.9543  -36.2258  -14.9148 O   0  0  0  0  0  0  0  0  0  0  0  0
   -4.4958  -33.5903  -12.7667 O   0  0  0  0  0  0  0  0  0  0  0  0
   -9.5557  -34.8651  -16.0965 C   0  0  0  0  0  0  0  0  0  0  0  0
   -3.1778  -33.3362  -14.7688 C   0  0  0  0  0  0  0  0  0  0  0  0
  -10.7576  -34.3071  -15.3488 C   0  0  2  0  0  0  0  0  0  0  0  0
   -1.9034  -34.1526  -14.9307 C   0  0  2  0  0  0  0  0  0  0  0  0
   -9.5269  -30.3686  -18.5972 N   0  0  0  0  0  0  0  0  0  0  0  0
   -8.7956  -31.4260  -18.1994 C   0  0  0  0  0  0  0  0  0  0  0  0
   -9.2452  -32.3694  -17.3515 N   0  0  0  0  0  0  0  0  0  0  0  0
  -10.4970  -32.3032  -16.8381 C   0  0  0  0  0  0  0  0  0  0  0  0
  -11.3592  -31.1758  -17.2258 C   0  0  0  0  0  0  0  0  0  0  0  0
  -10.7927  -30.1769  -18.1631 C   0  0  0  0  0  0  0  0  0  0  0  0
  -11.5193  -29.1088  -18.5715 N   0  0  0  0  0  0  0  0  0  0  0  0
  -12.5298  -31.3494  -16.5842 N   0  0  0  0  0  0  0  0  0  0  0  0
  -12.4275  -32.4868  -15.8500 C   0  0  0  0  0  0  0  0  0  0  0  0
  -11.2160  -33.0556  -16.0014 N   0  0  0  0  0  0  0  0  0  0  0  0
    1.4957  -35.9511  -18.5061 N   0  0  0  0  0  0  0  0  0  0  0  0
    1.5809  -35.9270  -17.1631 C   0  0  0  0  0  0  0  0  0  0  0  0
    0.6215  -35.4294  -16.3621 N   0  0  0  0  0  0  0  0  0  0  0  0
   -0.5169  -34.9102  -16.8822 C   0  0  0  0  0  0  0  0  0  0  0  0
   -0.6847  -34.9008  -18.3437 C   0  0  0  0  0  0  0  0  0  0  0  0
    0.4165  -35.4671  -19.1579 C   0  0  0  0  0  0  0  0  0  0  0  0
    0.3422  -35.4977  -20.5113 N   0  0  0  0  0  0  0  0  0  0  0  0
   -1.8840  -34.3400  -18.5886 N   0  0  0  0  0  0  0  0  0  0  0  0
   -2.4351  -34.0184  -17.3899 C   0  0  0  0  0  0  0  0  0  0  0  0
   -1.6209  -34.3577  -16.3736 N   0  0  0  0  0  0  0  0  0  0  0  0
  1  3  1  1  0  0  0
  1  5  2  0  0  0  0
  1  9  1  0  0  0  0
  1 18  1  0  0  0  0
  2  4  1  6  0  0  0
  2  6  2  0  0  0  0
  2 10  1  0  0  0  0
  2 17  1  0  0  0  0
  7  9  1  0  0  0  0
  8 10  1  0  0  0  0
 11  7  1  6  0  0  0
 11 13  1  0  0  0  0
 11 15  1  0  0  0  0
 12  8  1  6  0  0  0
 12 14  1  0  0  0  0
 12 16  1  0  0  0  0
 13 21  1  0  0  0  0
 14 22  1  0  0  0  0
 15 17  1  1  0  0  0
 15 19  1  0  0  0  0
 16 18  1  1  0  0  0
 16 20  1  0  0  0  0
 19 21  1  0  0  0  0
 20 22  1  0  0  0  0
 21 32  1  6  0  0  0
 22 42  1  6  0  0  0
 23 24  2  0  0  0  0
 23 28  1  0  0  0  0
 24 25  1  0  0  0  0
 25 26  2  0  0  0  0
 26 27  1  0  0  0  0
 26 32  1  0  0  0  0
 27 28  2  0  0  0  0
 27 30  1  0  0  0  0
 28 29  1  0  0  0  0
 30 31  2  0  0  0  0
 31 32  1  0  0  0  0
 33 34  2  0  0  0  0
 33 38  1  0  0  0  0
 34 35  1  0  0  0  0
 35 36  2  0  0  0  0
 36 37  1  0  0  0  0
 36 42  1  0  0  0  0
 37 38  2  0  0  0  0
 37 40  1  0  0  0  0
 38 39  1  0  0  0  0
 40 41  2  0  0  0  0
 41 42  1  0  0  0  0
M  CHG  2   3  -1   4  -1
M  END
>  <CHROM.1>
99.77635891,-68.75279677,-5.91203797,-34.02712817,-15.68853064,3.12041266
0.31093884,-1.24287382

>  <Name>
ligand

>  <RI>
0

>  <Rbt.Current_Directory>
/home/itssahil/PROJECTS/Mol_Feturizer/New_Systems/rnas/4QLN

>  <Rbt.Executable>
rbdock ($Id: //depot/dev/client3/rdock/2013.1/src/exe/rbdock.cxx#4 $)

>  <Rbt.Library>
libRbt.so (2013.1, Build901 2013/11/27)

>  <Rbt.Parameter_File>
/export/apps/rDock/src/rDock_2013.1_src/data/scripts/dock_solv.prm

>  <Rbt.Receptor>
prm/blind_docking_80.prm

>  <SCORE>
225.946

>  <SCORE.INTER>
217.656

>  <SCORE.INTER.CONST>
1

>  <SCORE.INTER.POLAR>
0

>  <SCORE.INTER.ROT>
2

>  <SCORE.INTER.SOLV>
64.3543

>  <SCORE.INTER.VDW>
118.719

>  <SCORE.INTER.norm>
5.18229

>  <SCORE.INTRA>
2.62515

>  <SCORE.INTRA.DIHEDRAL>
4.41933e-05

>  <SCORE.INTRA.DIHEDRAL.0>
2.39985

>  <SCORE.INTRA.POLAR>
0

>  <SCORE.INTRA.POLAR.0>
0

>  <SCORE.INTRA.REPUL>
0

>  <SCORE.INTRA.REPUL.0>
0

>  <SCORE.INTRA.SOLV>
-0.117649

>  <SCORE.INTRA.SOLV.lig_0>
-110.958

>  <SCORE.INTRA.VDW>
2.68395

>  <SCORE.INTRA.VDW.0>
-2.34644

>  <SCORE.INTRA.norm>
0.0625035

>  <SCORE.RESTR>
5.66496

>  <SCORE.RESTR.CAVITY>
5.66496

>  <SCORE.RESTR.norm>
0.13488

>  <SCORE.SYSTEM>
0

>  <SCORE.SYSTEM.CONST>
0

>  <SCORE.SYSTEM.DIHEDRAL>
0

>  <SCORE.SYSTEM.SOLV>
0

>  <SCORE.SYSTEM.norm>
0

>  <SCORE.heavy>
42

>  <SCORE.norm>
5.37967

>  <RMSD>
12.847

$$$$
ligand
 OpenBabel11021811513D
libRbt.so/2013.1/901 2013/11/27
 42 48  0  0  0  0  0  0  0  0999 V2000
   -5.9698  -32.9878  -12.3205 P   0  0  2  0  0  0  0  0  0  0  0  0
   -6.8302  -36.8025  -15.5176 P   0  0  1  0  0  0  0  0  0  0  0  0
   -6.2083  -33.2086  -10.8449 O   0  5  0  0  0  0  0  0  0  0  0  0
   -6.7265  -35.6326  -16.4668 O   0  5  0  0  0  0  0  0  0  0  0  0
   -5.8195  -31.5844  -12.8571 O   0  0  0  0  0  0  0  0  0  0  0  0
   -6.8092  -38.2134  -16.0548 O   0  0  0  0  0  0  0  0  0  0  0  0
   -8.4686  -33.7871  -12.5926 C   0  0  0  0  0  0  0  0  0  0  0  0
   -4.2935  -36.6483  -14.8144 C   0  0  0  0  0  0  0  0  0  0  0  0
   -7.1515  -33.7155  -13.1359 O   0  0  0  0  0  0  0  0  0  0  0  0
   -5.6627  -36.6642  -14.4175 O   0  0  0  0  0  0  0  0  0  0  0  0
   -9.1535  -35.0556  -13.0871 C   0  0  1  0  0  0  0  0  0  0  0  0
   -3.5870  -35.4659  -14.1634 C   0  0  1  0  0  0  0  0  0  0  0  0
  -10.5729  -34.8988  -13.0092 O   0  0  0  0  0  0  0  0  0  0  0  0
   -2.4304  -35.1150  -14.9269 O   0  0  0  0  0  0  0  0  0  0  0  0
   -8.7962  -35.3458  -14.5350 C   0  0  1  0  0  0  0  0  0  0  0  0
   -4.4926  -34.2460  -14.1047 C   0  0  1  0  0  0  0  0  0  0  0  0
   -8.1664  -36.6193  -14.6373 O   0  0  0  0  0  0  0  0  0  0  0  0
   -4.6711  -33.8349  -12.7526 O   0  0  0  0  0  0  0  0  0  0  0  0
  -10.1024  -35.3483  -15.3073 C   0  0  0  0  0  0  0  0  0  0  0  0
   -3.7942  -33.1544  -14.8923 C   0  0  0  0  0  0  0  0  0  0  0  0
  -11.1935  -35.0565  -14.2880 C   0  0  2  0  0  0  0  0  0  0  0  0
   -2.4926  -33.7646  -15.3925 C   0  0  2  0  0  0  0  0  0  0  0  0
  -11.3258  -30.8895  -17.4813 N   0  0  0  0  0  0  0  0  0  0  0  0
  -10.4576  -31.9166  -17.4305 C   0  0  0  0  0  0  0  0  0  0  0  0
  -10.5471  -32.9281  -16.5474 N   0  0  0  0  0  0  0  0  0  0  0  0
  -11.5474  -32.9679  -15.6349 C   0  0  0  0  0  0  0  0  0  0  0  0
  -12.5380  -31.8800  -15.6269 C   0  0  0  0  0  0  0  0  0  0  0  0
  -12.3720  -30.8012  -16.6297 C   0  0  0  0  0  0  0  0  0  0  0  0
  -13.2398  -29.7626  -16.6914 N   0  0  0  0  0  0  0  0  0  0  0  0
  -13.4078  -32.1600  -14.6383 N   0  0  0  0  0  0  0  0  0  0  0  0
  -13.0104  -33.3239  -14.0632 C   0  0  0  0  0  0  0  0  0  0  0  0
  -11.9017  -33.8057  -14.6573 N   0  0  0  0  0  0  0  0  0  0  0  0
   -5.3040  -33.2921  -19.8021 N   0  0  0  0  0  0  0  0  0  0  0  0
   -5.6960  -33.2545  -18.5151 C   0  0  0  0  0  0  0  0  0  0  0  0
   -4.8558  -33.3917  -17.4736 N   0  0  0  0  0  0  0  0  0  0  0  0
   -3.5288  -33.5806  -17.6723 C   0  0  0  0  0  0  0  0  0  0  0  0
   -3.0225  -33.6331  -19.0525 C   0  0  0  0  0  0  0  0  0  0  0  0
   -4.0106  -33.4735  -20.1454 C   0  0  0  0  0  0  0  0  0  0  0  0
   -3.6281  -33.5088  -21.4456 N   0  0  0  0  0  0  0  0  0  0  0  0
   -1.6927  -33.8258  -18.9663 N   0  0  0  0  0  0  0  0  0  0  0  0
   -1.3758  -33.8915  -17.6475 C   0  0  0  0  0  0  0  0  0  0  0  0
   -2.4693  -33.7456  -16.8768 N   0  0  0  0  0  0  0  0  0  0  0  0
  1  3  1  1  0  0  0
  1  5  2  0  0  0  0
  1  9  1  0  0  0  0
  1 18  1  0  0  0  0
  2  4  1  6  0  0  0
  2  6  2  0  0  0  0
  2 10  1  0  0  0  0
  2 17  1  0  0  0  0
  7  9  1  0  0  0  0
  8 10  1  0  0  0  0
 11  7  1  6  0  0  0
 11 13  1  0  0  0  0
 11 15  1  0  0  0  0
 12  8  1  6  0  0  0
 12 14  1  0  0  0  0
 12 16  1  0  0  0  0
 13 21  1  0  0  0  0
 14 22  1  0  0  0  0
 15 17  1  1  0  0  0
 15 19  1  0  0  0  0
 16 18  1  1  0  0  0
 16 20  1  0  0  0  0
 19 21  1  0  0  0  0
 20 22  1  0  0  0  0
 21 32  1  6  0  0  0
 22 42  1  6  0  0  0
 23 24  2  0  0  0  0
 23 28  1  0  0  0  0
 24 25  1  0  0  0  0
 25 26  2  0  0  0  0
 26 27  1  0  0  0  0
 26 32  1  0  0  0  0
 27 28  2  0  0  0  0
 27 30  1  0  0  0  0
 28 29  1  0  0  0  0
 30 31  2  0  0  0  0
 31 32  1  0  0  0  0
 33 34  2  0  0  0  0
 33 38  1  0  0  0  0
 34 35  1  0  0  0  0
 35 36  2  0  0  0  0
 36 37  1  0  0  0  0
 36 42  1  0  0  0  0
 37 38  2  0  0  0  0
 37 40  1  0  0  0  0
 38 39  1  0  0  0  0
 40 41  2  0  0  0  0
 41 42  1  0  0  0  0
M  CHG  2   3  -1   4  -1
M  END
>  <CHROM.1>
110.97608727,101.18939071,-7.04840232,-33.99917743,-15.45591709,-0.15054211
-0.23777309,1.90159556

>  <Name>
ligand

>  <RI>
0

>  <Rbt.Current_Directory>
/home/itssahil/PROJECTS/Mol_Feturizer/New_Systems/rnas/4QLN

>  <Rbt.Executable>
rbdock ($Id: //depot/dev/client3/rdock/2013.1/src/exe/rbdock.cxx#4 $)

>  <Rbt.Library>
libRbt.so (2013.1, Build901 2013/11/27)

>  <Rbt.Parameter_File>
/export/apps/rDock/src/rDock_2013.1_src/data/scripts/dock_solv.prm

>  <Rbt.Receptor>
prm/blind_docking_80.prm

>  <SCORE>
204.05

>  <SCORE.INTER>
194.498

>  <SCORE.INTER.CONST>
1

>  <SCORE.INTER.POLAR>
0

>  <SCORE.INTER.ROT>
2

>  <SCORE.INTER.SOLV>
62.5015

>  <SCORE.INTER.VDW>
103.898

>  <SCORE.INTER.norm>
4.63091

>  <SCORE.INTRA>
3.10908

>  <SCORE.INTRA.DIHEDRAL>
0.000895797

>  <SCORE.INTRA.DIHEDRAL.0>
2.39985

>  <SCORE.INTRA.POLAR>
0

>  <SCORE.INTRA.POLAR.0>
0

>  <SCORE.INTRA.REPUL>
0

>  <SCORE.INTRA.REPUL.0>
0

>  <SCORE.INTRA.SOLV>
0.370425

>  <SCORE.INTRA.SOLV.lig_0>
-110.958

>  <SCORE.INTRA.VDW>
2.92342

>  <SCORE.INTRA.VDW.0>
-2.34644

>  <SCORE.INTRA.norm>
0.0740256

>  <SCORE.RESTR>
6.44299

>  <SCORE.RESTR.CAVITY>
6.44299

>  <SCORE.RESTR.norm>
0.153405

>  <SCORE.SYSTEM>
0

>  <SCORE.SYSTEM.CONST>
0

>  <SCORE.SYSTEM.DIHEDRAL>
0

>  <SCORE.SYSTEM.SOLV>
0

>  <SCORE.SYSTEM.norm>
0

>  <SCORE.heavy>
42

>  <SCORE.norm>
4.85834

>  <RMSD>
13.846

$$$$
ligand
 OpenBabel11021811513D
libRbt.so/2013.1/901 2013/11/27
 42 48  0  0  0  0  0  0  0  0999 V2000
   -5.9997  -32.9519  -12.3422 P   0  0  2  0  0  0  0  0  0  0  0  0
   -6.8634  -36.7701  -15.5343 P   0  0  1  0  0  0  0  0  0  0  0  0
   -6.2555  -33.1650  -10.8684 O   0  5  0  0  0  0  0  0  0  0  0  0
   -6.7388  -35.6047  -16.4865 O   0  5  0  0  0  0  0  0  0  0  0  0
   -5.8305  -31.5520  -12.8823 O   0  0  0  0  0  0  0  0  0  0  0  0
   -6.8502  -38.1831  -16.0661 O   0  0  0  0  0  0  0  0  0  0  0  0
   -8.5030  -33.7285  -12.6372 C   0  0  0  0  0  0  0  0  0  0  0  0
   -4.3327  -36.6374  -14.8054 C   0  0  0  0  0  0  0  0  0  0  0  0
   -7.1798  -33.6714  -13.1672 O   0  0  0  0  0  0  0  0  0  0  0  0
   -5.7060  -36.6388  -14.4226 O   0  0  0  0  0  0  0  0  0  0  0  0
   -9.1948  -34.9923  -13.1342 C   0  0  1  0  0  0  0  0  0  0  0  0
   -3.6217  -35.4593  -14.1514 C   0  0  1  0  0  0  0  0  0  0  0  0
  -10.6134  -34.8217  -13.0715 O   0  0  0  0  0  0  0  0  0  0  0  0
   -2.4540  -35.1222  -14.9042 O   0  0  0  0  0  0  0  0  0  0  0  0
   -8.8255  -35.2912  -14.5773 C   0  0  1  0  0  0  0  0  0  0  0  0
   -4.5162  -34.2307  -14.1065 C   0  0  1  0  0  0  0  0  0  0  0  0
   -8.2067  -36.5709  -14.6684 O   0  0  0  0  0  0  0  0  0  0  0  0
   -4.7047  -33.8129  -12.7578 O   0  0  0  0  0  0  0  0  0  0  0  0
  -10.1236  -35.2842  -15.3630 C   0  0  0  0  0  0  0  0  0  0  0  0
   -3.7994  -33.1486  -14.8907 C   0  0  0  0  0  0  0  0  0  0  0  0
  -11.2223  -34.9782  -14.3561 C   0  0  2  0  0  0  0  0  0  0  0  0
   -2.4986  -33.7730  -15.3752 C   0  0  2  0  0  0  0  0  0  0  0  0
  -11.2805  -30.8207  -17.5639 N   0  0  0  0  0  0  0  0  0  0  0  0
  -10.4225  -31.8556  -17.5002 C   0  0  0  0  0  0  0  0  0  0  0  0
  -10.5312  -32.8634  -16.6149 N   0  0  0  0  0  0  0  0  0  0  0  0
  -11.5419  -32.8909  -15.7134 C   0  0  0  0  0  0  0  0  0  0  0  0
  -12.5223  -31.7938  -15.7199 C   0  0  0  0  0  0  0  0  0  0  0  0
  -12.3352  -30.7199  -16.7242 C   0  0  0  0  0  0  0  0  0  0  0  0
  -13.1926  -29.6735  -16.7988 N   0  0  0  0  0  0  0  0  0  0  0  0
  -13.4055  -32.0626  -14.7401 N   0  0  0  0  0  0  0  0  0  0  0  0
  -13.0254  -33.2282  -14.1570 C   0  0  0  0  0  0  0  0  0  0  0  0
  -11.9147  -33.7222  -14.7372 N   0  0  0  0  0  0  0  0  0  0  0  0
   -5.2635  -33.3154  -19.8157 N   0  0  0  0  0  0  0  0  0  0  0  0
   -5.6689  -33.2725  -18.5330 C   0  0  0  0  0  0  0  0  0  0  0  0
   -4.8397  -33.4063  -17.4822 N   0  0  0  0  0  0  0  0  0  0  0  0
   -3.5108  -33.5970  -17.6664 C   0  0  0  0  0  0  0  0  0  0  0  0
   -2.9902  -33.6551  -19.0410 C   0  0  0  0  0  0  0  0  0  0  0  0
   -3.9667  -33.4990  -20.1448 C   0  0  0  0  0  0  0  0  0  0  0  0
   -3.5708  -33.5395  -21.4408 N   0  0  0  0  0  0  0  0  0  0  0  0
   -1.6615  -33.8485  -18.9403 N   0  0  0  0  0  0  0  0  0  0  0  0
   -1.3585  -33.9094  -17.6180 C   0  0  0  0  0  0  0  0  0  0  0  0
   -2.4598  -33.7597  -16.8593 N   0  0  0  0  0  0  0  0  0  0  0  0
  1  3  1  1  0  0  0
  1  5  2  0  0  0  0
  1  9  1  0  0  0  0
  1 18  1  0  0  0  0
  2  4  1  6  0  0  0
  2  6  2  0  0  0  0
  2 10  1  0  0  0  0
  2 17  1  0  0  0  0
  7  9  1  0  0  0  0
  8 10  1  0  0  0  0
 11  7  1  6  0  0  0
 11 13  1  0  0  0  0
 11 15  1  0  0  0  0
 12  8  1  6  0  0  0
 12 14  1  0  0  0  0
 12 16  1  0  0  0  0
 13 21  1  0  0  0  0
 14 22  1  0  0  0  0
 15 17  1  1  0  0  0
 15 19  1  0  0  0  0
 16 18  1  1  0  0  0
 16 20  1  0  0  0  0
 19 21  1  0  0  0  0
 20 22  1  0  0  0  0
 21 32  1  6  0  0  0
 22 42  1  6  0  0  0
 23 24  2  0  0  0  0
 23 28  1  0  0  0  0
 24 25  1  0  0  0  0
 25 26  2  0  0  0  0
 26 27  1  0  0  0  0
 26 32  1  0  0  0  0
 27 28  2  0  0  0  0
 27 30  1  0  0  0  0
 28 29  1  0  0  0  0
 30 31  2  0  0  0  0
 31 32  1  0  0  0  0
 33 34  2  0  0  0  0
 33 38  1  0  0  0  0
 34 35  1  0  0  0  0
 35 36  2  0  0  0  0
 36 37  1  0  0  0  0
 36 42  1  0  0  0  0
 37 38  2  0  0  0  0
 37 40  1  0  0  0  0
 38 39  1  0  0  0  0
 40 41  2  0  0  0  0
 41 42  1  0  0  0  0
M  CHG  2   3  -1   4  -1
M  END
>  <CHROM.1>
110.92571176,100.68816908,-7.05567964,-33.96657054,-15.48480342,-0.13780200
-0.24363514,1.89870348

>  <Name>
ligand

>  <RI>
0

>  <Rbt.Current_Directory>
/home/itssahil/PROJECTS/Mol_Feturizer/New_Systems/rnas/4QLN

>  <Rbt.Executable>
rbdock ($Id: //depot/dev/client3/rdock/2013.1/src/exe/rbdock.cxx#4 $)

>  <Rbt.Library>
libRbt.so (2013.1, Build901 2013/11/27)

>  <Rbt.Parameter_File>
/export/apps/rDock/src/rDock_2013.1_src/data/scripts/dock_solv.prm

>  <Rbt.Receptor>
prm/blind_docking_80.prm

>  <SCORE>
205.609

>  <SCORE.INTER>
196.493

>  <SCORE.INTER.CONST>
1

>  <SCORE.INTER.POLAR>
0

>  <SCORE.INTER.ROT>
2

>  <SCORE.INTER.SOLV>
63.129

>  <SCORE.INTER.VDW>
105.019

>  <SCORE.INTER.norm>
4.6784

>  <SCORE.INTRA>
3.06564

>  <SCORE.INTRA.DIHEDRAL>
0.000907103

>  <SCORE.INTRA.DIHEDRAL.0>
2.39985

>  <SCORE.INTRA.POLAR>
0

>  <SCORE.INTRA.POLAR.0>
0

>  <SCORE.INTRA.REPUL>
0

>  <SCORE.INTRA.REPUL.0>
0

>  <SCORE.INTRA.SOLV>
0.382383

>  <SCORE.INTRA.SOLV.lig_0>
-110.958

>  <SCORE.INTRA.VDW>
2.87399

>  <SCORE.INTRA.VDW.0>
-2.34644

>  <SCORE.INTRA.norm>
0.0729913

>  <SCORE.RESTR>
6.05004

>  <SCORE.RESTR.CAVITY>
6.05004

>  <SCORE.RESTR.norm>
0.144048

>  <SCORE.SYSTEM>
0

>  <SCORE.SYSTEM.CONST>
0

>  <SCORE.SYSTEM.DIHEDRAL>
0

>  <SCORE.SYSTEM.SOLV>
0

>  <SCORE.SYSTEM.norm>
0

>  <SCORE.heavy>
42

>  <SCORE.norm>
4.89544

>  <RMSD>
13.852

$$$$
ligand
 OpenBabel11021811513D
libRbt.so/2013.1/901 2013/11/27
 42 48  0  0  0  0  0  0  0  0999 V2000
   -6.8651  -37.5199  -15.2066 P   0  0  2  0  0  0  0  0  0  0  0  0
   -6.2300  -32.9660  -13.1154 P   0  0  1  0  0  0  0  0  0  0  0  0
   -6.1264  -38.6991  -14.6178 O   0  5  0  0  0  0  0  0  0  0  0  0
   -6.8910  -32.6059  -14.4245 O   0  5  0  0  0  0  0  0  0  0  0  0
   -7.4904  -37.6308  -16.5765 O   0  0  0  0  0  0  0  0  0  0  0  0
   -6.1024  -31.9295  -12.0250 O   0  0  0  0  0  0  0  0  0  0  0  0
   -4.4704  -36.4316  -15.4013 C   0  0  0  0  0  0  0  0  0  0  0  0
   -8.3773  -34.1904  -12.1970 C   0  0  0  0  0  0  0  0  0  0  0  0
   -5.8722  -36.2529  -15.2067 O   0  0  0  0  0  0  0  0  0  0  0  0
   -6.9865  -34.2496  -12.5050 O   0  0  0  0  0  0  0  0  0  0  0  0
   -3.7111  -35.3409  -14.6553 C   0  0  1  0  0  0  0  0  0  0  0  0
   -9.0872  -35.3912  -12.8095 C   0  0  1  0  0  0  0  0  0  0  0  0
   -2.4145  -35.1733  -15.2351 O   0  0  0  0  0  0  0  0  0  0  0  0
  -10.4743  -35.0932  -12.9860 O   0  0  0  0  0  0  0  0  0  0  0  0
   -4.4352  -34.0080  -14.7419 C   0  0  1  0  0  0  0  0  0  0  0  0
   -8.5094  -35.7379  -14.1725 C   0  0  1  0  0  0  0  0  0  0  0  0
   -4.7609  -33.5430  -13.4355 O   0  0  0  0  0  0  0  0  0  0  0  0
   -8.0077  -37.0710  -14.1654 O   0  0  0  0  0  0  0  0  0  0  0  0
   -3.4774  -33.0419  -15.4139 C   0  0  0  0  0  0  0  0  0  0  0  0
   -9.6490  -35.6164  -15.1656 C   0  0  0  0  0  0  0  0  0  0  0  0
   -2.2141  -33.8379  -15.7060 C   0  0  2  0  0  0  0  0  0  0  0  0
  -10.8693  -35.2017  -14.3558 C   0  0  2  0  0  0  0  0  0  0  0  0
   -4.3026  -33.4335  -20.5074 N   0  0  0  0  0  0  0  0  0  0  0  0
   -4.8874  -33.3586  -19.2976 C   0  0  0  0  0  0  0  0  0  0  0  0
   -4.2200  -33.4827  -18.1356 N   0  0  0  0  0  0  0  0  0  0  0  0
   -2.8823  -33.6955  -18.1216 C   0  0  0  0  0  0  0  0  0  0  0  0
   -2.1698  -33.7893  -19.4055 C   0  0  0  0  0  0  0  0  0  0  0  0
   -2.9738  -33.6430  -20.6420 C   0  0  0  0  0  0  0  0  0  0  0  0
   -2.3965  -33.7157  -21.8656 N   0  0  0  0  0  0  0  0  0  0  0  0
   -0.8733  -33.9999  -19.1106 N   0  0  0  0  0  0  0  0  0  0  0  0
   -0.7639  -34.0380  -17.7579 C   0  0  0  0  0  0  0  0  0  0  0  0
   -1.9612  -33.8564  -17.1682 N   0  0  0  0  0  0  0  0  0  0  0  0
  -14.7033  -31.6223  -14.1092 N   0  0  0  0  0  0  0  0  0  0  0  0
  -14.5754  -32.8018  -13.4737 C   0  0  0  0  0  0  0  0  0  0  0  0
  -13.5258  -33.6277  -13.6348 N   0  0  0  0  0  0  0  0  0  0  0  0
  -12.5103  -33.3047  -14.4717 C   0  0  0  0  0  0  0  0  0  0  0  0
  -12.5771  -32.0301  -15.2031 C   0  0  0  0  0  0  0  0  0  0  0  0
  -13.7653  -31.1752  -14.9718 C   0  0  0  0  0  0  0  0  0  0  0  0
  -13.9053  -29.9847  -15.6053 N   0  0  0  0  0  0  0  0  0  0  0  0
  -11.4598  -31.9578  -15.9510 N   0  0  0  0  0  0  0  0  0  0  0  0
  -10.7415  -33.0866  -15.7192 C   0  0  0  0  0  0  0  0  0  0  0  0
  -11.3671  -33.8889  -14.8383 N   0  0  0  0  0  0  0  0  0  0  0  0
  1  3  1  1  0  0  0
  1  5  2  0  0  0  0
  1  9  1  0  0  0  0
  1 18  1  0  0  0  0
  2  4  1  6  0  0  0
  2  6  2  0  0  0  0
  2 10  1  0  0  0  0
  2 17  1  0  0  0  0
  7  9  1  0  0  0  0
  8 10  1  0  0  0  0
 11  7  1  6  0  0  0
 11 13  1  0  0  0  0
 11 15  1  0  0  0  0
 12  8  1  6  0  0  0
 12 14  1  0  0  0  0
 12 16  1  0  0  0  0
 13 21  1  0  0  0  0
 14 22  1  0  0  0  0
 15 17  1  1  0  0  0
 15 19  1  0  0  0  0
 16 18  1  1  0  0  0
 16 20  1  0  0  0  0
 19 21  1  0  0  0  0
 20 22  1  0  0  0  0
 21 32  1  6  0  0  0
 22 42  1  6  0  0  0
 23 24  2  0  0  0  0
 23 28  1  0  0  0  0
 24 25  1  0  0  0  0
 25 26  2  0  0  0  0
 26 27  1  0  0  0  0
 26 32  1  0  0  0  0
 27 28  2  0  0  0  0
 27 30  1  0  0  0  0
 28 29  1  0  0  0  0
 30 31  2  0  0  0  0
 31 32  1  0  0  0  0
 33 34  2  0  0  0  0
 33 38  1  0  0  0  0
 34 35  1  0  0  0  0
 35 36  2  0  0  0  0
 36 37  1  0  0  0  0
 36 42  1  0  0  0  0
 37 38  2  0  0  0  0
 37 40  1  0  0  0  0
 38 39  1  0  0  0  0
 40 41  2  0  0  0  0
 41 42  1  0  0  0  0
M  CHG  2   3  -1   4  -1
M  END
>  <CHROM.1>
94.06479082,-70.35591661,-7.06583244,-34.22015717,-15.41707228,-0.21490431
-0.31752065,2.19800062

>  <Name>
ligand

>  <RI>
0

>  <Rbt.Current_Directory>
/home/itssahil/PROJECTS/Mol_Feturizer/New_Systems/rnas/4QLN

>  <Rbt.Executable>
rbdock ($Id: //depot/dev/client3/rdock/2013.1/src/exe/rbdock.cxx#4 $)

>  <Rbt.Library>
libRbt.so (2013.1, Build901 2013/11/27)

>  <Rbt.Parameter_File>
/export/apps/rDock/src/rDock_2013.1_src/data/scripts/dock_solv.prm

>  <Rbt.Receptor>
prm/blind_docking_60.prm

>  <SCORE>
269.71

>  <SCORE.INTER>
261.897

>  <SCORE.INTER.CONST>
1

>  <SCORE.INTER.POLAR>
0

>  <SCORE.INTER.ROT>
2

>  <SCORE.INTER.SOLV>
64.5803

>  <SCORE.INTER.VDW>
148.138

>  <SCORE.INTER.norm>
6.23563

>  <SCORE.INTRA>
2.28794

>  <SCORE.INTRA.DIHEDRAL>
1.64207e-05

>  <SCORE.INTRA.DIHEDRAL.0>
2.39985

>  <SCORE.INTRA.POLAR>
0

>  <SCORE.INTRA.POLAR.0>
0

>  <SCORE.INTRA.REPUL>
0

>  <SCORE.INTRA.REPUL.0>
0

>  <SCORE.INTRA.SOLV>
-0.107106

>  <SCORE.INTRA.SOLV.lig_0>
-110.958

>  <SCORE.INTRA.VDW>
2.34149

>  <SCORE.INTRA.VDW.0>
-2.34644

>  <SCORE.INTRA.norm>
0.0544748

>  <SCORE.RESTR>
5.52548

>  <SCORE.RESTR.CAVITY>
5.52548

>  <SCORE.RESTR.norm>
0.131559

>  <SCORE.SYSTEM>
0

>  <SCORE.SYSTEM.CONST>
0

>  <SCORE.SYSTEM.DIHEDRAL>
0

>  <SCORE.SYSTEM.SOLV>
0

>  <SCORE.SYSTEM.norm>
0

>  <SCORE.heavy>
42

>  <SCORE.norm>
6.42167

>  <RMSD>
13.976

$$$$
ligand
 OpenBabel11021811513D
libRbt.so/2013.1/901 2013/11/27
 42 48  0  0  0  0  0  0  0  0999 V2000
   -5.8940  -32.9658  -12.3823 P   0  0  2  0  0  0  0  0  0  0  0  0
   -6.8088  -36.7563  -15.5932 P   0  0  1  0  0  0  0  0  0  0  0  0
   -6.1979  -33.1665  -10.9159 O   0  5  0  0  0  0  0  0  0  0  0  0
   -6.6154  -35.5981  -16.5428 O   0  5  0  0  0  0  0  0  0  0  0  0
   -5.6588  -31.5741  -12.9189 O   0  0  0  0  0  0  0  0  0  0  0  0
   -6.8327  -38.1698  -16.1230 O   0  0  0  0  0  0  0  0  0  0  0  0
   -8.4150  -33.6509  -12.7454 C   0  0  0  0  0  0  0  0  0  0  0  0
   -4.2959  -36.7147  -14.7950 C   0  0  0  0  0  0  0  0  0  0  0  0
   -7.0765  -33.6433  -13.2388 O   0  0  0  0  0  0  0  0  0  0  0  0
   -5.6784  -36.6652  -14.4502 O   0  0  0  0  0  0  0  0  0  0  0  0
   -9.1386  -34.8896  -13.2600 C   0  0  1  0  0  0  0  0  0  0  0  0
   -3.5605  -35.5621  -14.1228 C   0  0  1  0  0  0  0  0  0  0  0  0
  -10.5513  -34.6671  -13.2367 O   0  0  0  0  0  0  0  0  0  0  0  0
   -2.3610  -35.2694  -14.8434 O   0  0  0  0  0  0  0  0  0  0  0  0
   -8.7409  -35.2047  -14.6921 C   0  0  1  0  0  0  0  0  0  0  0  0
   -4.4104  -34.3015  -14.1038 C   0  0  1  0  0  0  0  0  0  0  0  0
   -8.1672  -36.5064  -14.7649 O   0  0  0  0  0  0  0  0  0  0  0  0
   -4.6205  -33.8744  -12.7612 O   0  0  0  0  0  0  0  0  0  0  0  0
  -10.0158  -35.1518  -15.5133 C   0  0  0  0  0  0  0  0  0  0  0  0
   -3.6331  -33.2480  -14.8690 C   0  0  0  0  0  0  0  0  0  0  0  0
  -11.1299  -34.8038  -14.5374 C   0  0  2  0  0  0  0  0  0  0  0  0
   -2.3432  -33.9205  -15.3168 C   0  0  2  0  0  0  0  0  0  0  0  0
  -15.2517  -31.6013  -13.9602 N   0  0  0  0  0  0  0  0  0  0  0  0
  -14.9882  -32.7889  -13.3844 C   0  0  0  0  0  0  0  0  0  0  0  0
  -13.8779  -33.5086  -13.6297 N   0  0  0  0  0  0  0  0  0  0  0  0
  -12.9368  -33.0617  -14.4954 C   0  0  0  0  0  0  0  0  0  0  0  0
  -13.1522  -31.7697  -15.1657 C   0  0  0  0  0  0  0  0  0  0  0  0
  -14.3995  -31.0362  -14.8445 C   0  0  0  0  0  0  0  0  0  0  0  0
  -14.6756  -29.8396  -15.4169 N   0  0  0  0  0  0  0  0  0  0  0  0
  -12.0840  -31.5661  -15.9593 N   0  0  0  0  0  0  0  0  0  0  0  0
  -11.2571  -32.6326  -15.8114 C   0  0  0  0  0  0  0  0  0  0  0  0
  -11.7651  -33.5241  -14.9387 N   0  0  0  0  0  0  0  0  0  0  0  0
   -4.9631  -33.3538  -19.8320 N   0  0  0  0  0  0  0  0  0  0  0  0
   -5.4013  -33.2914  -18.5610 C   0  0  0  0  0  0  0  0  0  0  0  0
   -4.6077  -33.4584  -17.4877 N   0  0  0  0  0  0  0  0  0  0  0  0
   -3.2837  -33.7058  -17.6351 C   0  0  0  0  0  0  0  0  0  0  0  0
   -2.7284  -33.7885  -18.9948 C   0  0  0  0  0  0  0  0  0  0  0  0
   -3.6667  -33.5931  -20.1252 C   0  0  0  0  0  0  0  0  0  0  0  0
   -3.2374  -33.6528  -21.4098 N   0  0  0  0  0  0  0  0  0  0  0  0
   -1.4125  -34.0381  -18.8575 N   0  0  0  0  0  0  0  0  0  0  0  0
   -1.1487  -34.1094  -17.5273 C   0  0  0  0  0  0  0  0  0  0  0  0
   -2.2631  -33.9116  -16.7993 N   0  0  0  0  0  0  0  0  0  0  0  0
  1  3  1  1  0  0  0
  1  5  2  0  0  0  0
  1  9  1  0  0  0  0
  1 18  1  0  0  0  0
  2  4  1  6  0  0  0
  2  6  2  0  0  0  0
  2 10  1  0  0  0  0
  2 17  1  0  0  0  0
  7  9  1  0  0  0  0
  8 10  1  0  0  0  0
 11  7  1  6  0  0  0
 11 13  1  0  0  0  0
 11 15  1  0  0  0  0
 12  8  1  6  0  0  0
 12 14  1  0  0  0  0
 12 16  1  0  0  0  0
 13 21  1  0  0  0  0
 14 22  1  0  0  0  0
 15 17  1  1  0  0  0
 15 19  1  0  0  0  0
 16 18  1  1  0  0  0
 16 20  1  0  0  0  0
 19 21  1  0  0  0  0
 20 22  1  0  0  0  0
 21 32  1  6  0  0  0
 22 42  1  6  0  0  0
 23 24  2  0  0  0  0
 23 28  1  0  0  0  0
 24 25  1  0  0  0  0
 25 26  2  0  0  0  0
 26 27  1  0  0  0  0
 26 32  1  0  0  0  0
 27 28  2  0  0  0  0
 27 30  1  0  0  0  0
 28 29  1  0  0  0  0
 30 31  2  0  0  0  0
 31 32  1  0  0  0  0
 33 34  2  0  0  0  0
 33 38  1  0  0  0  0
 34 35  1  0  0  0  0
 35 36  2  0  0  0  0
 36 37  1  0  0  0  0
 36 42  1  0  0  0  0
 37 38  2  0  0  0  0
 37 40  1  0  0  0  0
 38 39  1  0  0  0  0
 40 41  2  0  0  0  0
 41 42  1  0  0  0  0
M  CHG  2   3  -1   4  -1
M  END
>  <CHROM.1>
-76.62662654,101.03175020,-7.25285810,-34.02390275,-15.24038507,-0.21631069
-0.22866486,1.76719527

>  <Name>
ligand

>  <RI>
0

>  <Rbt.Current_Directory>
/home/itssahil/PROJECTS/Mol_Feturizer/New_Systems/rnas/4QLN

>  <Rbt.Executable>
rbdock ($Id: //depot/dev/client3/rdock/2013.1/src/exe/rbdock.cxx#4 $)

>  <Rbt.Library>
libRbt.so (2013.1, Build901 2013/11/27)

>  <Rbt.Parameter_File>
/export/apps/rDock/src/rDock_2013.1_src/data/scripts/dock_solv.prm

>  <Rbt.Receptor>
prm/blind_docking_80.prm

>  <SCORE>
157.707

>  <SCORE.INTER>
150.483

>  <SCORE.INTER.CONST>
1

>  <SCORE.INTER.POLAR>
0

>  <SCORE.INTER.ROT>
2

>  <SCORE.INTER.SOLV>
59.1223

>  <SCORE.INTER.VDW>
75.6812

>  <SCORE.INTER.norm>
3.58293

>  <SCORE.INTRA>
2.48228

>  <SCORE.INTRA.DIHEDRAL>
0.000579994

>  <SCORE.INTRA.DIHEDRAL.0>
2.39985

>  <SCORE.INTRA.POLAR>
0

>  <SCORE.INTRA.POLAR.0>
0

>  <SCORE.INTRA.REPUL>
0

>  <SCORE.INTRA.REPUL.0>
0

>  <SCORE.INTRA.SOLV>
0.394086

>  <SCORE.INTRA.SOLV.lig_0>
-110.958

>  <SCORE.INTRA.VDW>
2.28494

>  <SCORE.INTRA.VDW.0>
-2.34644

>  <SCORE.INTRA.norm>
0.0591018

>  <SCORE.RESTR>
4.74216

>  <SCORE.RESTR.CAVITY>
4.74216

>  <SCORE.RESTR.norm>
0.112909

>  <SCORE.SYSTEM>
0

>  <SCORE.SYSTEM.CONST>
0

>  <SCORE.SYSTEM.DIHEDRAL>
0

>  <SCORE.SYSTEM.SOLV>
0

>  <SCORE.SYSTEM.norm>
0

>  <SCORE.heavy>
42

>  <SCORE.norm>
3.75494

>  <RMSD>
14.144

$$$$
ligand
 OpenBabel11021811513D
libRbt.so/2013.1/901 2013/11/27
 42 48  0  0  0  0  0  0  0  0999 V2000
   -5.9036  -32.9677  -12.3737 P   0  0  2  0  0  0  0  0  0  0  0  0
   -6.8139  -36.7567  -15.5877 P   0  0  1  0  0  0  0  0  0  0  0  0
   -6.2118  -33.1682  -10.9082 O   0  5  0  0  0  0  0  0  0  0  0  0
   -6.6166  -35.5986  -16.5366 O   0  5  0  0  0  0  0  0  0  0  0  0
   -5.6654  -31.5763  -12.9095 O   0  0  0  0  0  0  0  0  0  0  0  0
   -6.8381  -38.1701  -16.1178 O   0  0  0  0  0  0  0  0  0  0  0  0
   -8.4244  -33.6499  -12.7439 C   0  0  0  0  0  0  0  0  0  0  0  0
   -4.3032  -36.7182  -14.7825 C   0  0  0  0  0  0  0  0  0  0  0  0
   -7.0846  -33.6437  -13.2336 O   0  0  0  0  0  0  0  0  0  0  0  0
   -5.6866  -36.6670  -14.4415 O   0  0  0  0  0  0  0  0  0  0  0  0
   -9.1481  -34.8876  -13.2607 C   0  0  1  0  0  0  0  0  0  0  0  0
   -3.5684  -35.5665  -14.1082 C   0  0  1  0  0  0  0  0  0  0  0  0
  -10.5605  -34.6635  -13.2412 O   0  0  0  0  0  0  0  0  0  0  0  0
   -2.3666  -35.2751  -14.8255 O   0  0  0  0  0  0  0  0  0  0  0  0
   -8.7468  -35.2030  -14.6917 C   0  0  1  0  0  0  0  0  0  0  0  0
   -4.4168  -34.3049  -14.0913 C   0  0  1  0  0  0  0  0  0  0  0  0
   -8.1744  -36.5053  -14.7631 O   0  0  0  0  0  0  0  0  0  0  0  0
   -4.6301  -33.8777  -12.7493 O   0  0  0  0  0  0  0  0  0  0  0  0
  -10.0193  -35.1485  -15.5165 C   0  0  0  0  0  0  0  0  0  0  0  0
   -3.6362  -33.2522  -14.8543 C   0  0  0  0  0  0  0  0  0  0  0  0
  -11.1357  -34.7993  -14.5435 C   0  0  2  0  0  0  0  0  0  0  0  0
   -2.3458  -33.9261  -15.2986 C   0  0  2  0  0  0  0  0  0  0  0  0
  -15.2538  -31.5905  -13.9747 N   0  0  0  0  0  0  0  0  0  0  0  0
  -14.9930  -32.7782  -13.3980 C   0  0  0  0  0  0  0  0  0  0  0  0
  -13.8833  -33.4997  -13.6411 N   0  0  0  0  0  0  0  0  0  0  0  0
  -12.9401  -33.0545  -14.5054 C   0  0  0  0  0  0  0  0  0  0  0  0
  -13.1524  -31.7625  -15.1765 C   0  0  0  0  0  0  0  0  0  0  0  0
  -14.3992  -31.0270  -14.8577 C   0  0  0  0  0  0  0  0  0  0  0  0
  -14.6725  -29.8302  -15.4310 N   0  0  0  0  0  0  0  0  0  0  0  0
  -12.0826  -31.5607  -15.9683 N   0  0  0  0  0  0  0  0  0  0  0  0
  -11.2575  -32.6284  -15.8186 C   0  0  0  0  0  0  0  0  0  0  0  0
  -11.7683  -33.5188  -14.9464 N   0  0  0  0  0  0  0  0  0  0  0  0
   -4.9528  -33.3564  -19.8210 N   0  0  0  0  0  0  0  0  0  0  0  0
   -5.3944  -33.2938  -18.5511 C   0  0  0  0  0  0  0  0  0  0  0  0
   -4.6040  -33.4617  -17.4757 N   0  0  0  0  0  0  0  0  0  0  0  0
   -3.2798  -33.7103  -17.6195 C   0  0  0  0  0  0  0  0  0  0  0  0
   -2.7208  -33.7934  -18.9777 C   0  0  0  0  0  0  0  0  0  0  0  0
   -3.6558  -33.5969  -20.1106 C   0  0  0  0  0  0  0  0  0  0  0  0
   -3.2230  -33.6569  -21.3940 N   0  0  0  0  0  0  0  0  0  0  0  0
   -1.4055  -34.0442  -18.8367 N   0  0  0  0  0  0  0  0  0  0  0  0
   -1.1455  -34.1159  -17.5059 C   0  0  0  0  0  0  0  0  0  0  0  0
   -2.2616  -33.9172  -16.7808 N   0  0  0  0  0  0  0  0  0  0  0  0
  1  3  1  1  0  0  0
  1  5  2  0  0  0  0
  1  9  1  0  0  0  0
  1 18  1  0  0  0  0
  2  4  1  6  0  0  0
  2  6  2  0  0  0  0
  2 10  1  0  0  0  0
  2 17  1  0  0  0  0
  7  9  1  0  0  0  0
  8 10  1  0  0  0  0
 11  7  1  6  0  0  0
 11 13  1  0  0  0  0
 11 15  1  0  0  0  0
 12  8  1  6  0  0  0
 12 14  1  0  0  0  0
 12 16  1  0  0  0  0
 13 21  1  0  0  0  0
 14 22  1  0  0  0  0
 15 17  1  1  0  0  0
 15 19  1  0  0  0  0
 16 18  1  1  0  0  0
 16 20  1  0  0  0  0
 19 21  1  0  0  0  0
 20 22  1  0  0  0  0
 21 32  1  6  0  0  0
 22 42  1  6  0  0  0
 23 24  2  0  0  0  0
 23 28  1  0  0  0  0
 24 25  1  0  0  0  0
 25 26  2  0  0  0  0
 26 27  1  0  0  0  0
 26 32  1  0  0  0  0
 27 28  2  0  0  0  0
 27 30  1  0  0  0  0
 28 29  1  0  0  0  0
 30 31  2  0  0  0  0
 31 32  1  0  0  0  0
 33 34  2  0  0  0  0
 33 38  1  0  0  0  0
 34 35  1  0  0  0  0
 35 36  2  0  0  0  0
 36 37  1  0  0  0  0
 36 42  1  0  0  0  0
 37 38  2  0  0  0  0
 37 40  1  0  0  0  0
 38 39  1  0  0  0  0
 40 41  2  0  0  0  0
 41 42  1  0  0  0  0
M  CHG  2   3  -1   4  -1
M  END
>  <CHROM.1>
-76.55853538,101.01825025,-7.25570324,-34.02376394,-15.23552037,-0.21344645
-0.22936971,1.76792502

>  <Name>
ligand

>  <RI>
0

>  <Rbt.Current_Directory>
/home/itssahil/PROJECTS/Mol_Feturizer/New_Systems/rnas/4QLN

>  <Rbt.Executable>
rbdock ($Id: //depot/dev/client3/rdock/2013.1/src/exe/rbdock.cxx#4 $)

>  <Rbt.Library>
libRbt.so (2013.1, Build901 2013/11/27)

>  <Rbt.Parameter_File>
/export/apps/rDock/src/rDock_2013.1_src/data/scripts/dock_solv.prm

>  <Rbt.Receptor>
prm/blind_docking_80.prm

>  <SCORE>
157.773

>  <SCORE.INTER>
150.566

>  <SCORE.INTER.CONST>
1

>  <SCORE.INTER.POLAR>
0

>  <SCORE.INTER.ROT>
2

>  <SCORE.INTER.SOLV>
59.1432

>  <SCORE.INTER.VDW>
75.7298

>  <SCORE.INTER.norm>
3.58491

>  <SCORE.INTRA>
2.48277

>  <SCORE.INTRA.DIHEDRAL>
0.000580887

>  <SCORE.INTRA.DIHEDRAL.0>
2.39985

>  <SCORE.INTRA.POLAR>
0

>  <SCORE.INTRA.POLAR.0>
0

>  <SCORE.INTRA.REPUL>
0

>  <SCORE.INTRA.REPUL.0>
0

>  <SCORE.INTRA.SOLV>
0.394458

>  <SCORE.INTRA.SOLV.lig_0>
-110.958

>  <SCORE.INTRA.VDW>
2.28525

>  <SCORE.INTRA.VDW.0>
-2.34644

>  <SCORE.INTRA.norm>
0.0591136

>  <SCORE.RESTR>
4.72384

>  <SCORE.RESTR.CAVITY>
4.72384

>  <SCORE.RESTR.norm>
0.112472

>  <SCORE.SYSTEM>
0

>  <SCORE.SYSTEM.CONST>
0

>  <SCORE.SYSTEM.DIHEDRAL>
0

>  <SCORE.SYSTEM.SOLV>
0

>  <SCORE.SYSTEM.norm>
0

>  <SCORE.heavy>
42

>  <SCORE.norm>
3.7565

>  <RMSD>
14.145

$$$$
ligand
 OpenBabel11021811513D
libRbt.so/2013.1/901 2013/11/27
 42 48  0  0  0  0  0  0  0  0999 V2000
   -5.9015  -32.9660  -12.3733 P   0  0  2  0  0  0  0  0  0  0  0  0
   -6.8170  -36.7544  -15.5865 P   0  0  1  0  0  0  0  0  0  0  0  0
   -6.2079  -33.1666  -10.9074 O   0  5  0  0  0  0  0  0  0  0  0  0
   -6.6205  -35.5964  -16.5355 O   0  5  0  0  0  0  0  0  0  0  0  0
   -5.6636  -31.5746  -12.9093 O   0  0  0  0  0  0  0  0  0  0  0  0
   -6.8422  -38.1678  -16.1167 O   0  0  0  0  0  0  0  0  0  0  0  0
   -8.4230  -33.6475  -12.7404 C   0  0  0  0  0  0  0  0  0  0  0  0
   -4.3052  -36.7167  -14.7846 C   0  0  0  0  0  0  0  0  0  0  0  0
   -7.0837  -33.6416  -13.2317 O   0  0  0  0  0  0  0  0  0  0  0  0
   -5.6882  -36.6652  -14.4418 O   0  0  0  0  0  0  0  0  0  0  0  0
   -9.1476  -34.8849  -13.2563 C   0  0  1  0  0  0  0  0  0  0  0  0
   -3.5692  -35.5653  -14.1110 C   0  0  1  0  0  0  0  0  0  0  0  0
  -10.5600  -34.6605  -13.2351 O   0  0  0  0  0  0  0  0  0  0  0  0
   -2.3682  -35.2742  -14.8298 O   0  0  0  0  0  0  0  0  0  0  0  0
   -8.7483  -35.2003  -14.6880 C   0  0  1  0  0  0  0  0  0  0  0  0
   -4.4173  -34.3035  -14.0930 C   0  0  1  0  0  0  0  0  0  0  0  0
   -8.1763  -36.5028  -14.7602 O   0  0  0  0  0  0  0  0  0  0  0  0
   -4.6287  -33.8763  -12.7506 O   0  0  0  0  0  0  0  0  0  0  0  0
  -10.0218  -35.1453  -15.5110 C   0  0  0  0  0  0  0  0  0  0  0  0
   -3.6373  -33.2509  -14.8568 C   0  0  0  0  0  0  0  0  0  0  0  0
  -11.1369  -34.7960  -14.5366 C   0  0  2  0  0  0  0  0  0  0  0  0
   -2.3477  -33.9251  -15.3029 C   0  0  2  0  0  0  0  0  0  0  0  0
  -15.2577  -31.5905  -13.9692 N   0  0  0  0  0  0  0  0  0  0  0  0
  -14.9971  -32.7789  -13.3939 C   0  0  0  0  0  0  0  0  0  0  0  0
  -13.8866  -33.4993  -13.6364 N   0  0  0  0  0  0  0  0  0  0  0  0
  -12.9423  -33.0523  -14.4986 C   0  0  0  0  0  0  0  0  0  0  0  0
  -13.1545  -31.7594  -15.1681 C   0  0  0  0  0  0  0  0  0  0  0  0
  -14.4021  -31.0251  -14.8501 C   0  0  0  0  0  0  0  0  0  0  0  0
  -14.6753  -29.8277  -15.4221 N   0  0  0  0  0  0  0  0  0  0  0  0
  -12.0836  -31.5559  -15.9581 N   0  0  0  0  0  0  0  0  0  0  0  0
  -11.2580  -32.6233  -15.8087 C   0  0  0  0  0  0  0  0  0  0  0  0
  -11.7696  -33.5152  -14.9386 N   0  0  0  0  0  0  0  0  0  0  0  0
   -4.9552  -33.3279  -19.8214 N   0  0  0  0  0  0  0  0  0  0  0  0
   -5.3945  -33.2618  -18.5509 C   0  0  0  0  0  0  0  0  0  0  0  0
   -4.6043  -33.4379  -17.4766 N   0  0  0  0  0  0  0  0  0  0  0  0
   -3.2827  -33.6989  -17.6223 C   0  0  0  0  0  0  0  0  0  0  0  0
   -2.7263  -33.7865  -18.9813 C   0  0  0  0  0  0  0  0  0  0  0  0
   -3.6609  -33.5805  -20.1128 C   0  0  0  0  0  0  0  0  0  0  0  0
   -3.2304  -33.6437  -21.3969 N   0  0  0  0  0  0  0  0  0  0  0  0
   -1.4133  -34.0499  -18.8422 N   0  0  0  0  0  0  0  0  0  0  0  0
   -1.1521  -34.1249  -17.5118 C   0  0  0  0  0  0  0  0  0  0  0  0
   -2.2654  -33.9160  -16.7852 N   0  0  0  0  0  0  0  0  0  0  0  0
  1  3  1  1  0  0  0
  1  5  2  0  0  0  0
  1  9  1  0  0  0  0
  1 18  1  0  0  0  0
  2  4  1  6  0  0  0
  2  6  2  0  0  0  0
  2 10  1  0  0  0  0
  2 17  1  0  0  0  0
  7  9  1  0  0  0  0
  8 10  1  0  0  0  0
 11  7  1  6  0  0  0
 11 13  1  0  0  0  0
 11 15  1  0  0  0  0
 12  8  1  6  0  0  0
 12 14  1  0  0  0  0
 12 16  1  0  0  0  0
 13 21  1  0  0  0  0
 14 22  1  0  0  0  0
 15 17  1  1  0  0  0
 15 19  1  0  0  0  0
 16 18  1  1  0  0  0
 16 20  1  0  0  0  0
 19 21  1  0  0  0  0
 20 22  1  0  0  0  0
 21 32  1  6  0  0  0
 22 42  1  6  0  0  0
 23 24  2  0  0  0  0
 23 28  1  0  0  0  0
 24 25  1  0  0  0  0
 25 26  2  0  0  0  0
 26 27  1  0  0  0  0
 26 32  1  0  0  0  0
 27 28  2  0  0  0  0
 27 30  1  0  0  0  0
 28 29  1  0  0  0  0
 30 31  2  0  0  0  0
 31 32  1  0  0  0  0
 33 34  2  0  0  0  0
 33 38  1  0  0  0  0
 34 35  1  0  0  0  0
 35 36  2  0  0  0  0
 36 37  1  0  0  0  0
 36 42  1  0  0  0  0
 37 38  2  0  0  0  0
 37 40  1  0  0  0  0
 38 39  1  0  0  0  0
 40 41  2  0  0  0  0
 41 42  1  0  0  0  0
M  CHG  2   3  -1   4  -1
M  END
>  <CHROM.1>
-76.74107248,101.54745086,-7.25748561,-34.01961746,-15.23403682,-0.21348464
-0.23000574,1.77190475

>  <Name>
ligand

>  <RI>
0

>  <Rbt.Current_Directory>
/home/itssahil/PROJECTS/Mol_Feturizer/New_Systems/rnas/4QLN

>  <Rbt.Executable>
rbdock ($Id: //depot/dev/client3/rdock/2013.1/src/exe/rbdock.cxx#4 $)

>  <Rbt.Library>
libRbt.so (2013.1, Build901 2013/11/27)

>  <Rbt.Parameter_File>
/export/apps/rDock/src/rDock_2013.1_src/data/scripts/dock_solv.prm

>  <Rbt.Receptor>
prm/blind_docking_80.prm

>  <SCORE>
157.79

>  <SCORE.INTER>
150.561

>  <SCORE.INTER.CONST>
1

>  <SCORE.INTER.POLAR>
0

>  <SCORE.INTER.ROT>
2

>  <SCORE.INTER.SOLV>
59.0822

>  <SCORE.INTER.VDW>
75.7469

>  <SCORE.INTER.norm>
3.5848

>  <SCORE.INTRA>
2.50516

>  <SCORE.INTRA.DIHEDRAL>
0.000567676

>  <SCORE.INTRA.DIHEDRAL.0>
2.39985

>  <SCORE.INTRA.POLAR>
0

>  <SCORE.INTRA.POLAR.0>
0

>  <SCORE.INTRA.REPUL>
0

>  <SCORE.INTRA.REPUL.0>
0

>  <SCORE.INTRA.SOLV>
0.381698

>  <SCORE.INTRA.SOLV.lig_0>
-110.958

>  <SCORE.INTRA.VDW>
2.31403

>  <SCORE.INTRA.VDW.0>
-2.34644

>  <SCORE.INTRA.norm>
0.0596466

>  <SCORE.RESTR>
4.72312

>  <SCORE.RESTR.CAVITY>
4.72312

>  <SCORE.RESTR.norm>
0.112455

>  <SCORE.SYSTEM>
0

>  <SCORE.SYSTEM.CONST>
0

>  <SCORE.SYSTEM.DIHEDRAL>
0

>  <SCORE.SYSTEM.SOLV>
0

>  <SCORE.SYSTEM.norm>
0

>  <SCORE.heavy>
42

>  <SCORE.norm>
3.7569

>  <RMSD>
14.146

$$$$
ligand
 OpenBabel11021811513D
libRbt.so/2013.1/901 2013/11/27
 42 48  0  0  0  0  0  0  0  0999 V2000
   -5.8980  -32.9695  -12.3778 P   0  0  2  0  0  0  0  0  0  0  0  0
   -6.8111  -36.7588  -15.5905 P   0  0  1  0  0  0  0  0  0  0  0  0
   -6.2028  -33.1707  -10.9117 O   0  5  0  0  0  0  0  0  0  0  0  0
   -6.6172  -35.6004  -16.5396 O   0  5  0  0  0  0  0  0  0  0  0  0
   -5.6626  -31.5776  -12.9138 O   0  0  0  0  0  0  0  0  0  0  0  0
   -6.8348  -38.1722  -16.1208 O   0  0  0  0  0  0  0  0  0  0  0  0
   -8.4189  -33.6545  -12.7426 C   0  0  0  0  0  0  0  0  0  0  0  0
   -4.2987  -36.7176  -14.7909 C   0  0  0  0  0  0  0  0  0  0  0  0
   -7.0801  -33.6466  -13.2352 O   0  0  0  0  0  0  0  0  0  0  0  0
   -5.6814  -36.6681  -14.4469 O   0  0  0  0  0  0  0  0  0  0  0  0
   -9.1423  -34.8929  -13.2580 C   0  0  1  0  0  0  0  0  0  0  0  0
   -3.5637  -35.5652  -14.1179 C   0  0  1  0  0  0  0  0  0  0  0  0
  -10.5549  -34.6705  -13.2354 O   0  0  0  0  0  0  0  0  0  0  0  0
   -2.3638  -35.2723  -14.8378 O   0  0  0  0  0  0  0  0  0  0  0  0
   -8.7438  -35.2075  -14.6900 C   0  0  1  0  0  0  0  0  0  0  0  0
   -4.4135  -34.3046  -14.0990 C   0  0  1  0  0  0  0  0  0  0  0  0
   -8.1700  -36.5092  -14.7629 O   0  0  0  0  0  0  0  0  0  0  0  0
   -4.6243  -33.8779  -12.7563 O   0  0  0  0  0  0  0  0  0  0  0  0
  -10.0182  -35.1543  -15.5119 C   0  0  0  0  0  0  0  0  0  0  0  0
   -3.6358  -33.2508  -14.8634 C   0  0  0  0  0  0  0  0  0  0  0  0
  -11.1328  -34.8067  -14.5364 C   0  0  2  0  0  0  0  0  0  0  0  0
   -2.3456  -33.9232  -15.3107 C   0  0  2  0  0  0  0  0  0  0  0  0
  -15.2588  -31.6082  -13.9667 N   0  0  0  0  0  0  0  0  0  0  0  0
  -14.9961  -32.7965  -13.3920 C   0  0  0  0  0  0  0  0  0  0  0  0
  -13.8845  -33.5150  -13.6350 N   0  0  0  0  0  0  0  0  0  0  0  0
  -12.9411  -33.0660  -14.4972 C   0  0  0  0  0  0  0  0  0  0  0  0
  -13.1556  -31.7732  -15.1661 C   0  0  0  0  0  0  0  0  0  0  0  0
  -14.4044  -31.0411  -14.8475 C   0  0  0  0  0  0  0  0  0  0  0  0
  -14.6796  -29.8438  -15.4189 N   0  0  0  0  0  0  0  0  0  0  0  0
  -12.0851  -31.5675  -15.9562 N   0  0  0  0  0  0  0  0  0  0  0  0
  -11.2579  -32.6336  -15.8074 C   0  0  0  0  0  0  0  0  0  0  0  0
  -11.7678  -33.5268  -14.9377 N   0  0  0  0  0  0  0  0  0  0  0  0
   -4.9633  -33.3561  -19.8272 N   0  0  0  0  0  0  0  0  0  0  0  0
   -5.4023  -33.2943  -18.5564 C   0  0  0  0  0  0  0  0  0  0  0  0
   -4.6092  -33.4613  -17.4827 N   0  0  0  0  0  0  0  0  0  0  0  0
   -3.2850  -33.7081  -17.6295 C   0  0  0  0  0  0  0  0  0  0  0  0
   -2.7289  -33.7902  -18.9889 C   0  0  0  0  0  0  0  0  0  0  0  0
   -3.6667  -33.5948  -20.1197 C   0  0  0  0  0  0  0  0  0  0  0  0
   -3.2366  -33.6539  -21.4041 N   0  0  0  0  0  0  0  0  0  0  0  0
   -1.4130  -34.0393  -18.8509 N   0  0  0  0  0  0  0  0  0  0  0  0
   -1.1499  -34.1109  -17.5206 C   0  0  0  0  0  0  0  0  0  0  0  0
   -2.2647  -33.9138  -16.7931 N   0  0  0  0  0  0  0  0  0  0  0  0
  1  3  1  1  0  0  0
  1  5  2  0  0  0  0
  1  9  1  0  0  0  0
  1 18  1  0  0  0  0
  2  4  1  6  0  0  0
  2  6  2  0  0  0  0
  2 10  1  0  0  0  0
  2 17  1  0  0  0  0
  7  9  1  0  0  0  0
  8 10  1  0  0  0  0
 11  7  1  6  0  0  0
 11 13  1  0  0  0  0
 11 15  1  0  0  0  0
 12  8  1  6  0  0  0
 12 14  1  0  0  0  0
 12 16  1  0  0  0  0
 13 21  1  0  0  0  0
 14 22  1  0  0  0  0
 15 17  1  1  0  0  0
 15 19  1  0  0  0  0
 16 18  1  1  0  0  0
 16 20  1  0  0  0  0
 19 21  1  0  0  0  0
 20 22  1  0  0  0  0
 21 32  1  6  0  0  0
 22 42  1  6  0  0  0
 23 24  2  0  0  0  0
 23 28  1  0  0  0  0
 24 25  1  0  0  0  0
 25 26  2  0  0  0  0
 26 27  1  0  0  0  0
 26 32  1  0  0  0  0
 27 28  2  0  0  0  0
 27 30  1  0  0  0  0
 28 29  1  0  0  0  0
 30 31  2  0  0  0  0
 31 32  1  0  0  0  0
 33 34  2  0  0  0  0
 33 38  1  0  0  0  0
 34 35  1  0  0  0  0
 35 36  2  0  0  0  0
 36 37  1  0  0  0  0
 36 42  1  0  0  0  0
 37 38  2  0  0  0  0
 37 40  1  0  0  0  0
 38 39  1  0  0  0  0
 40 41  2  0  0  0  0
 41 42  1  0  0  0  0
M  CHG  2   3  -1   4  -1
M  END
>  <CHROM.1>
-76.78917172,101.00795663,-7.25571684,-34.02700834,-15.23755115,-0.21549597
-0.22827830,1.76743794

>  <Name>
ligand

>  <RI>
0

>  <Rbt.Current_Directory>
/home/itssahil/PROJECTS/Mol_Feturizer/New_Systems/rnas/4QLN

>  <Rbt.Executable>
rbdock ($Id: //depot/dev/client3/rdock/2013.1/src/exe/rbdock.cxx#4 $)

>  <Rbt.Library>
libRbt.so (2013.1, Build901 2013/11/27)

>  <Rbt.Parameter_File>
/export/apps/rDock/src/rDock_2013.1_src/data/scripts/dock_solv.prm

>  <Rbt.Receptor>
prm/blind_docking_80.prm

>  <SCORE>
157.601

>  <SCORE.INTER>
150.362

>  <SCORE.INTER.CONST>
1

>  <SCORE.INTER.POLAR>
0

>  <SCORE.INTER.ROT>
2

>  <SCORE.INTER.SOLV>
59.0825

>  <SCORE.INTER.VDW>
75.6137

>  <SCORE.INTER.norm>
3.58004

>  <SCORE.INTRA>
2.47839

>  <SCORE.INTRA.DIHEDRAL>
0.000579078

>  <SCORE.INTRA.DIHEDRAL.0>
2.39985

>  <SCORE.INTRA.POLAR>
0

>  <SCORE.INTRA.POLAR.0>
0

>  <SCORE.INTRA.REPUL>
0

>  <SCORE.INTRA.REPUL.0>
0

>  <SCORE.INTRA.SOLV>
0.394535

>  <SCORE.INTRA.SOLV.lig_0>
-110.958

>  <SCORE.INTRA.VDW>
2.28084

>  <SCORE.INTRA.VDW.0>
-2.34644

>  <SCORE.INTRA.norm>
0.0590093

>  <SCORE.RESTR>
4.76036

>  <SCORE.RESTR.CAVITY>
4.76036

>  <SCORE.RESTR.norm>
0.113342

>  <SCORE.SYSTEM>
0

>  <SCORE.SYSTEM.CONST>
0

>  <SCORE.SYSTEM.DIHEDRAL>
0

>  <SCORE.SYSTEM.SOLV>
0

>  <SCORE.SYSTEM.norm>
0

>  <SCORE.heavy>
42

>  <SCORE.norm>
3.7524

>  <RMSD>
14.146

$$$$
ligand
 OpenBabel11021811513D
libRbt.so/2013.1/901 2013/11/27
 42 48  0  0  0  0  0  0  0  0999 V2000
   -5.8973  -32.9627  -12.3807 P   0  0  2  0  0  0  0  0  0  0  0  0
   -6.8105  -36.7571  -15.5873 P   0  0  1  0  0  0  0  0  0  0  0  0
   -6.2020  -33.1615  -10.9142 O   0  5  0  0  0  0  0  0  0  0  0  0
   -6.6165  -35.6002  -16.5382 O   0  5  0  0  0  0  0  0  0  0  0  0
   -5.6618  -31.5717  -12.9189 O   0  0  0  0  0  0  0  0  0  0  0  0
   -6.8342  -38.1714  -16.1153 O   0  0  0  0  0  0  0  0  0  0  0  0
   -8.4181  -33.6481  -12.7443 C   0  0  0  0  0  0  0  0  0  0  0  0
   -4.2980  -36.7147  -14.7877 C   0  0  0  0  0  0  0  0  0  0  0  0
   -7.0794  -33.6411  -13.2369 O   0  0  0  0  0  0  0  0  0  0  0  0
   -5.6807  -36.6646  -14.4437 O   0  0  0  0  0  0  0  0  0  0  0  0
   -9.1415  -34.8874  -13.2577 C   0  0  1  0  0  0  0  0  0  0  0  0
   -3.5630  -35.5613  -14.1166 C   0  0  1  0  0  0  0  0  0  0  0  0
  -10.5542  -34.6649  -13.2355 O   0  0  0  0  0  0  0  0  0  0  0  0
   -2.3631  -35.2696  -14.8370 O   0  0  0  0  0  0  0  0  0  0  0  0
   -8.7431  -35.2043  -14.6892 C   0  0  1  0  0  0  0  0  0  0  0  0
   -4.4128  -34.3006  -14.0997 C   0  0  1  0  0  0  0  0  0  0  0  0
   -8.1694  -36.5061  -14.7600 O   0  0  0  0  0  0  0  0  0  0  0  0
   -4.6236  -33.8718  -12.7577 O   0  0  0  0  0  0  0  0  0  0  0  0
  -10.0175  -35.1524  -15.5112 C   0  0  0  0  0  0  0  0  0  0  0  0
   -3.6350  -33.2481  -14.8658 C   0  0  0  0  0  0  0  0  0  0  0  0
  -11.1321  -34.8031  -14.5363 C   0  0  2  0  0  0  0  0  0  0  0  0
   -2.3449  -33.9212  -15.3121 C   0  0  2  0  0  0  0  0  0  0  0  0
  -15.2574  -31.6031  -13.9709 N   0  0  0  0  0  0  0  0  0  0  0  0
  -14.9947  -32.7904  -13.3941 C   0  0  0  0  0  0  0  0  0  0  0  0
  -13.8833  -33.5095  -13.6363 N   0  0  0  0  0  0  0  0  0  0  0  0
  -12.9402  -33.0621  -14.4996 C   0  0  0  0  0  0  0  0  0  0  0  0
  -13.1546  -31.7705  -15.1707 C   0  0  0  0  0  0  0  0  0  0  0  0
  -14.4032  -31.0376  -14.8530 C   0  0  0  0  0  0  0  0  0  0  0  0
  -14.6785  -29.8414  -15.4264 N   0  0  0  0  0  0  0  0  0  0  0  0
  -12.0844  -31.5664  -15.9615 N   0  0  0  0  0  0  0  0  0  0  0  0
  -11.2572  -32.6323  -15.8111 C   0  0  0  0  0  0  0  0  0  0  0  0
  -11.7670  -33.5239  -14.9396 N   0  0  0  0  0  0  0  0  0  0  0  0
   -4.9630  -33.3638  -19.8295 N   0  0  0  0  0  0  0  0  0  0  0  0
   -5.4020  -33.3002  -18.5588 C   0  0  0  0  0  0  0  0  0  0  0  0
   -4.6088  -33.4648  -17.4848 N   0  0  0  0  0  0  0  0  0  0  0  0
   -3.2844  -33.7108  -17.6311 C   0  0  0  0  0  0  0  0  0  0  0  0
   -2.7283  -33.7947  -18.9904 C   0  0  0  0  0  0  0  0  0  0  0  0
   -3.6662  -33.6019  -20.1216 C   0  0  0  0  0  0  0  0  0  0  0  0
   -3.2361  -33.6628  -21.4058 N   0  0  0  0  0  0  0  0  0  0  0  0
   -1.4121  -34.0425  -18.8520 N   0  0  0  0  0  0  0  0  0  0  0  0
   -1.1490  -34.1116  -17.5216 C   0  0  0  0  0  0  0  0  0  0  0  0
   -2.2640  -33.9142  -16.7945 N   0  0  0  0  0  0  0  0  0  0  0  0
  1  3  1  1  0  0  0
  1  5  2  0  0  0  0
  1  9  1  0  0  0  0
  1 18  1  0  0  0  0
  2  4  1  6  0  0  0
  2  6  2  0  0  0  0
  2 10  1  0  0  0  0
  2 17  1  0  0  0  0
  7  9  1  0  0  0  0
  8 10  1  0  0  0  0
 11  7  1  6  0  0  0
 11 13  1  0  0  0  0
 11 15  1  0  0  0  0
 12  8  1  6  0  0  0
 12 14  1  0  0  0  0
 12 16  1  0  0  0  0
 13 21  1  0  0  0  0
 14 22  1  0  0  0  0
 15 17  1  1  0  0  0
 15 19  1  0  0  0  0
 16 18  1  1  0  0  0
 16 20  1  0  0  0  0
 19 21  1  0  0  0  0
 20 22  1  0  0  0  0
 21 32  1  6  0  0  0
 22 42  1  6  0  0  0
 23 24  2  0  0  0  0
 23 28  1  0  0  0  0
 24 25  1  0  0  0  0
 25 26  2  0  0  0  0
 26 27  1  0  0  0  0
 26 32  1  0  0  0  0
 27 28  2  0  0  0  0
 27 30  1  0  0  0  0
 28 29  1  0  0  0  0
 30 31  2  0  0  0  0
 31 32  1  0  0  0  0
 33 34  2  0  0  0  0
 33 38  1  0  0  0  0
 34 35  1  0  0  0  0
 35 36  2  0  0  0  0
 36 37  1  0  0  0  0
 36 42  1  0  0  0  0
 37 38  2  0  0  0  0
 37 40  1  0  0  0  0
 38 39  1  0  0  0  0
 40 41  2  0  0  0  0
 41 42  1  0  0  0  0
M  CHG  2   3  -1   4  -1
M  END
>  <CHROM.1>
-76.76736353,100.95869879,-7.25495612,-34.02488746,-15.23862226,-0.21560869
-0.22831024,1.76544245

>  <Name>
ligand

>  <RI>
0

>  <Rbt.Current_Directory>
/home/itssahil/PROJECTS/Mol_Feturizer/New_Systems/rnas/4QLN

>  <Rbt.Executable>
rbdock ($Id: //depot/dev/client3/rdock/2013.1/src/exe/rbdock.cxx#4 $)

>  <Rbt.Library>
libRbt.so (2013.1, Build901 2013/11/27)

>  <Rbt.Parameter_File>
/export/apps/rDock/src/rDock_2013.1_src/data/scripts/dock_solv.prm

>  <Rbt.Receptor>
prm/blind_docking_80.prm

>  <SCORE>
157.691

>  <SCORE.INTER>
150.483

>  <SCORE.INTER.CONST>
1

>  <SCORE.INTER.POLAR>
0

>  <SCORE.INTER.ROT>
2

>  <SCORE.INTER.SOLV>
59.1747

>  <SCORE.INTER.VDW>
75.6636

>  <SCORE.INTER.norm>
3.58292

>  <SCORE.INTRA>
2.4764

>  <SCORE.INTRA.DIHEDRAL>
0.000580323

>  <SCORE.INTRA.DIHEDRAL.0>
2.39985

>  <SCORE.INTRA.POLAR>
0

>  <SCORE.INTRA.POLAR.0>
0

>  <SCORE.INTRA.REPUL>
0

>  <SCORE.INTRA.REPUL.0>
0

>  <SCORE.INTRA.SOLV>
0.395726

>  <SCORE.INTRA.SOLV.lig_0>
-110.958

>  <SCORE.INTRA.VDW>
2.27824

>  <SCORE.INTRA.VDW.0>
-2.34644

>  <SCORE.INTRA.norm>
0.0589618

>  <SCORE.RESTR>
4.73147

>  <SCORE.RESTR.CAVITY>
4.73147

>  <SCORE.RESTR.norm>
0.112654

>  <SCORE.SYSTEM>
0

>  <SCORE.SYSTEM.CONST>
0

>  <SCORE.SYSTEM.DIHEDRAL>
0

>  <SCORE.SYSTEM.SOLV>
0

>  <SCORE.SYSTEM.norm>
0

>  <SCORE.heavy>
42

>  <SCORE.norm>
3.75454

>  <RMSD>
14.146

$$$$
ligand
 OpenBabel11021811513D
libRbt.so/2013.1/901 2013/11/27
 42 48  0  0  0  0  0  0  0  0999 V2000
   -5.8989  -32.9695  -12.3756 P   0  0  2  0  0  0  0  0  0  0  0  0
   -6.8126  -36.7568  -15.5906 P   0  0  1  0  0  0  0  0  0  0  0  0
   -6.2042  -33.1713  -10.9096 O   0  5  0  0  0  0  0  0  0  0  0  0
   -6.6178  -35.5979  -16.5390 O   0  5  0  0  0  0  0  0  0  0  0  0
   -5.6626  -31.5775  -12.9108 O   0  0  0  0  0  0  0  0  0  0  0  0
   -6.8367  -38.1699  -16.1217 O   0  0  0  0  0  0  0  0  0  0  0  0
   -8.4200  -33.6531  -12.7416 C   0  0  0  0  0  0  0  0  0  0  0  0
   -4.3004  -36.7171  -14.7901 C   0  0  0  0  0  0  0  0  0  0  0  0
   -7.0810  -33.6457  -13.2337 O   0  0  0  0  0  0  0  0  0  0  0  0
   -5.6832  -36.6672  -14.4465 O   0  0  0  0  0  0  0  0  0  0  0  0
   -9.1437  -34.8910  -13.2579 C   0  0  1  0  0  0  0  0  0  0  0  0
   -3.5652  -35.5655  -14.1162 C   0  0  1  0  0  0  0  0  0  0  0  0
  -10.5562  -34.6679  -13.2357 O   0  0  0  0  0  0  0  0  0  0  0  0
   -2.3649  -35.2727  -14.8355 O   0  0  0  0  0  0  0  0  0  0  0  0
   -8.7449  -35.2050  -14.6900 C   0  0  1  0  0  0  0  0  0  0  0  0
   -4.4144  -34.3045  -14.0969 C   0  0  1  0  0  0  0  0  0  0  0  0
   -8.1717  -36.5069  -14.7633 O   0  0  0  0  0  0  0  0  0  0  0  0
   -4.6255  -33.8784  -12.7541 O   0  0  0  0  0  0  0  0  0  0  0  0
  -10.0190  -35.1508  -15.5123 C   0  0  0  0  0  0  0  0  0  0  0  0
   -3.6359  -33.2506  -14.8605 C   0  0  0  0  0  0  0  0  0  0  0  0
  -11.1338  -34.8031  -14.5370 C   0  0  2  0  0  0  0  0  0  0  0  0
   -2.3459  -33.9234  -15.3077 C   0  0  2  0  0  0  0  0  0  0  0  0
  -15.2598  -31.6044  -13.9693 N   0  0  0  0  0  0  0  0  0  0  0  0
  -14.9981  -32.7932  -13.3954 C   0  0  0  0  0  0  0  0  0  0  0  0
  -13.8863  -33.5118  -13.6378 N   0  0  0  0  0  0  0  0  0  0  0  0
  -12.9418  -33.0621  -14.4984 C   0  0  0  0  0  0  0  0  0  0  0  0
  -13.1551  -31.7686  -15.1663 C   0  0  0  0  0  0  0  0  0  0  0  0
  -14.4042  -31.0366  -14.8485 C   0  0  0  0  0  0  0  0  0  0  0  0
  -14.6785  -29.8387  -15.4191 N   0  0  0  0  0  0  0  0  0  0  0  0
  -12.0837  -31.5624  -15.9549 N   0  0  0  0  0  0  0  0  0  0  0  0
  -11.2568  -32.6288  -15.8061 C   0  0  0  0  0  0  0  0  0  0  0  0
  -11.7680  -33.5227  -14.9378 N   0  0  0  0  0  0  0  0  0  0  0  0
   -4.9600  -33.3439  -19.8247 N   0  0  0  0  0  0  0  0  0  0  0  0
   -5.3992  -33.2814  -18.5540 C   0  0  0  0  0  0  0  0  0  0  0  0
   -4.6071  -33.4520  -17.4802 N   0  0  0  0  0  0  0  0  0  0  0  0
   -3.2837  -33.7034  -17.6266 C   0  0  0  0  0  0  0  0  0  0  0  0
   -2.7275  -33.7865  -18.9860 C   0  0  0  0  0  0  0  0  0  0  0  0
   -3.6641  -33.5869  -20.1169 C   0  0  0  0  0  0  0  0  0  0  0  0
   -3.2339  -33.6467  -21.4012 N   0  0  0  0  0  0  0  0  0  0  0  0
   -1.4125  -34.0404  -18.8477 N   0  0  0  0  0  0  0  0  0  0  0  0
   -1.1501  -34.1138  -17.5174 C   0  0  0  0  0  0  0  0  0  0  0  0
   -2.2645  -33.9133  -16.7901 N   0  0  0  0  0  0  0  0  0  0  0  0
  1  3  1  1  0  0  0
  1  5  2  0  0  0  0
  1  9  1  0  0  0  0
  1 18  1  0  0  0  0
  2  4  1  6  0  0  0
  2  6  2  0  0  0  0
  2 10  1  0  0  0  0
  2 17  1  0  0  0  0
  7  9  1  0  0  0  0
  8 10  1  0  0  0  0
 11  7  1  6  0  0  0
 11 13  1  0  0  0  0
 11 15  1  0  0  0  0
 12  8  1  6  0  0  0
 12 14  1  0  0  0  0
 12 16  1  0  0  0  0
 13 21  1  0  0  0  0
 14 22  1  0  0  0  0
 15 17  1  1  0  0  0
 15 19  1  0  0  0  0
 16 18  1  1  0  0  0
 16 20  1  0  0  0  0
 19 21  1  0  0  0  0
 20 22  1  0  0  0  0
 21 32  1  6  0  0  0
 22 42  1  6  0  0  0
 23 24  2  0  0  0  0
 23 28  1  0  0  0  0
 24 25  1  0  0  0  0
 25 26  2  0  0  0  0
 26 27  1  0  0  0  0
 26 32  1  0  0  0  0
 27 28  2  0  0  0  0
 27 30  1  0  0  0  0
 28 29  1  0  0  0  0
 30 31  2  0  0  0  0
 31 32  1  0  0  0  0
 33 34  2  0  0  0  0
 33 38  1  0  0  0  0
 34 35  1  0  0  0  0
 35 36  2  0  0  0  0
 36 37  1  0  0  0  0
 36 42  1  0  0  0  0
 37 38  2  0  0  0  0
 37 40  1  0  0  0  0
 38 39  1  0  0  0  0
 40 41  2  0  0  0  0
 41 42  1  0  0  0  0
M  CHG  2   3  -1   4  -1
M  END
>  <CHROM.1>
-76.84663828,101.18460788,-7.25602514,-34.02430364,-15.23653283,-0.21465030
-0.22871718,1.76945262

>  <Name>
ligand

>  <RI>
0

>  <Rbt.Current_Directory>
/home/itssahil/PROJECTS/Mol_Feturizer/New_Systems/rnas/4QLN

>  <Rbt.Executable>
rbdock ($Id: //depot/dev/client3/rdock/2013.1/src/exe/rbdock.cxx#4 $)

>  <Rbt.Library>
libRbt.so (2013.1, Build901 2013/11/27)

>  <Rbt.Parameter_File>
/export/apps/rDock/src/rDock_2013.1_src/data/scripts/dock_solv.prm

>  <Rbt.Receptor>
prm/blind_docking_80.prm

>  <SCORE>
157.705

>  <SCORE.INTER>
150.474

>  <SCORE.INTER.CONST>
1

>  <SCORE.INTER.POLAR>
0

>  <SCORE.INTER.ROT>
2

>  <SCORE.INTER.SOLV>
59.0512

>  <SCORE.INTER.VDW>
75.6986

>  <SCORE.INTER.norm>
3.5827

>  <SCORE.INTRA>
2.48591

>  <SCORE.INTRA.DIHEDRAL>
0.000574761

>  <SCORE.INTRA.DIHEDRAL.0>
2.39985

>  <SCORE.INTRA.POLAR>
0

>  <SCORE.INTRA.POLAR.0>
0

>  <SCORE.INTRA.REPUL>
0

>  <SCORE.INTRA.REPUL.0>
0

>  <SCORE.INTRA.SOLV>
0.390271

>  <SCORE.INTRA.SOLV.lig_0>
-110.958

>  <SCORE.INTRA.VDW>
2.29048

>  <SCORE.INTRA.VDW.0>
-2.34644

>  <SCORE.INTRA.norm>
0.0591882

>  <SCORE.RESTR>
4.746

>  <SCORE.RESTR.CAVITY>
4.746

>  <SCORE.RESTR.norm>
0.113

>  <SCORE.SYSTEM>
0

>  <SCORE.SYSTEM.CONST>
0

>  <SCORE.SYSTEM.DIHEDRAL>
0

>  <SCORE.SYSTEM.SOLV>
0

>  <SCORE.SYSTEM.norm>
0

>  <SCORE.heavy>
42

>  <SCORE.norm>
3.75489

>  <RMSD>
14.146

$$$$
ligand
 OpenBabel11021811513D
libRbt.so/2013.1/901 2013/11/27
 42 48  0  0  0  0  0  0  0  0999 V2000
   -5.8998  -32.9632  -12.3788 P   0  0  2  0  0  0  0  0  0  0  0  0
   -6.8171  -36.7549  -15.5875 P   0  0  1  0  0  0  0  0  0  0  0  0
   -6.2050  -33.1625  -10.9124 O   0  5  0  0  0  0  0  0  0  0  0  0
   -6.6217  -35.5977  -16.5379 O   0  5  0  0  0  0  0  0  0  0  0  0
   -5.6626  -31.5723  -12.9162 O   0  0  0  0  0  0  0  0  0  0  0  0
   -6.8425  -38.1688  -16.1164 O   0  0  0  0  0  0  0  0  0  0  0  0
   -8.4215  -33.6455  -12.7432 C   0  0  0  0  0  0  0  0  0  0  0  0
   -4.3047  -36.7159  -14.7876 C   0  0  0  0  0  0  0  0  0  0  0  0
   -7.0826  -33.6399  -13.2356 O   0  0  0  0  0  0  0  0  0  0  0  0
   -5.6874  -36.6644  -14.4438 O   0  0  0  0  0  0  0  0  0  0  0  0
   -9.1463  -34.8836  -13.2573 C   0  0  1  0  0  0  0  0  0  0  0  0
   -3.5684  -35.5637  -14.1158 C   0  0  1  0  0  0  0  0  0  0  0  0
  -10.5586  -34.6594  -13.2351 O   0  0  0  0  0  0  0  0  0  0  0  0
   -2.3681  -35.2731  -14.8358 O   0  0  0  0  0  0  0  0  0  0  0  0
   -8.7480  -35.2003  -14.6890 C   0  0  1  0  0  0  0  0  0  0  0  0
   -4.4167  -34.3020  -14.0983 C   0  0  1  0  0  0  0  0  0  0  0  0
   -8.1758  -36.5027  -14.7604 O   0  0  0  0  0  0  0  0  0  0  0  0
   -4.6272  -33.8737  -12.7561 O   0  0  0  0  0  0  0  0  0  0  0  0
  -10.0222  -35.1464  -15.5111 C   0  0  0  0  0  0  0  0  0  0  0  0
   -3.6376  -33.2500  -14.8638 C   0  0  0  0  0  0  0  0  0  0  0  0
  -11.1366  -34.7963  -14.5361 C   0  0  2  0  0  0  0  0  0  0  0  0
   -2.3482  -33.9245  -15.3102 C   0  0  2  0  0  0  0  0  0  0  0  0
  -15.2604  -31.5939  -13.9732 N   0  0  0  0  0  0  0  0  0  0  0  0
  -14.9996  -32.7821  -13.3976 C   0  0  0  0  0  0  0  0  0  0  0  0
  -13.8882  -33.5017  -13.6388 N   0  0  0  0  0  0  0  0  0  0  0  0
  -12.9434  -33.0540  -14.5001 C   0  0  0  0  0  0  0  0  0  0  0  0
  -13.1559  -31.7613  -15.1699 C   0  0  0  0  0  0  0  0  0  0  0  0
  -14.4044  -31.0280  -14.8532 C   0  0  0  0  0  0  0  0  0  0  0  0
  -14.6779  -29.8308  -15.4256 N   0  0  0  0  0  0  0  0  0  0  0  0
  -12.0843  -31.5570  -15.9588 N   0  0  0  0  0  0  0  0  0  0  0  0
  -11.2581  -32.6238  -15.8084 C   0  0  0  0  0  0  0  0  0  0  0  0
  -11.7699  -33.5161  -14.9388 N   0  0  0  0  0  0  0  0  0  0  0  0
   -4.9640  -33.3562  -19.8276 N   0  0  0  0  0  0  0  0  0  0  0  0
   -5.4030  -33.2921  -18.5569 C   0  0  0  0  0  0  0  0  0  0  0  0
   -4.6105  -33.4598  -17.4830 N   0  0  0  0  0  0  0  0  0  0  0  0
   -3.2868  -33.7097  -17.6292 C   0  0  0  0  0  0  0  0  0  0  0  0
   -2.7307  -33.7944  -18.9886 C   0  0  0  0  0  0  0  0  0  0  0  0
   -3.6679  -33.5980  -20.1197 C   0  0  0  0  0  0  0  0  0  0  0  0
   -3.2378  -33.6594  -21.4039 N   0  0  0  0  0  0  0  0  0  0  0  0
   -1.4153  -34.0463  -18.8501 N   0  0  0  0  0  0  0  0  0  0  0  0
   -1.1526  -34.1171  -17.5197 C   0  0  0  0  0  0  0  0  0  0  0  0
   -2.2671  -33.9168  -16.7926 N   0  0  0  0  0  0  0  0  0  0  0  0
  1  3  1  1  0  0  0
  1  5  2  0  0  0  0
  1  9  1  0  0  0  0
  1 18  1  0  0  0  0
  2  4  1  6  0  0  0
  2  6  2  0  0  0  0
  2 10  1  0  0  0  0
  2 17  1  0  0  0  0
  7  9  1  0  0  0  0
  8 10  1  0  0  0  0
 11  7  1  6  0  0  0
 11 13  1  0  0  0  0
 11 15  1  0  0  0  0
 12  8  1  6  0  0  0
 12 14  1  0  0  0  0
 12 16  1  0  0  0  0
 13 21  1  0  0  0  0
 14 22  1  0  0  0  0
 15 17  1  1  0  0  0
 15 19  1  0  0  0  0
 16 18  1  1  0  0  0
 16 20  1  0  0  0  0
 19 21  1  0  0  0  0
 20 22  1  0  0  0  0
 21 32  1  6  0  0  0
 22 42  1  6  0  0  0
 23 24  2  0  0  0  0
 23 28  1  0  0  0  0
 24 25  1  0  0  0  0
 25 26  2  0  0  0  0
 26 27  1  0  0  0  0
 26 32  1  0  0  0  0
 27 28  2  0  0  0  0
 27 30  1  0  0  0  0
 28 29  1  0  0  0  0
 30 31  2  0  0  0  0
 31 32  1  0  0  0  0
 33 34  2  0  0  0  0
 33 38  1  0  0  0  0
 34 35  1  0  0  0  0
 35 36  2  0  0  0  0
 36 37  1  0  0  0  0
 36 42  1  0  0  0  0
 37 38  2  0  0  0  0
 37 40  1  0  0  0  0
 38 39  1  0  0  0  0
 40 41  2  0  0  0  0
 41 42  1  0  0  0  0
M  CHG  2   3  -1   4  -1
M  END
>  <CHROM.1>
-76.86411018,101.06430812,-7.25851169,-34.02206709,-15.23778921,-0.21488574
-0.22938137,1.76688069

>  <Name>
ligand

>  <RI>
0

>  <Rbt.Current_Directory>
/home/itssahil/PROJECTS/Mol_Feturizer/New_Systems/rnas/4QLN

>  <Rbt.Executable>
rbdock ($Id: //depot/dev/client3/rdock/2013.1/src/exe/rbdock.cxx#4 $)

>  <Rbt.Library>
libRbt.so (2013.1, Build901 2013/11/27)

>  <Rbt.Parameter_File>
/export/apps/rDock/src/rDock_2013.1_src/data/scripts/dock_solv.prm

>  <Rbt.Receptor>
prm/blind_docking_80.prm

>  <SCORE>
157.777

>  <SCORE.INTER>
150.585

>  <SCORE.INTER.CONST>
1

>  <SCORE.INTER.POLAR>
0

>  <SCORE.INTER.ROT>
2

>  <SCORE.INTER.SOLV>
59.1963

>  <SCORE.INTER.VDW>
75.7249

>  <SCORE.INTER.norm>
3.58537

>  <SCORE.INTRA>
2.47983

>  <SCORE.INTRA.DIHEDRAL>
0.000577214

>  <SCORE.INTRA.DIHEDRAL.0>
2.39985

>  <SCORE.INTRA.POLAR>
0

>  <SCORE.INTRA.POLAR.0>
0

>  <SCORE.INTRA.REPUL>
0

>  <SCORE.INTRA.REPUL.0>
0

>  <SCORE.INTRA.SOLV>
0.393138

>  <SCORE.INTRA.SOLV.lig_0>
-110.958

>  <SCORE.INTRA.VDW>
2.28297

>  <SCORE.INTRA.VDW.0>
-2.34644

>  <SCORE.INTRA.norm>
0.0590436

>  <SCORE.RESTR>
4.71142

>  <SCORE.RESTR.CAVITY>
4.71142

>  <SCORE.RESTR.norm>
0.112177

>  <SCORE.SYSTEM>
0

>  <SCORE.SYSTEM.CONST>
0

>  <SCORE.SYSTEM.DIHEDRAL>
0

>  <SCORE.SYSTEM.SOLV>
0

>  <SCORE.SYSTEM.norm>
0

>  <SCORE.heavy>
42

>  <SCORE.norm>
3.75659

>  <RMSD>
14.149

$$$$
ligand
 OpenBabel11021811513D
libRbt.so/2013.1/901 2013/11/27
 42 48  0  0  0  0  0  0  0  0999 V2000
   -5.8986  -32.9653  -12.3818 P   0  0  2  0  0  0  0  0  0  0  0  0
   -6.8191  -36.7555  -15.5914 P   0  0  1  0  0  0  0  0  0  0  0  0
   -6.2025  -33.1651  -10.9153 O   0  5  0  0  0  0  0  0  0  0  0  0
   -6.6244  -35.5979  -16.5414 O   0  5  0  0  0  0  0  0  0  0  0  0
   -5.6617  -31.5741  -12.9189 O   0  0  0  0  0  0  0  0  0  0  0  0
   -6.8450  -38.1692  -16.1209 O   0  0  0  0  0  0  0  0  0  0  0  0
   -8.4207  -33.6472  -12.7443 C   0  0  0  0  0  0  0  0  0  0  0  0
   -4.3060  -36.7170  -14.7937 C   0  0  0  0  0  0  0  0  0  0  0  0
   -7.0822  -33.6414  -13.2379 O   0  0  0  0  0  0  0  0  0  0  0  0
   -5.6884  -36.6655  -14.4487 O   0  0  0  0  0  0  0  0  0  0  0  0
   -9.1461  -34.8850  -13.2584 C   0  0  1  0  0  0  0  0  0  0  0  0
   -3.5690  -35.5652  -14.1220 C   0  0  1  0  0  0  0  0  0  0  0  0
  -10.5584  -34.6607  -13.2348 O   0  0  0  0  0  0  0  0  0  0  0  0
   -2.3693  -35.2743  -14.8430 O   0  0  0  0  0  0  0  0  0  0  0  0
   -8.7490  -35.2010  -14.6905 C   0  0  1  0  0  0  0  0  0  0  0  0
   -4.4171  -34.3035  -14.1032 C   0  0  1  0  0  0  0  0  0  0  0  0
   -8.1771  -36.5035  -14.7629 O   0  0  0  0  0  0  0  0  0  0  0  0
   -4.6264  -33.8757  -12.7607 O   0  0  0  0  0  0  0  0  0  0  0  0
  -10.0240  -35.1467  -15.5114 C   0  0  0  0  0  0  0  0  0  0  0  0
   -3.6386  -33.2512  -14.8689 C   0  0  0  0  0  0  0  0  0  0  0  0
  -11.1374  -34.7969  -14.5353 C   0  0  2  0  0  0  0  0  0  0  0  0
   -2.3497  -33.9256  -15.3168 C   0  0  2  0  0  0  0  0  0  0  0  0
  -15.2624  -31.5963  -13.9705 N   0  0  0  0  0  0  0  0  0  0  0  0
  -15.0014  -32.7850  -13.3960 C   0  0  0  0  0  0  0  0  0  0  0  0
  -13.8898  -33.5041  -13.6376 N   0  0  0  0  0  0  0  0  0  0  0  0
  -12.9448  -33.0552  -14.4981 C   0  0  0  0  0  0  0  0  0  0  0  0
  -13.1574  -31.7619  -15.1667 C   0  0  0  0  0  0  0  0  0  0  0  0
  -14.4063  -31.0292  -14.8496 C   0  0  0  0  0  0  0  0  0  0  0  0
  -14.6799  -29.8315  -15.4208 N   0  0  0  0  0  0  0  0  0  0  0  0
  -12.0856  -31.5564  -15.9549 N   0  0  0  0  0  0  0  0  0  0  0  0
  -11.2592  -32.6231  -15.8054 C   0  0  0  0  0  0  0  0  0  0  0  0
  -11.7710  -33.5164  -14.9369 N   0  0  0  0  0  0  0  0  0  0  0  0
   -4.9678  -33.3465  -19.8315 N   0  0  0  0  0  0  0  0  0  0  0  0
   -5.4054  -33.2819  -18.5604 C   0  0  0  0  0  0  0  0  0  0  0  0
   -4.6125  -33.4526  -17.4872 N   0  0  0  0  0  0  0  0  0  0  0  0
   -3.2897  -33.7065  -17.6349 C   0  0  0  0  0  0  0  0  0  0  0  0
   -2.7351  -33.7921  -18.9947 C   0  0  0  0  0  0  0  0  0  0  0  0
   -3.6727  -33.5922  -20.1249 C   0  0  0  0  0  0  0  0  0  0  0  0
   -3.2440  -33.6541  -21.4096 N   0  0  0  0  0  0  0  0  0  0  0  0
   -1.4204  -34.0481  -18.8576 N   0  0  0  0  0  0  0  0  0  0  0  0
   -1.1567  -34.1205  -17.5275 C   0  0  0  0  0  0  0  0  0  0  0  0
   -2.2699  -33.9172  -16.7993 N   0  0  0  0  0  0  0  0  0  0  0  0
  1  3  1  1  0  0  0
  1  5  2  0  0  0  0
  1  9  1  0  0  0  0
  1 18  1  0  0  0  0
  2  4  1  6  0  0  0
  2  6  2  0  0  0  0
  2 10  1  0  0  0  0
  2 17  1  0  0  0  0
  7  9  1  0  0  0  0
  8 10  1  0  0  0  0
 11  7  1  6  0  0  0
 11 13  1  0  0  0  0
 11 15  1  0  0  0  0
 12  8  1  6  0  0  0
 12 14  1  0  0  0  0
 12 16  1  0  0  0  0
 13 21  1  0  0  0  0
 14 22  1  0  0  0  0
 15 17  1  1  0  0  0
 15 19  1  0  0  0  0
 16 18  1  1  0  0  0
 16 20  1  0  0  0  0
 19 21  1  0  0  0  0
 20 22  1  0  0  0  0
 21 32  1  6  0  0  0
 22 42  1  6  0  0  0
 23 24  2  0  0  0  0
 23 28  1  0  0  0  0
 24 25  1  0  0  0  0
 25 26  2  0  0  0  0
 26 27  1  0  0  0  0
 26 32  1  0  0  0  0
 27 28  2  0  0  0  0
 27 30  1  0  0  0  0
 28 29  1  0  0  0  0
 30 31  2  0  0  0  0
 31 32  1  0  0  0  0
 33 34  2  0  0  0  0
 33 38  1  0  0  0  0
 34 35  1  0  0  0  0
 35 36  2  0  0  0  0
 36 37  1  0  0  0  0
 36 42  1  0  0  0  0
 37 38  2  0  0  0  0
 37 40  1  0  0  0  0
 38 39  1  0  0  0  0
 40 41  2  0  0  0  0
 41 42  1  0  0  0  0
M  CHG  2   3  -1   4  -1
M  END
>  <CHROM.1>
-76.94434593,101.23540031,-7.25996144,-34.02218963,-15.24033982,-0.21533465
-0.22964905,1.76845884

>  <Name>
ligand

>  <RI>
0

>  <Rbt.Current_Directory>
/home/itssahil/PROJECTS/Mol_Feturizer/New_Systems/rnas/4QLN

>  <Rbt.Executable>
rbdock ($Id: //depot/dev/client3/rdock/2013.1/src/exe/rbdock.cxx#4 $)

>  <Rbt.Library>
libRbt.so (2013.1, Build901 2013/11/27)

>  <Rbt.Parameter_File>
/export/apps/rDock/src/rDock_2013.1_src/data/scripts/dock_solv.prm

>  <Rbt.Receptor>
prm/blind_docking_80.prm

>  <SCORE>
157.777

>  <SCORE.INTER>
150.573

>  <SCORE.INTER.CONST>
1

>  <SCORE.INTER.POLAR>
0

>  <SCORE.INTER.ROT>
2

>  <SCORE.INTER.SOLV>
59.1762

>  <SCORE.INTER.VDW>
75.7232

>  <SCORE.INTER.norm>
3.58507

>  <SCORE.INTRA>
2.48669

>  <SCORE.INTRA.DIHEDRAL>
0.000572806

>  <SCORE.INTRA.DIHEDRAL.0>
2.39985

>  <SCORE.INTRA.POLAR>
0

>  <SCORE.INTRA.POLAR.0>
0

>  <SCORE.INTRA.REPUL>
0

>  <SCORE.INTRA.REPUL.0>
0

>  <SCORE.INTRA.SOLV>
0.388989

>  <SCORE.INTRA.SOLV.lig_0>
-110.958

>  <SCORE.INTRA.VDW>
2.29191

>  <SCORE.INTRA.VDW.0>
-2.34644

>  <SCORE.INTRA.norm>
0.0592068

>  <SCORE.RESTR>
4.71734

>  <SCORE.RESTR.CAVITY>
4.71734

>  <SCORE.RESTR.norm>
0.112318

>  <SCORE.SYSTEM>
0

>  <SCORE.SYSTEM.CONST>
0

>  <SCORE.SYSTEM.DIHEDRAL>
0

>  <SCORE.SYSTEM.SOLV>
0

>  <SCORE.SYSTEM.norm>
0

>  <SCORE.heavy>
42

>  <SCORE.norm>
3.75659

>  <RMSD>
14.151

$$$$
ligand
 OpenBabel11021811513D
libRbt.so/2013.1/901 2013/11/27
 42 48  0  0  0  0  0  0  0  0999 V2000
   -6.3579  -33.3636  -12.2002 P   0  0  2  0  0  0  0  0  0  0  0  0
   -7.5755  -36.9552  -15.5367 P   0  0  1  0  0  0  0  0  0  0  0  0
   -6.4141  -33.6919  -10.7264 O   0  5  0  0  0  0  0  0  0  0  0  0
   -7.5954  -35.7196  -16.4046 O   0  5  0  0  0  0  0  0  0  0  0  0
   -6.2829  -31.9237  -12.6485 O   0  0  0  0  0  0  0  0  0  0  0  0
   -7.6107  -38.3241  -16.1727 O   0  0  0  0  0  0  0  0  0  0  0  0
   -8.8660  -34.1795  -12.2257 C   0  0  0  0  0  0  0  0  0  0  0  0
   -4.9732  -36.8128  -15.1354 C   0  0  0  0  0  0  0  0  0  0  0  0
   -7.6252  -34.0496  -12.9174 O   0  0  0  0  0  0  0  0  0  0  0  0
   -6.2840  -36.8774  -14.5783 O   0  0  0  0  0  0  0  0  0  0  0  0
   -9.5976  -35.4201  -12.7240 C   0  0  1  0  0  0  0  0  0  0  0  0
   -4.2006  -35.6688  -14.4909 C   0  0  1  0  0  0  0  0  0  0  0  0
  -10.9981  -35.2907  -12.4643 O   0  0  0  0  0  0  0  0  0  0  0  0
   -3.1476  -35.2472  -15.3611 O   0  0  0  0  0  0  0  0  0  0  0  0
   -9.4170  -35.6016  -14.2216 C   0  0  1  0  0  0  0  0  0  0  0  0
   -5.1002  -34.4700  -14.2356 C   0  0  1  0  0  0  0  0  0  0  0  0
   -8.7960  -36.8550  -14.4906 O   0  0  0  0  0  0  0  0  0  0  0  0
   -5.1158  -34.1583  -12.8457 O   0  0  0  0  0  0  0  0  0  0  0  0
  -10.8073  -35.5693  -14.8288 C   0  0  0  0  0  0  0  0  0  0  0  0
   -4.5097  -33.3149  -15.0210 C   0  0  0  0  0  0  0  0  0  0  0  0
  -11.7684  -35.3668  -13.6669 C   0  0  2  0  0  0  0  0  0  0  0  0
   -3.2745  -33.8684  -15.7172 C   0  0  2  0  0  0  0  0  0  0  0  0
  -12.4245  -31.0676  -16.6104 N   0  0  0  0  0  0  0  0  0  0  0  0
  -11.5641  -32.0928  -16.7515 C   0  0  0  0  0  0  0  0  0  0  0  0
  -11.5064  -33.1415  -15.9101 N   0  0  0  0  0  0  0  0  0  0  0  0
  -12.3377  -33.2238  -14.8437 C   0  0  0  0  0  0  0  0  0  0  0  0
  -13.3085  -32.1408  -14.6214 C   0  0  0  0  0  0  0  0  0  0  0  0
  -13.3109  -31.0195  -15.5908 C   0  0  0  0  0  0  0  0  0  0  0  0
  -14.1727  -29.9823  -15.4599 N   0  0  0  0  0  0  0  0  0  0  0  0
  -13.9992  -32.4660  -13.5125 N   0  0  0  0  0  0  0  0  0  0  0  0
  -13.5144  -33.6520  -13.0635 C   0  0  0  0  0  0  0  0  0  0  0  0
  -12.5242  -34.1040  -13.8570 N   0  0  0  0  0  0  0  0  0  0  0  0
   -0.8448  -33.5665  -20.3623 N   0  0  0  0  0  0  0  0  0  0  0  0
   -0.3346  -33.6834  -19.1224 C   0  0  0  0  0  0  0  0  0  0  0  0
   -1.0856  -33.7504  -18.0084 N   0  0  0  0  0  0  0  0  0  0  0  0
   -2.4379  -33.7026  -18.0789 C   0  0  0  0  0  0  0  0  0  0  0  0
   -3.0715  -33.5755  -19.4005 C   0  0  0  0  0  0  0  0  0  0  0  0
   -2.1763  -33.5079  -20.5796 C   0  0  0  0  0  0  0  0  0  0  0  0
   -2.6780  -33.3910  -21.8337 N   0  0  0  0  0  0  0  0  0  0  0  0
   -4.4009  -33.5522  -19.1881 N   0  0  0  0  0  0  0  0  0  0  0  0
   -4.6007  -33.6547  -17.8489 C   0  0  0  0  0  0  0  0  0  0  0  0
   -3.4317  -33.7441  -17.1882 N   0  0  0  0  0  0  0  0  0  0  0  0
  1  3  1  1  0  0  0
  1  5  2  0  0  0  0
  1  9  1  0  0  0  0
  1 18  1  0  0  0  0
  2  4  1  6  0  0  0
  2  6  2  0  0  0  0
  2 10  1  0  0  0  0
  2 17  1  0  0  0  0
  7  9  1  0  0  0  0
  8 10  1  0  0  0  0
 11  7  1  6  0  0  0
 11 13  1  0  0  0  0
 11 15  1  0  0  0  0
 12  8  1  6  0  0  0
 12 14  1  0  0  0  0
 12 16  1  0  0  0  0
 13 21  1  0  0  0  0
 14 22  1  0  0  0  0
 15 17  1  1  0  0  0
 15 19  1  0  0  0  0
 16 18  1  1  0  0  0
 16 20  1  0  0  0  0
 19 21  1  0  0  0  0
 20 22  1  0  0  0  0
 21 32  1  6  0  0  0
 22 42  1  6  0  0  0
 23 24  2  0  0  0  0
 23 28  1  0  0  0  0
 24 25  1  0  0  0  0
 25 26  2  0  0  0  0
 26 27  1  0  0  0  0
 26 32  1  0  0  0  0
 27 28  2  0  0  0  0
 27 30  1  0  0  0  0
 28 29  1  0  0  0  0
 30 31  2  0  0  0  0
 31 32  1  0  0  0  0
 33 34  2  0  0  0  0
 33 38  1  0  0  0  0
 34 35  1  0  0  0  0
 35 36  2  0  0  0  0
 36 37  1  0  0  0  0
 36 42  1  0  0  0  0
 37 38  2  0  0  0  0
 37 40  1  0  0  0  0
 38 39  1  0  0  0  0
 40 41  2  0  0  0  0
 41 42  1  0  0  0  0
M  CHG  2   3  -1   4  -1
M  END
>  <CHROM.1>
114.28385910,-84.96797850,-7.33862506,-34.20967817,-15.30888348,-2.81537522
0.25138239,-1.13209063

>  <Name>
ligand

>  <RI>
0

>  <Rbt.Current_Directory>
/home/itssahil/PROJECTS/Mol_Feturizer/New_Systems/rnas/4QLN

>  <Rbt.Executable>
rbdock ($Id: //depot/dev/client3/rdock/2013.1/src/exe/rbdock.cxx#4 $)

>  <Rbt.Library>
libRbt.so (2013.1, Build901 2013/11/27)

>  <Rbt.Parameter_File>
/export/apps/rDock/src/rDock_2013.1_src/data/scripts/dock_solv.prm

>  <Rbt.Receptor>
prm/blind_docking_60.prm

>  <SCORE>
130.156

>  <SCORE.INTER>
118.784

>  <SCORE.INTER.CONST>
1

>  <SCORE.INTER.POLAR>
0

>  <SCORE.INTER.ROT>
2

>  <SCORE.INTER.SOLV>
58.8486

>  <SCORE.INTER.VDW>
54.6398

>  <SCORE.INTER.norm>
2.82819

>  <SCORE.INTRA>
3.0126

>  <SCORE.INTRA.DIHEDRAL>
-0.000500033

>  <SCORE.INTRA.DIHEDRAL.0>
2.39985

>  <SCORE.INTRA.POLAR>
0

>  <SCORE.INTRA.POLAR.0>
0

>  <SCORE.INTRA.REPUL>
0

>  <SCORE.INTRA.REPUL.0>
0

>  <SCORE.INTRA.SOLV>
-0.0844297

>  <SCORE.INTRA.SOLV.lig_0>
-110.958

>  <SCORE.INTRA.VDW>
3.05507

>  <SCORE.INTRA.VDW.0>
-2.34644

>  <SCORE.INTRA.norm>
0.0717286

>  <SCORE.RESTR>
8.35883

>  <SCORE.RESTR.CAVITY>
8.35883

>  <SCORE.RESTR.norm>
0.19902

>  <SCORE.SYSTEM>
0

>  <SCORE.SYSTEM.CONST>
0

>  <SCORE.SYSTEM.DIHEDRAL>
0

>  <SCORE.SYSTEM.SOLV>
0

>  <SCORE.SYSTEM.norm>
0

>  <SCORE.heavy>
42

>  <SCORE.norm>
3.09894

>  <RMSD>
14.195

$$$$
ligand
 OpenBabel11021811513D
libRbt.so/2013.1/901 2013/11/27
 42 48  0  0  0  0  0  0  0  0999 V2000
   -6.2148  -33.0626  -12.3970 P   0  0  2  0  0  0  0  0  0  0  0  0
   -7.4060  -36.7905  -15.5903 P   0  0  1  0  0  0  0  0  0  0  0  0
   -6.3446  -33.3088  -10.9119 O   0  5  0  0  0  0  0  0  0  0  0  0
   -7.3481  -35.6037  -16.5222 O   0  5  0  0  0  0  0  0  0  0  0  0
   -6.0734  -31.6520  -12.9168 O   0  0  0  0  0  0  0  0  0  0  0  0
   -7.4590  -38.1900  -16.1542 O   0  0  0  0  0  0  0  0  0  0  0  0
   -8.7450  -33.8016  -12.4909 C   0  0  0  0  0  0  0  0  0  0  0  0
   -4.8200  -36.7061  -15.0818 C   0  0  0  0  0  0  0  0  0  0  0  0
   -7.4721  -33.7473  -13.1326 O   0  0  0  0  0  0  0  0  0  0  0  0
   -6.1548  -36.7005  -14.5810 O   0  0  0  0  0  0  0  0  0  0  0  0
   -9.4950  -35.0444  -12.9552 C   0  0  1  0  0  0  0  0  0  0  0  0
   -4.0384  -35.5530  -14.4648 C   0  0  1  0  0  0  0  0  0  0  0  0
  -10.9003  -34.8585  -12.7652 O   0  0  0  0  0  0  0  0  0  0  0  0
   -2.9358  -35.2116  -15.3084 O   0  0  0  0  0  0  0  0  0  0  0  0
   -9.2566  -35.3122  -14.4316 C   0  0  1  0  0  0  0  0  0  0  0  0
   -4.9082  -34.3153  -14.3133 C   0  0  1  0  0  0  0  0  0  0  0  0
   -8.6662  -36.5966  -14.6063 O   0  0  0  0  0  0  0  0  0  0  0  0
   -4.9730  -33.9285  -12.9439 O   0  0  0  0  0  0  0  0  0  0  0  0
  -10.6178  -35.2703  -15.1009 C   0  0  0  0  0  0  0  0  0  0  0  0
   -4.2470  -33.2229  -15.1314 C   0  0  0  0  0  0  0  0  0  0  0  0
  -11.6205  -34.9760  -13.9951 C   0  0  2  0  0  0  0  0  0  0  0  0
   -3.0021  -33.8508  -15.7419 C   0  0  2  0  0  0  0  0  0  0  0  0
  -15.8212  -31.9838  -13.0055 N   0  0  0  0  0  0  0  0  0  0  0  0
  -15.4805  -33.1903  -12.5160 C   0  0  0  0  0  0  0  0  0  0  0  0
  -14.3594  -33.8486  -12.8637 N   0  0  0  0  0  0  0  0  0  0  0  0
  -13.4868  -33.3149  -13.7518 C   0  0  0  0  0  0  0  0  0  0  0  0
  -13.7890  -31.9970  -14.3319 C   0  0  0  0  0  0  0  0  0  0  0  0
  -15.0428  -31.3348  -13.9002 C   0  0  0  0  0  0  0  0  0  0  0  0
  -15.3963  -30.1200  -14.3851 N   0  0  0  0  0  0  0  0  0  0  0  0
  -12.7763  -31.7048  -15.1694 N   0  0  0  0  0  0  0  0  0  0  0  0
  -11.9024  -32.7431  -15.1300 C   0  0  0  0  0  0  0  0  0  0  0  0
  -12.3256  -33.7028  -14.2849 N   0  0  0  0  0  0  0  0  0  0  0  0
   -0.3637  -33.6006  -20.2750 N   0  0  0  0  0  0  0  0  0  0  0  0
    0.0893  -33.6303  -19.0080 C   0  0  0  0  0  0  0  0  0  0  0  0
   -0.7115  -33.6956  -17.9292 N   0  0  0  0  0  0  0  0  0  0  0  0
   -2.0589  -33.7365  -18.0663 C   0  0  0  0  0  0  0  0  0  0  0  0
   -2.6315  -33.7080  -19.4210 C   0  0  0  0  0  0  0  0  0  0  0  0
   -1.6837  -33.6359  -20.5580 C   0  0  0  0  0  0  0  0  0  0  0  0
   -2.1276  -33.6061  -21.8387 N   0  0  0  0  0  0  0  0  0  0  0  0
   -3.9689  -33.7594  -19.2737 N   0  0  0  0  0  0  0  0  0  0  0  0
   -4.2295  -33.8153  -17.9422 C   0  0  0  0  0  0  0  0  0  0  0  0
   -3.0921  -33.8015  -17.2230 N   0  0  0  0  0  0  0  0  0  0  0  0
  1  3  1  1  0  0  0
  1  5  2  0  0  0  0
  1  9  1  0  0  0  0
  1 18  1  0  0  0  0
  2  4  1  6  0  0  0
  2  6  2  0  0  0  0
  2 10  1  0  0  0  0
  2 17  1  0  0  0  0
  7  9  1  0  0  0  0
  8 10  1  0  0  0  0
 11  7  1  6  0  0  0
 11 13  1  0  0  0  0
 11 15  1  0  0  0  0
 12  8  1  6  0  0  0
 12 14  1  0  0  0  0
 12 16  1  0  0  0  0
 13 21  1  0  0  0  0
 14 22  1  0  0  0  0
 15 17  1  1  0  0  0
 15 19  1  0  0  0  0
 16 18  1  1  0  0  0
 16 20  1  0  0  0  0
 19 21  1  0  0  0  0
 20 22  1  0  0  0  0
 21 32  1  6  0  0  0
 22 42  1  6  0  0  0
 23 24  2  0  0  0  0
 23 28  1  0  0  0  0
 24 25  1  0  0  0  0
 25 26  2  0  0  0  0
 26 27  1  0  0  0  0
 26 32  1  0  0  0  0
 27 28  2  0  0  0  0
 27 30  1  0  0  0  0
 28 29  1  0  0  0  0
 30 31  2  0  0  0  0
 31 32  1  0  0  0  0
 33 34  2  0  0  0  0
 33 38  1  0  0  0  0
 34 35  1  0  0  0  0
 35 36  2  0  0  0  0
 36 37  1  0  0  0  0
 36 42  1  0  0  0  0
 37 38  2  0  0  0  0
 37 40  1  0  0  0  0
 38 39  1  0  0  0  0
 40 41  2  0  0  0  0
 41 42  1  0  0  0  0
M  CHG  2   3  -1   4  -1
M  END
>  <CHROM.1>
-80.50220720,-90.37557204,-7.40183123,-34.11785889,-15.15292075,-2.79895619
0.20727097,-1.30126151

>  <Name>
ligand

>  <RI>
0

>  <Rbt.Current_Directory>
/home/itssahil/PROJECTS/Mol_Feturizer/New_Systems/rnas/4QLN

>  <Rbt.Executable>
rbdock ($Id: //depot/dev/client3/rdock/2013.1/src/exe/rbdock.cxx#4 $)

>  <Rbt.Library>
libRbt.so (2013.1, Build901 2013/11/27)

>  <Rbt.Parameter_File>
/export/apps/rDock/src/rDock_2013.1_src/data/scripts/dock_solv.prm

>  <Rbt.Receptor>
prm/blind_docking_80.prm

>  <SCORE>
145.334

>  <SCORE.INTER>
133.833

>  <SCORE.INTER.CONST>
1

>  <SCORE.INTER.POLAR>
0

>  <SCORE.INTER.ROT>
2

>  <SCORE.INTER.SOLV>
57.9423

>  <SCORE.INTER.VDW>
64.9745

>  <SCORE.INTER.norm>
3.1865

>  <SCORE.INTRA>
2.09706

>  <SCORE.INTRA.DIHEDRAL>
-0.000832874

>  <SCORE.INTRA.DIHEDRAL.0>
2.39985

>  <SCORE.INTRA.POLAR>
0

>  <SCORE.INTRA.POLAR.0>
0

>  <SCORE.INTRA.REPUL>
0

>  <SCORE.INTRA.REPUL.0>
0

>  <SCORE.INTRA.SOLV>
-0.0561038

>  <SCORE.INTRA.SOLV.lig_0>
-110.958

>  <SCORE.INTRA.VDW>
2.12552

>  <SCORE.INTRA.VDW.0>
-2.34644

>  <SCORE.INTRA.norm>
0.0499299

>  <SCORE.RESTR>
9.40372

>  <SCORE.RESTR.CAVITY>
9.40372

>  <SCORE.RESTR.norm>
0.223898

>  <SCORE.SYSTEM>
0

>  <SCORE.SYSTEM.CONST>
0

>  <SCORE.SYSTEM.DIHEDRAL>
0

>  <SCORE.SYSTEM.SOLV>
0

>  <SCORE.SYSTEM.norm>
0

>  <SCORE.heavy>
42

>  <SCORE.norm>
3.46033

>  <RMSD>
14.376

$$$$
ligand
 OpenBabel11021811513D
libRbt.so/2013.1/901 2013/11/27
 42 48  0  0  0  0  0  0  0  0999 V2000
   -6.2227  -33.0530  -12.4000 P   0  0  2  0  0  0  0  0  0  0  0  0
   -7.4169  -36.7820  -15.5910 P   0  0  1  0  0  0  0  0  0  0  0  0
   -6.3528  -33.2982  -10.9147 O   0  5  0  0  0  0  0  0  0  0  0  0
   -7.3581  -35.5958  -16.5236 O   0  5  0  0  0  0  0  0  0  0  0  0
   -6.0802  -31.6429  -12.9207 O   0  0  0  0  0  0  0  0  0  0  0  0
   -7.4710  -38.1819  -16.1540 O   0  0  0  0  0  0  0  0  0  0  0  0
   -8.7535  -33.7901  -12.4934 C   0  0  0  0  0  0  0  0  0  0  0  0
   -4.8308  -36.6994  -15.0825 C   0  0  0  0  0  0  0  0  0  0  0  0
   -7.4806  -33.7372  -13.1352 O   0  0  0  0  0  0  0  0  0  0  0  0
   -6.1656  -36.6924  -14.5816 O   0  0  0  0  0  0  0  0  0  0  0  0
   -9.5045  -35.0326  -12.9569 C   0  0  1  0  0  0  0  0  0  0  0  0
   -4.0483  -35.5465  -14.4662 C   0  0  1  0  0  0  0  0  0  0  0  0
  -10.9096  -34.8454  -12.7671 O   0  0  0  0  0  0  0  0  0  0  0  0
   -2.9455  -35.2065  -15.3100 O   0  0  0  0  0  0  0  0  0  0  0  0
   -9.2663  -35.3015  -14.4332 C   0  0  1  0  0  0  0  0  0  0  0  0
   -4.9172  -34.3080  -14.3155 C   0  0  1  0  0  0  0  0  0  0  0  0
   -8.6769  -36.5865  -14.6070 O   0  0  0  0  0  0  0  0  0  0  0  0
   -4.9817  -33.9203  -12.9463 O   0  0  0  0  0  0  0  0  0  0  0  0
  -10.6275  -35.2589  -15.1025 C   0  0  0  0  0  0  0  0  0  0  0  0
   -4.2551  -33.2167  -15.1343 C   0  0  0  0  0  0  0  0  0  0  0  0
  -11.6300  -34.9631  -13.9969 C   0  0  2  0  0  0  0  0  0  0  0  0
   -3.0107  -33.8459  -15.7444 C   0  0  2  0  0  0  0  0  0  0  0  0
  -15.8247  -31.9638  -13.0038 N   0  0  0  0  0  0  0  0  0  0  0  0
  -15.4845  -33.1698  -12.5129 C   0  0  0  0  0  0  0  0  0  0  0  0
  -14.3650  -33.8302  -12.8617 N   0  0  0  0  0  0  0  0  0  0  0  0
  -13.4936  -33.2992  -13.7526 C   0  0  0  0  0  0  0  0  0  0  0  0
  -13.7953  -31.9820  -14.3345 C   0  0  0  0  0  0  0  0  0  0  0  0
  -15.0474  -31.3174  -13.9013 C   0  0  0  0  0  0  0  0  0  0  0  0
  -15.4003  -30.1031  -14.3877 N   0  0  0  0  0  0  0  0  0  0  0  0
  -12.7840  -31.6926  -15.1746 N   0  0  0  0  0  0  0  0  0  0  0  0
  -11.9114  -32.7319  -15.1353 C   0  0  0  0  0  0  0  0  0  0  0  0
  -12.3341  -33.6895  -14.2875 N   0  0  0  0  0  0  0  0  0  0  0  0
   -0.3714  -33.6249  -20.2785 N   0  0  0  0  0  0  0  0  0  0  0  0
    0.0818  -33.6573  -19.0115 C   0  0  0  0  0  0  0  0  0  0  0  0
   -0.7194  -33.7141  -17.9324 N   0  0  0  0  0  0  0  0  0  0  0  0
   -2.0672  -33.7428  -18.0691 C   0  0  0  0  0  0  0  0  0  0  0  0
   -2.6398  -33.7107  -19.4238 C   0  0  0  0  0  0  0  0  0  0  0  0
   -1.6917  -33.6485  -20.5611 C   0  0  0  0  0  0  0  0  0  0  0  0
   -2.1357  -33.6162  -21.8417 N   0  0  0  0  0  0  0  0  0  0  0  0
   -3.9775  -33.7497  -19.2760 N   0  0  0  0  0  0  0  0  0  0  0  0
   -4.2382  -33.8018  -17.9443 C   0  0  0  0  0  0  0  0  0  0  0  0
   -3.1006  -33.7975  -17.2255 N   0  0  0  0  0  0  0  0  0  0  0  0
  1  3  1  1  0  0  0
  1  5  2  0  0  0  0
  1  9  1  0  0  0  0
  1 18  1  0  0  0  0
  2  4  1  6  0  0  0
  2  6  2  0  0  0  0
  2 10  1  0  0  0  0
  2 17  1  0  0  0  0
  7  9  1  0  0  0  0
  8 10  1  0  0  0  0
 11  7  1  6  0  0  0
 11 13  1  0  0  0  0
 11 15  1  0  0  0  0
 12  8  1  6  0  0  0
 12 14  1  0  0  0  0
 12 16  1  0  0  0  0
 13 21  1  0  0  0  0
 14 22  1  0  0  0  0
 15 17  1  1  0  0  0
 15 19  1  0  0  0  0
 16 18  1  1  0  0  0
 16 20  1  0  0  0  0
 19 21  1  0  0  0  0
 20 22  1  0  0  0  0
 21 32  1  6  0  0  0
 22 42  1  6  0  0  0
 23 24  2  0  0  0  0
 23 28  1  0  0  0  0
 24 25  1  0  0  0  0
 25 26  2  0  0  0  0
 26 27  1  0  0  0  0
 26 32  1  0  0  0  0
 27 28  2  0  0  0  0
 27 30  1  0  0  0  0
 28 29  1  0  0  0  0
 30 31  2  0  0  0  0
 31 32  1  0  0  0  0
 33 34  2  0  0  0  0
 33 38  1  0  0  0  0
 34 35  1  0  0  0  0
 35 36  2  0  0  0  0
 36 37  1  0  0  0  0
 36 42  1  0  0  0  0
 37 38  2  0  0  0  0
 37 40  1  0  0  0  0
 38 39  1  0  0  0  0
 40 41  2  0  0  0  0
 41 42  1  0  0  0  0
M  CHG  2   3  -1   4  -1
M  END
>  <CHROM.1>
-80.36056487,-89.89823502,-7.41025916,-34.11084285,-15.15486713,-2.79849690
0.20782909,-1.30532676

>  <Name>
ligand

>  <RI>
0

>  <Rbt.Current_Directory>
/home/itssahil/PROJECTS/Mol_Feturizer/New_Systems/rnas/4QLN

>  <Rbt.Executable>
rbdock ($Id: //depot/dev/client3/rdock/2013.1/src/exe/rbdock.cxx#4 $)

>  <Rbt.Library>
libRbt.so (2013.1, Build901 2013/11/27)

>  <Rbt.Parameter_File>
/export/apps/rDock/src/rDock_2013.1_src/data/scripts/dock_solv.prm

>  <Rbt.Receptor>
prm/blind_docking_80.prm

>  <SCORE>
145.705

>  <SCORE.INTER>
134.26

>  <SCORE.INTER.CONST>
1

>  <SCORE.INTER.POLAR>
0

>  <SCORE.INTER.ROT>
2

>  <SCORE.INTER.SOLV>
58.0411

>  <SCORE.INTER.VDW>
65.2261

>  <SCORE.INTER.norm>
3.19666

>  <SCORE.INTRA>
2.12981

>  <SCORE.INTRA.DIHEDRAL>
-0.000832089

>  <SCORE.INTRA.DIHEDRAL.0>
2.39985

>  <SCORE.INTRA.POLAR>
0

>  <SCORE.INTRA.POLAR.0>
0

>  <SCORE.INTRA.REPUL>
0

>  <SCORE.INTRA.REPUL.0>
0

>  <SCORE.INTRA.SOLV>
-0.0567761

>  <SCORE.INTRA.SOLV.lig_0>
-110.958

>  <SCORE.INTRA.VDW>
2.15861

>  <SCORE.INTRA.VDW.0>
-2.34644

>  <SCORE.INTRA.norm>
0.0507098

>  <SCORE.RESTR>
9.31574

>  <SCORE.RESTR.CAVITY>
9.31574

>  <SCORE.RESTR.norm>
0.221803

>  <SCORE.SYSTEM>
0

>  <SCORE.SYSTEM.CONST>
0

>  <SCORE.SYSTEM.DIHEDRAL>
0

>  <SCORE.SYSTEM.SOLV>
0

>  <SCORE.SYSTEM.norm>
0

>  <SCORE.heavy>
42

>  <SCORE.norm>
3.46917

>  <RMSD>
14.386

$$$$
ligand
 OpenBabel11021811513D
libRbt.so/2013.1/901 2013/11/27
 42 48  0  0  0  0  0  0  0  0999 V2000
   -6.6182  -33.7187  -11.6874 P   0  0  2  0  0  0  0  0  0  0  0  0
   -7.5015  -36.9492  -15.4687 P   0  0  1  0  0  0  0  0  0  0  0  0
   -7.0496  -34.1000  -10.2904 O   0  5  0  0  0  0  0  0  0  0  0  0
   -7.1634  -35.6866  -16.2250 O   0  5  0  0  0  0  0  0  0  0  0  0
   -6.2574  -32.2861  -11.9993 O   0  0  0  0  0  0  0  0  0  0  0  0
   -7.5685  -38.2697  -16.1976 O   0  0  0  0  0  0  0  0  0  0  0  0
   -9.1391  -34.1653  -12.3221 C   0  0  0  0  0  0  0  0  0  0  0  0
   -5.0624  -37.1984  -14.4982 C   0  0  0  0  0  0  0  0  0  0  0  0
   -7.7675  -34.1841  -12.7138 O   0  0  0  0  0  0  0  0  0  0  0  0
   -6.4624  -37.0992  -14.2479 O   0  0  0  0  0  0  0  0  0  0  0  0
   -9.8929  -35.2653  -13.0599 C   0  0  1  0  0  0  0  0  0  0  0  0
   -4.3147  -36.2062  -13.6164 C   0  0  1  0  0  0  0  0  0  0  0  0
  -11.2869  -34.9483  -13.1040 O   0  0  0  0  0  0  0  0  0  0  0  0
   -3.0460  -35.9019  -14.2011 O   0  0  0  0  0  0  0  0  0  0  0  0
   -9.4021  -35.4050  -14.4909 C   0  0  1  0  0  0  0  0  0  0  0  0
   -5.0855  -34.9033  -13.4752 C   0  0  1  0  0  0  0  0  0  0  0  0
   -8.9041  -36.7213  -14.7105 O   0  0  0  0  0  0  0  0  0  0  0  0
   -5.3758  -34.6539  -12.1031 O   0  0  0  0  0  0  0  0  0  0  0  0
  -10.6019  -35.1474  -15.3835 C   0  0  0  0  0  0  0  0  0  0  0  0
   -4.1875  -33.8113  -14.0236 C   0  0  0  0  0  0  0  0  0  0  0  0
  -11.7672  -34.8606  -14.4482 C   0  0  2  0  0  0  0  0  0  0  0  0
   -2.9090  -34.5048  -14.4721 C   0  0  2  0  0  0  0  0  0  0  0  0
  -15.6165  -31.4105  -13.5219 N   0  0  0  0  0  0  0  0  0  0  0  0
  -15.4586  -32.6730  -13.0831 C   0  0  0  0  0  0  0  0  0  0  0  0
  -14.4088  -33.4507  -13.4058 N   0  0  0  0  0  0  0  0  0  0  0  0
  -13.4242  -32.9896  -14.2138 C   0  0  0  0  0  0  0  0  0  0  0  0
  -13.5246  -31.6172  -14.7346 C   0  0  0  0  0  0  0  0  0  0  0  0
  -14.7105  -30.8229  -14.3352 C   0  0  0  0  0  0  0  0  0  0  0  0
  -14.8802  -29.5508  -14.7697 N   0  0  0  0  0  0  0  0  0  0  0  0
  -12.4343  -31.4157  -15.4981 N   0  0  0  0  0  0  0  0  0  0  0  0
  -11.7000  -32.5573  -15.4697 C   0  0  0  0  0  0  0  0  0  0  0  0
  -12.2898  -33.4954  -14.7040 N   0  0  0  0  0  0  0  0  0  0  0  0
   -5.1446  -33.2268  -19.0482 N   0  0  0  0  0  0  0  0  0  0  0  0
   -5.6812  -33.3240  -17.8177 C   0  0  0  0  0  0  0  0  0  0  0  0
   -4.9804  -33.6660  -16.7216 N   0  0  0  0  0  0  0  0  0  0  0  0
   -3.6556  -33.9389  -16.8018 C   0  0  0  0  0  0  0  0  0  0  0  0
   -2.9958  -33.8538  -18.1138 C   0  0  0  0  0  0  0  0  0  0  0  0
   -3.8356  -33.4706  -19.2732 C   0  0  0  0  0  0  0  0  0  0  0  0
   -3.3067  -33.3685  -20.5174 N   0  0  0  0  0  0  0  0  0  0  0  0
   -1.7019  -34.1678  -17.9138 N   0  0  0  0  0  0  0  0  0  0  0  0
   -1.5470  -34.4310  -16.5907 C   0  0  0  0  0  0  0  0  0  0  0  0
   -2.7106  -34.2949  -15.9284 N   0  0  0  0  0  0  0  0  0  0  0  0
  1  3  1  1  0  0  0
  1  5  2  0  0  0  0
  1  9  1  0  0  0  0
  1 18  1  0  0  0  0
  2  4  1  6  0  0  0
  2  6  2  0  0  0  0
  2 10  1  0  0  0  0
  2 17  1  0  0  0  0
  7  9  1  0  0  0  0
  8 10  1  0  0  0  0
 11  7  1  6  0  0  0
 11 13  1  0  0  0  0
 11 15  1  0  0  0  0
 12  8  1  6  0  0  0
 12 14  1  0  0  0  0
 12 16  1  0  0  0  0
 13 21  1  0  0  0  0
 14 22  1  0  0  0  0
 15 17  1  1  0  0  0
 15 19  1  0  0  0  0
 16 18  1  1  0  0  0
 16 20  1  0  0  0  0
 19 21  1  0  0  0  0
 20 22  1  0  0  0  0
 21 32  1  6  0  0  0
 22 42  1  6  0  0  0
 23 24  2  0  0  0  0
 23 28  1  0  0  0  0
 24 25  1  0  0  0  0
 25 26  2  0  0  0  0
 26 27  1  0  0  0  0
 26 32  1  0  0  0  0
 27 28  2  0  0  0  0
 27 30  1  0  0  0  0
 28 29  1  0  0  0  0
 30 31  2  0  0  0  0
 31 32  1  0  0  0  0
 33 34  2  0  0  0  0
 33 38  1  0  0  0  0
 34 35  1  0  0  0  0
 35 36  2  0  0  0  0
 36 37  1  0  0  0  0
 36 42  1  0  0  0  0
 37 38  2  0  0  0  0
 37 40  1  0  0  0  0
 38 39  1  0  0  0  0
 40 41  2  0  0  0  0
 41 42  1  0  0  0  0
M  CHG  2   3  -1   4  -1
M  END
>  <CHROM.1>
-72.22228003,99.01513006,-7.79971119,-34.27015209,-14.74313278,-0.13463637
-0.27832497,1.91814594

>  <Name>
ligand

>  <RI>
0

>  <Rbt.Current_Directory>
/home/itssahil/PROJECTS/Mol_Feturizer/New_Systems/rnas/4QLN

>  <Rbt.Executable>
rbdock ($Id: //depot/dev/client3/rdock/2013.1/src/exe/rbdock.cxx#4 $)

>  <Rbt.Library>
libRbt.so (2013.1, Build901 2013/11/27)

>  <Rbt.Parameter_File>
/export/apps/rDock/src/rDock_2013.1_src/data/scripts/dock_solv.prm

>  <Rbt.Receptor>
prm/blind_docking_80.prm

>  <SCORE>
150.441

>  <SCORE.INTER>
139.831

>  <SCORE.INTER.CONST>
1

>  <SCORE.INTER.POLAR>
0

>  <SCORE.INTER.ROT>
2

>  <SCORE.INTER.SOLV>
55.8037

>  <SCORE.INTER.VDW>
69.6864

>  <SCORE.INTER.norm>
3.32932

>  <SCORE.INTRA>
2.43397

>  <SCORE.INTRA.DIHEDRAL>
0.000663566

>  <SCORE.INTRA.DIHEDRAL.0>
2.39985

>  <SCORE.INTRA.POLAR>
0

>  <SCORE.INTRA.POLAR.0>
0

>  <SCORE.INTRA.REPUL>
0

>  <SCORE.INTRA.REPUL.0>
0

>  <SCORE.INTRA.SOLV>
0.444324

>  <SCORE.INTRA.SOLV.lig_0>
-110.958

>  <SCORE.INTRA.VDW>
2.21148

>  <SCORE.INTRA.VDW.0>
-2.34644

>  <SCORE.INTRA.norm>
0.0579517

>  <SCORE.RESTR>
8.17589

>  <SCORE.RESTR.CAVITY>
8.17589

>  <SCORE.RESTR.norm>
0.194664

>  <SCORE.SYSTEM>
0

>  <SCORE.SYSTEM.CONST>
0

>  <SCORE.SYSTEM.DIHEDRAL>
0

>  <SCORE.SYSTEM.SOLV>
0

>  <SCORE.SYSTEM.norm>
0

>  <SCORE.heavy>
42

>  <SCORE.norm>
3.58194

>  <RMSD>
14.626

$$$$
ligand
 OpenBabel11021811513D
libRbt.so/2013.1/901 2013/11/27
 42 48  0  0  0  0  0  0  0  0999 V2000
   -6.6233  -33.7161  -11.6855 P   0  0  2  0  0  0  0  0  0  0  0  0
   -7.5164  -36.9505  -15.4610 P   0  0  1  0  0  0  0  0  0  0  0  0
   -7.0524  -34.0951  -10.2872 O   0  5  0  0  0  0  0  0  0  0  0  0
   -7.1787  -35.6892  -16.2196 O   0  5  0  0  0  0  0  0  0  0  0  0
   -6.2618  -32.2841  -12.0000 O   0  0  0  0  0  0  0  0  0  0  0  0
   -7.5860  -38.2719  -16.1882 O   0  0  0  0  0  0  0  0  0  0  0  0
   -9.1457  -34.1613  -12.3149 C   0  0  0  0  0  0  0  0  0  0  0  0
   -5.0757  -37.2006  -14.4948 C   0  0  0  0  0  0  0  0  0  0  0  0
   -7.7749  -34.1818  -12.7092 O   0  0  0  0  0  0  0  0  0  0  0  0
   -6.4752  -37.0998  -14.2420 O   0  0  0  0  0  0  0  0  0  0  0  0
   -9.9019  -35.2616  -13.0499 C   0  0  1  0  0  0  0  0  0  0  0  0
   -4.3255  -36.2079  -13.6157 C   0  0  1  0  0  0  0  0  0  0  0  0
  -11.2956  -34.9435  -13.0918 O   0  0  0  0  0  0  0  0  0  0  0  0
   -3.0577  -35.9055  -14.2031 O   0  0  0  0  0  0  0  0  0  0  0  0
   -9.4138  -35.4035  -14.4817 C   0  0  1  0  0  0  0  0  0  0  0  0
   -5.0950  -34.9042  -13.4747 C   0  0  1  0  0  0  0  0  0  0  0  0
   -8.9174  -36.7205  -14.7006 O   0  0  0  0  0  0  0  0  0  0  0  0
   -5.3825  -34.6527  -12.1024 O   0  0  0  0  0  0  0  0  0  0  0  0
  -10.6151  -35.1460  -15.3723 C   0  0  0  0  0  0  0  0  0  0  0  0
   -4.1970  -33.8136  -14.0262 C   0  0  0  0  0  0  0  0  0  0  0  0
  -11.7784  -34.8570  -14.4352 C   0  0  2  0  0  0  0  0  0  0  0  0
   -2.9199  -34.5088  -14.4762 C   0  0  2  0  0  0  0  0  0  0  0  0
  -15.6253  -31.4040  -13.5097 N   0  0  0  0  0  0  0  0  0  0  0  0
  -15.4679  -32.6662  -13.0701 C   0  0  0  0  0  0  0  0  0  0  0  0
  -14.4187  -33.4449  -13.3926 N   0  0  0  0  0  0  0  0  0  0  0  0
  -13.4342  -32.9849  -14.2014 C   0  0  0  0  0  0  0  0  0  0  0  0
  -13.5340  -31.6128  -14.7232 C   0  0  0  0  0  0  0  0  0  0  0  0
  -14.7193  -30.8175  -14.3238 C   0  0  0  0  0  0  0  0  0  0  0  0
  -14.8885  -29.5456  -14.7591 N   0  0  0  0  0  0  0  0  0  0  0  0
  -12.4439  -31.4124  -15.4873 N   0  0  0  0  0  0  0  0  0  0  0  0
  -11.7104  -32.5545  -15.4584 C   0  0  0  0  0  0  0  0  0  0  0  0
  -12.3003  -33.4917  -14.6918 N   0  0  0  0  0  0  0  0  0  0  0  0
   -5.1640  -33.2388  -19.0504 N   0  0  0  0  0  0  0  0  0  0  0  0
   -5.6984  -33.3346  -17.8189 C   0  0  0  0  0  0  0  0  0  0  0  0
   -4.9956  -33.6745  -16.7234 N   0  0  0  0  0  0  0  0  0  0  0  0
   -3.6708  -33.9467  -16.8054 C   0  0  0  0  0  0  0  0  0  0  0  0
   -3.0133  -33.8632  -18.1187 C   0  0  0  0  0  0  0  0  0  0  0  0
   -3.8552  -33.4821  -19.2773 C   0  0  0  0  0  0  0  0  0  0  0  0
   -3.3284  -33.3815  -20.5225 N   0  0  0  0  0  0  0  0  0  0  0  0
   -1.7188  -34.1761  -17.9204 N   0  0  0  0  0  0  0  0  0  0  0  0
   -1.5616  -34.4373  -16.5972 C   0  0  0  0  0  0  0  0  0  0  0  0
   -2.7241  -34.3009  -15.9331 N   0  0  0  0  0  0  0  0  0  0  0  0
  1  3  1  1  0  0  0
  1  5  2  0  0  0  0
  1  9  1  0  0  0  0
  1 18  1  0  0  0  0
  2  4  1  6  0  0  0
  2  6  2  0  0  0  0
  2 10  1  0  0  0  0
  2 17  1  0  0  0  0
  7  9  1  0  0  0  0
  8 10  1  0  0  0  0
 11  7  1  6  0  0  0
 11 13  1  0  0  0  0
 11 15  1  0  0  0  0
 12  8  1  6  0  0  0
 12 14  1  0  0  0  0
 12 16  1  0  0  0  0
 13 21  1  0  0  0  0
 14 22  1  0  0  0  0
 15 17  1  1  0  0  0
 15 19  1  0  0  0  0
 16 18  1  1  0  0  0
 16 20  1  0  0  0  0
 19 21  1  0  0  0  0
 20 22  1  0  0  0  0
 21 32  1  6  0  0  0
 22 42  1  6  0  0  0
 23 24  2  0  0  0  0
 23 28  1  0  0  0  0
 24 25  1  0  0  0  0
 25 26  2  0  0  0  0
 26 27  1  0  0  0  0
 26 32  1  0  0  0  0
 27 28  2  0  0  0  0
 27 30  1  0  0  0  0
 28 29  1  0  0  0  0
 30 31  2  0  0  0  0
 31 32  1  0  0  0  0
 33 34  2  0  0  0  0
 33 38  1  0  0  0  0
 34 35  1  0  0  0  0
 35 36  2  0  0  0  0
 36 37  1  0  0  0  0
 36 42  1  0  0  0  0
 37 38  2  0  0  0  0
 37 40  1  0  0  0  0
 38 39  1  0  0  0  0
 40 41  2  0  0  0  0
 41 42  1  0  0  0  0
M  CHG  2   3  -1   4  -1
M  END
>  <CHROM.1>
-72.31138862,98.93107479,-7.81124219,-34.27078225,-14.73868724,-0.13619223
-0.27960304,1.91576286

>  <Name>
ligand

>  <RI>
0

>  <Rbt.Current_Directory>
/home/itssahil/PROJECTS/Mol_Feturizer/New_Systems/rnas/4QLN

>  <Rbt.Executable>
rbdock ($Id: //depot/dev/client3/rdock/2013.1/src/exe/rbdock.cxx#4 $)

>  <Rbt.Library>
libRbt.so (2013.1, Build901 2013/11/27)

>  <Rbt.Parameter_File>
/export/apps/rDock/src/rDock_2013.1_src/data/scripts/dock_solv.prm

>  <Rbt.Receptor>
prm/blind_docking_80.prm

>  <SCORE>
150.281

>  <SCORE.INTER>
139.638

>  <SCORE.INTER.CONST>
1

>  <SCORE.INTER.POLAR>
0

>  <SCORE.INTER.ROT>
2

>  <SCORE.INTER.SOLV>
55.9005

>  <SCORE.INTER.VDW>
69.5249

>  <SCORE.INTER.norm>
3.3247

>  <SCORE.INTRA>
2.42889

>  <SCORE.INTRA.DIHEDRAL>
0.000664087

>  <SCORE.INTRA.DIHEDRAL.0>
2.39985

>  <SCORE.INTRA.POLAR>
0

>  <SCORE.INTRA.POLAR.0>
0

>  <SCORE.INTRA.REPUL>
0

>  <SCORE.INTRA.REPUL.0>
0

>  <SCORE.INTRA.SOLV>
0.446172

>  <SCORE.INTRA.SOLV.lig_0>
-110.958

>  <SCORE.INTRA.VDW>
2.20547

>  <SCORE.INTRA.VDW.0>
-2.34644

>  <SCORE.INTRA.norm>
0.0578307

>  <SCORE.RESTR>
8.21493

>  <SCORE.RESTR.CAVITY>
8.21493

>  <SCORE.RESTR.norm>
0.195594

>  <SCORE.SYSTEM>
0

>  <SCORE.SYSTEM.CONST>
0

>  <SCORE.SYSTEM.DIHEDRAL>
0

>  <SCORE.SYSTEM.SOLV>
0

>  <SCORE.SYSTEM.norm>
0

>  <SCORE.heavy>
42

>  <SCORE.norm>
3.57813

>  <RMSD>
14.640

$$$$
ligand
 OpenBabel11021811513D
libRbt.so/2013.1/901 2013/11/27
 42 48  0  0  0  0  0  0  0  0999 V2000
   -6.6277  -33.7186  -11.6822 P   0  0  2  0  0  0  0  0  0  0  0  0
   -7.5151  -36.9506  -15.4612 P   0  0  1  0  0  0  0  0  0  0  0  0
   -7.0587  -34.0987  -10.2848 O   0  5  0  0  0  0  0  0  0  0  0  0
   -7.1765  -35.6887  -16.2184 O   0  5  0  0  0  0  0  0  0  0  0  0
   -6.2660  -32.2864  -11.9952 O   0  0  0  0  0  0  0  0  0  0  0  0
   -7.5834  -38.2715  -16.1894 O   0  0  0  0  0  0  0  0  0  0  0  0
   -9.1492  -34.1638  -12.3155 C   0  0  0  0  0  0  0  0  0  0  0  0
   -5.0757  -37.2010  -14.4917 C   0  0  0  0  0  0  0  0  0  0  0  0
   -7.7778  -34.1838  -12.7078 O   0  0  0  0  0  0  0  0  0  0  0  0
   -6.4755  -37.1006  -14.2408 O   0  0  0  0  0  0  0  0  0  0  0  0
   -9.9042  -35.2637  -13.0523 C   0  0  1  0  0  0  0  0  0  0  0  0
   -4.3268  -36.2088  -13.6109 C   0  0  1  0  0  0  0  0  0  0  0  0
  -11.2979  -34.9457  -13.0959 O   0  0  0  0  0  0  0  0  0  0  0  0
   -3.0583  -35.9058  -14.1963 O   0  0  0  0  0  0  0  0  0  0  0  0
   -9.4141  -35.4045  -14.4835 C   0  0  1  0  0  0  0  0  0  0  0  0
   -5.0967  -34.9053  -13.4701 C   0  0  1  0  0  0  0  0  0  0  0  0
   -8.9171  -36.7213  -14.7026 O   0  0  0  0  0  0  0  0  0  0  0  0
   -5.3862  -34.6549  -12.0980 O   0  0  0  0  0  0  0  0  0  0  0  0
  -10.6141  -35.1465  -15.3756 C   0  0  0  0  0  0  0  0  0  0  0  0
   -4.1981  -33.8143  -14.0195 C   0  0  0  0  0  0  0  0  0  0  0  0
  -11.7788  -34.8584  -14.4400 C   0  0  2  0  0  0  0  0  0  0  0  0
   -2.9203  -34.5090  -14.4682 C   0  0  2  0  0  0  0  0  0  0  0  0
  -15.6279  -31.4069  -13.5183 N   0  0  0  0  0  0  0  0  0  0  0  0
  -15.4711  -32.6695  -13.0794 C   0  0  0  0  0  0  0  0  0  0  0  0
  -14.4212  -33.4476  -13.4008 N   0  0  0  0  0  0  0  0  0  0  0  0
  -13.4354  -32.9868  -14.2075 C   0  0  0  0  0  0  0  0  0  0  0  0
  -13.5346  -31.6143  -14.7283 C   0  0  0  0  0  0  0  0  0  0  0  0
  -14.7207  -30.8195  -14.3304 C   0  0  0  0  0  0  0  0  0  0  0  0
  -14.8894  -29.5474  -14.7649 N   0  0  0  0  0  0  0  0  0  0  0  0
  -12.4432  -31.4131  -15.4904 N   0  0  0  0  0  0  0  0  0  0  0  0
  -11.7095  -32.5550  -15.4612 C   0  0  0  0  0  0  0  0  0  0  0  0
  -12.3006  -33.4930  -14.6963 N   0  0  0  0  0  0  0  0  0  0  0  0
   -5.1607  -33.2481  -19.0468 N   0  0  0  0  0  0  0  0  0  0  0  0
   -5.6972  -33.3463  -17.8164 C   0  0  0  0  0  0  0  0  0  0  0  0
   -4.9951  -33.6834  -16.7196 N   0  0  0  0  0  0  0  0  0  0  0  0
   -3.6689  -33.9498  -16.7989 C   0  0  0  0  0  0  0  0  0  0  0  0
   -3.0091  -33.8633  -18.1109 C   0  0  0  0  0  0  0  0  0  0  0  0
   -3.8503  -33.4857  -19.2711 C   0  0  0  0  0  0  0  0  0  0  0  0
   -3.3216  -33.3827  -20.5152 N   0  0  0  0  0  0  0  0  0  0  0  0
   -1.7137  -34.1706  -17.9100 N   0  0  0  0  0  0  0  0  0  0  0  0
   -1.5581  -34.4313  -16.5865 C   0  0  0  0  0  0  0  0  0  0  0  0
   -2.7225  -34.3000  -15.9247 N   0  0  0  0  0  0  0  0  0  0  0  0
  1  3  1  1  0  0  0
  1  5  2  0  0  0  0
  1  9  1  0  0  0  0
  1 18  1  0  0  0  0
  2  4  1  6  0  0  0
  2  6  2  0  0  0  0
  2 10  1  0  0  0  0
  2 17  1  0  0  0  0
  7  9  1  0  0  0  0
  8 10  1  0  0  0  0
 11  7  1  6  0  0  0
 11 13  1  0  0  0  0
 11 15  1  0  0  0  0
 12  8  1  6  0  0  0
 12 14  1  0  0  0  0
 12 16  1  0  0  0  0
 13 21  1  0  0  0  0
 14 22  1  0  0  0  0
 15 17  1  1  0  0  0
 15 19  1  0  0  0  0
 16 18  1  1  0  0  0
 16 20  1  0  0  0  0
 19 21  1  0  0  0  0
 20 22  1  0  0  0  0
 21 32  1  6  0  0  0
 22 42  1  6  0  0  0
 23 24  2  0  0  0  0
 23 28  1  0  0  0  0
 24 25  1  0  0  0  0
 25 26  2  0  0  0  0
 26 27  1  0  0  0  0
 26 32  1  0  0  0  0
 27 28  2  0  0  0  0
 27 30  1  0  0  0  0
 28 29  1  0  0  0  0
 30 31  2  0  0  0  0
 31 32  1  0  0  0  0
 33 34  2  0  0  0  0
 33 38  1  0  0  0  0
 34 35  1  0  0  0  0
 35 36  2  0  0  0  0
 36 37  1  0  0  0  0
 36 42  1  0  0  0  0
 37 38  2  0  0  0  0
 37 40  1  0  0  0  0
 38 39  1  0  0  0  0
 40 41  2  0  0  0  0
 41 42  1  0  0  0  0
M  CHG  2   3  -1   4  -1
M  END
>  <CHROM.1>
-72.33075519,98.68602993,-7.81153875,-34.27243184,-14.73769021,-0.13534534
-0.27891693,1.91482578

>  <Name>
ligand

>  <RI>
0

>  <Rbt.Current_Directory>
/home/itssahil/PROJECTS/Mol_Feturizer/New_Systems/rnas/4QLN

>  <Rbt.Executable>
rbdock ($Id: //depot/dev/client3/rdock/2013.1/src/exe/rbdock.cxx#4 $)

>  <Rbt.Library>
libRbt.so (2013.1, Build901 2013/11/27)

>  <Rbt.Parameter_File>
/export/apps/rDock/src/rDock_2013.1_src/data/scripts/dock_solv.prm

>  <Rbt.Receptor>
prm/blind_docking_80.prm

>  <SCORE>
150.274

>  <SCORE.INTER>
139.639

>  <SCORE.INTER.CONST>
1

>  <SCORE.INTER.POLAR>
0

>  <SCORE.INTER.ROT>
2

>  <SCORE.INTER.SOLV>
55.8657

>  <SCORE.INTER.VDW>
69.5376

>  <SCORE.INTER.norm>
3.32474

>  <SCORE.INTRA>
2.41724

>  <SCORE.INTRA.DIHEDRAL>
0.000668166

>  <SCORE.INTRA.DIHEDRAL.0>
2.39985

>  <SCORE.INTRA.POLAR>
0

>  <SCORE.INTRA.POLAR.0>
0

>  <SCORE.INTRA.REPUL>
0

>  <SCORE.INTRA.REPUL.0>
0

>  <SCORE.INTRA.SOLV>
0.45171

>  <SCORE.INTRA.SOLV.lig_0>
-110.958

>  <SCORE.INTRA.VDW>
2.19105

>  <SCORE.INTRA.VDW.0>
-2.34644

>  <SCORE.INTRA.norm>
0.0575534

>  <SCORE.RESTR>
8.21769

>  <SCORE.RESTR.CAVITY>
8.21769

>  <SCORE.RESTR.norm>
0.195659

>  <SCORE.SYSTEM>
0

>  <SCORE.SYSTEM.CONST>
0

>  <SCORE.SYSTEM.DIHEDRAL>
0

>  <SCORE.SYSTEM.SOLV>
0

>  <SCORE.SYSTEM.norm>
0

>  <SCORE.heavy>
42

>  <SCORE.norm>
3.57796

>  <RMSD>
14.640

$$$$
ligand
 OpenBabel11021811513D
libRbt.so/2013.1/901 2013/11/27
 42 48  0  0  0  0  0  0  0  0999 V2000
   -6.4082  -33.5765  -11.8287 P   0  0  2  0  0  0  0  0  0  0  0  0
   -7.4012  -36.9679  -15.4380 P   0  0  1  0  0  0  0  0  0  0  0  0
   -6.6832  -33.9455  -10.3896 O   0  5  0  0  0  0  0  0  0  0  0  0
   -7.2228  -35.7077  -16.2507 O   0  5  0  0  0  0  0  0  0  0  0  0
   -6.1788  -32.1323  -12.2051 O   0  0  0  0  0  0  0  0  0  0  0  0
   -7.4409  -38.3104  -16.1275 O   0  0  0  0  0  0  0  0  0  0  0  0
   -8.9385  -34.2117  -12.2173 C   0  0  0  0  0  0  0  0  0  0  0  0
   -4.8726  -37.0224  -14.6918 C   0  0  0  0  0  0  0  0  0  0  0  0
   -7.6102  -34.1486  -12.7336 O   0  0  0  0  0  0  0  0  0  0  0  0
   -6.2477  -37.0114  -14.3155 O   0  0  0  0  0  0  0  0  0  0  0  0
   -9.6768  -35.3814  -12.8571 C   0  0  1  0  0  0  0  0  0  0  0  0
   -4.1197  -35.9565  -13.9057 C   0  0  1  0  0  0  0  0  0  0  0  0
  -11.0879  -35.1613  -12.7793 O   0  0  0  0  0  0  0  0  0  0  0  0
   -2.9339  -35.5837  -14.6119 O   0  0  0  0  0  0  0  0  0  0  0  0
   -9.3092  -35.5288  -14.3239 C   0  0  1  0  0  0  0  0  0  0  0  0
   -4.9644  -34.7055  -13.7234 C   0  0  1  0  0  0  0  0  0  0  0  0
   -8.7418  -36.8140  -14.5588 O   0  0  0  0  0  0  0  0  0  0  0  0
   -5.1459  -34.4367  -12.3363 O   0  0  0  0  0  0  0  0  0  0  0  0
  -10.6001  -35.3794  -15.1073 C   0  0  0  0  0  0  0  0  0  0  0  0
   -4.1988  -33.5713  -14.3770 C   0  0  0  0  0  0  0  0  0  0  0  0
  -11.6931  -35.1455  -14.0750 C   0  0  2  0  0  0  0  0  0  0  0  0
   -2.9206  -34.1890  -14.9260 C   0  0  2  0  0  0  0  0  0  0  0  0
  -15.7674  -32.0082  -13.0092 N   0  0  0  0  0  0  0  0  0  0  0  0
  -15.4937  -33.2526  -12.5756 C   0  0  0  0  0  0  0  0  0  0  0  0
  -14.3981  -33.9458  -12.9364 N   0  0  0  0  0  0  0  0  0  0  0  0
  -13.4837  -33.4110  -13.7807 C   0  0  0  0  0  0  0  0  0  0  0  0
  -13.7118  -32.0528  -14.2984 C   0  0  0  0  0  0  0  0  0  0  0  0
  -14.9416  -31.3535  -13.8559 C   0  0  0  0  0  0  0  0  0  0  0  0
  -15.2277  -30.1006  -14.2846 N   0  0  0  0  0  0  0  0  0  0  0  0
  -12.6699  -31.7682  -15.1019 N   0  0  0  0  0  0  0  0  0  0  0  0
  -11.8468  -32.8478  -15.0999 C   0  0  0  0  0  0  0  0  0  0  0  0
  -12.3315  -33.8270  -14.3122 N   0  0  0  0  0  0  0  0  0  0  0  0
   -5.6330  -33.1209  -19.2935 N   0  0  0  0  0  0  0  0  0  0  0  0
   -6.0459  -33.2086  -18.0155 C   0  0  0  0  0  0  0  0  0  0  0  0
   -5.2302  -33.4935  -16.9844 N   0  0  0  0  0  0  0  0  0  0  0  0
   -3.9084  -33.7138  -17.1851 C   0  0  0  0  0  0  0  0  0  0  0  0
   -3.3803  -33.6354  -18.5559 C   0  0  0  0  0  0  0  0  0  0  0  0
   -4.3419  -33.3165  -19.6375 C   0  0  0  0  0  0  0  0  0  0  0  0
   -3.9382  -33.2247  -20.9285 N   0  0  0  0  0  0  0  0  0  0  0  0
   -2.0608  -33.8908  -18.4740 N   0  0  0  0  0  0  0  0  0  0  0  0
   -1.7701  -34.1136  -17.1664 C   0  0  0  0  0  0  0  0  0  0  0  0
   -2.8704  -34.0084  -16.3988 N   0  0  0  0  0  0  0  0  0  0  0  0
  1  3  1  1  0  0  0
  1  5  2  0  0  0  0
  1  9  1  0  0  0  0
  1 18  1  0  0  0  0
  2  4  1  6  0  0  0
  2  6  2  0  0  0  0
  2 10  1  0  0  0  0
  2 17  1  0  0  0  0
  7  9  1  0  0  0  0
  8 10  1  0  0  0  0
 11  7  1  6  0  0  0
 11 13  1  0  0  0  0
 11 15  1  0  0  0  0
 12  8  1  6  0  0  0
 12 14  1  0  0  0  0
 12 16  1  0  0  0  0
 13 21  1  0  0  0  0
 14 22  1  0  0  0  0
 15 17  1  1  0  0  0
 15 19  1  0  0  0  0
 16 18  1  1  0  0  0
 16 20  1  0  0  0  0
 19 21  1  0  0  0  0
 20 22  1  0  0  0  0
 21 32  1  6  0  0  0
 22 42  1  6  0  0  0
 23 24  2  0  0  0  0
 23 28  1  0  0  0  0
 24 25  1  0  0  0  0
 25 26  2  0  0  0  0
 26 27  1  0  0  0  0
 26 32  1  0  0  0  0
 27 28  2  0  0  0  0
 27 30  1  0  0  0  0
 28 29  1  0  0  0  0
 30 31  2  0  0  0  0
 31 32  1  0  0  0  0
 33 34  2  0  0  0  0
 33 38  1  0  0  0  0
 34 35  1  0  0  0  0
 35 36  2  0  0  0  0
 36 37  1  0  0  0  0
 36 42  1  0  0  0  0
 37 38  2  0  0  0  0
 37 40  1  0  0  0  0
 38 39  1  0  0  0  0
 40 41  2  0  0  0  0
 41 42  1  0  0  0  0
M  CHG  2   3  -1   4  -1
M  END
>  <CHROM.1>
-75.69097858,100.59163635,-7.82657743,-34.29461336,-14.75904231,-0.23833179
-0.23724589,1.87557765

>  <Name>
ligand

>  <RI>
0

>  <Rbt.Current_Directory>
/home/itssahil/PROJECTS/Mol_Feturizer/New_Systems/rnas/4QLN

>  <Rbt.Executable>
rbdock ($Id: //depot/dev/client3/rdock/2013.1/src/exe/rbdock.cxx#4 $)

>  <Rbt.Library>
libRbt.so (2013.1, Build901 2013/11/27)

>  <Rbt.Parameter_File>
/export/apps/rDock/src/rDock_2013.1_src/data/scripts/dock_solv.prm

>  <Rbt.Receptor>
prm/blind_docking_60.prm

>  <SCORE>
139.658

>  <SCORE.INTER>
129.972

>  <SCORE.INTER.CONST>
1

>  <SCORE.INTER.POLAR>
0

>  <SCORE.INTER.ROT>
2

>  <SCORE.INTER.SOLV>
54.4339

>  <SCORE.INTER.VDW>
63.5699

>  <SCORE.INTER.norm>
3.09457

>  <SCORE.INTRA>
2.45855

>  <SCORE.INTRA.DIHEDRAL>
0.000597779

>  <SCORE.INTRA.DIHEDRAL.0>
2.39985

>  <SCORE.INTRA.POLAR>
0

>  <SCORE.INTRA.POLAR.0>
0

>  <SCORE.INTRA.REPUL>
0

>  <SCORE.INTRA.REPUL.0>
0

>  <SCORE.INTRA.SOLV>
0.405223

>  <SCORE.INTRA.SOLV.lig_0>
-110.958

>  <SCORE.INTRA.VDW>
2.25564

>  <SCORE.INTRA.VDW.0>
-2.34644

>  <SCORE.INTRA.norm>
0.0585369

>  <SCORE.RESTR>
7.22801

>  <SCORE.RESTR.CAVITY>
7.22801

>  <SCORE.RESTR.norm>
0.172095

>  <SCORE.SYSTEM>
0

>  <SCORE.SYSTEM.CONST>
0

>  <SCORE.SYSTEM.DIHEDRAL>
0

>  <SCORE.SYSTEM.SOLV>
0

>  <SCORE.SYSTEM.norm>
0

>  <SCORE.heavy>
42

>  <SCORE.norm>
3.3252

>  <RMSD>
14.693

$$$$
ligand
 OpenBabel11021811513D
libRbt.so/2013.1/901 2013/11/27
 42 48  0  0  0  0  0  0  0  0999 V2000
   -9.8692  -36.2877  -13.8808 P   0  0  2  0  0  0  0  0  0  0  0  0
   -7.0953  -33.1419  -16.6958 P   0  0  1  0  0  0  0  0  0  0  0  0
  -10.6529  -37.3801  -14.5702 O   0  5  0  0  0  0  0  0  0  0  0  0
   -7.1249  -32.4144  -15.3728 O   0  5  0  0  0  0  0  0  0  0  0  0
  -10.1783  -35.9295  -12.4468 O   0  0  0  0  0  0  0  0  0  0  0  0
   -6.1361  -32.7035  -17.7761 O   0  0  0  0  0  0  0  0  0  0  0  0
  -11.1685  -34.6685  -15.5077 C   0  0  0  0  0  0  0  0  0  0  0  0
   -5.6656  -35.1386  -15.7352 C   0  0  0  0  0  0  0  0  0  0  0  0
   -9.9807  -34.9504  -14.7697 O   0  0  0  0  0  0  0  0  0  0  0  0
   -6.8473  -34.7062  -16.4055 O   0  0  0  0  0  0  0  0  0  0  0  0
  -10.8126  -33.8729  -16.7580 C   0  0  1  0  0  0  0  0  0  0  0  0
   -6.0402  -36.0760  -14.5941 C   0  0  1  0  0  0  0  0  0  0  0  0
  -11.9593  -33.1480  -17.2107 O   0  0  0  0  0  0  0  0  0  0  0  0
   -4.9973  -36.0865  -13.6163 O   0  0  0  0  0  0  0  0  0  0  0  0
   -9.7086  -32.8680  -16.4756 C   0  0  1  0  0  0  0  0  0  0  0  0
   -7.3182  -35.6241  -13.9055 C   0  0  1  0  0  0  0  0  0  0  0  0
   -8.5842  -33.1301  -17.3098 O   0  0  0  0  0  0  0  0  0  0  0  0
   -8.3041  -36.6492  -13.9843 O   0  0  0  0  0  0  0  0  0  0  0  0
  -10.2826  -31.4994  -16.7916 C   0  0  0  0  0  0  0  0  0  0  0  0
   -6.9556  -35.3617  -12.4566 C   0  0  0  0  0  0  0  0  0  0  0  0
  -11.7133  -31.7397  -17.2502 C   0  0  2  0  0  0  0  0  0  0  0  0
   -5.4700  -35.6689  -12.3332 C   0  0  2  0  0  0  0  0  0  0  0  0
  -15.0974  -32.2167  -13.2629 N   0  0  0  0  0  0  0  0  0  0  0  0
  -14.3565  -33.1499  -13.8885 C   0  0  0  0  0  0  0  0  0  0  0  0
  -13.5215  -32.8809  -14.9091 N   0  0  0  0  0  0  0  0  0  0  0  0
  -13.3775  -31.6170  -15.3748 C   0  0  0  0  0  0  0  0  0  0  0  0
  -14.1543  -30.5397  -14.7419 C   0  0  0  0  0  0  0  0  0  0  0  0
  -15.0527  -30.9148  -13.6243 C   0  0  0  0  0  0  0  0  0  0  0  0
  -15.8029  -29.9845  -12.9861 N   0  0  0  0  0  0  0  0  0  0  0  0
  -13.8288  -29.4028  -15.3852 N   0  0  0  0  0  0  0  0  0  0  0  0
  -12.9239  -29.7225  -16.3454 C   0  0  0  0  0  0  0  0  0  0  0  0
  -12.6546  -31.0422  -16.3393 N   0  0  0  0  0  0  0  0  0  0  0  0
   -2.4582  -31.6301  -13.8130 N   0  0  0  0  0  0  0  0  0  0  0  0
   -2.9815  -32.6344  -14.5404 C   0  0  0  0  0  0  0  0  0  0  0  0
   -3.7445  -33.6137  -14.0224 N   0  0  0  0  0  0  0  0  0  0  0  0
   -4.0354  -33.6409  -12.6993 C   0  0  0  0  0  0  0  0  0  0  0  0
   -3.4997  -32.5761  -11.8371 C   0  0  0  0  0  0  0  0  0  0  0  0
   -2.6680  -31.5330  -12.4825 C   0  0  0  0  0  0  0  0  0  0  0  0
   -2.1359  -30.5161  -11.7608 N   0  0  0  0  0  0  0  0  0  0  0  0
   -3.9332  -32.8379  -10.5896 N   0  0  0  0  0  0  0  0  0  0  0  0
   -4.6801  -33.9705  -10.6479 C   0  0  0  0  0  0  0  0  0  0  0  0
   -4.7409  -34.4488  -11.9043 N   0  0  0  0  0  0  0  0  0  0  0  0
  1  3  1  6  0  0  0
  1  5  2  0  0  0  0
  1  9  1  0  0  0  0
  1 18  1  0  0  0  0
  2  4  1  1  0  0  0
  2  6  2  0  0  0  0
  2 10  1  0  0  0  0
  2 17  1  0  0  0  0
  7  9  1  0  0  0  0
  8 10  1  0  0  0  0
 11  7  1  1  0  0  0
 11 13  1  0  0  0  0
 11 15  1  0  0  0  0
 12  8  1  6  0  0  0
 12 14  1  0  0  0  0
 12 16  1  0  0  0  0
 13 21  1  0  0  0  0
 14 22  1  0  0  0  0
 15 17  1  6  0  0  0
 15 19  1  0  0  0  0
 16 18  1  1  0  0  0
 16 20  1  0  0  0  0
 19 21  1  0  0  0  0
 20 22  1  0  0  0  0
 21 32  1  1  0  0  0
 22 42  1  6  0  0  0
 23 24  2  0  0  0  0
 23 28  1  0  0  0  0
 24 25  1  0  0  0  0
 25 26  2  0  0  0  0
 26 27  1  0  0  0  0
 26 32  1  0  0  0  0
 27 28  2  0  0  0  0
 27 30  1  0  0  0  0
 28 29  1  0  0  0  0
 30 31  2  0  0  0  0
 31 32  1  0  0  0  0
 33 34  2  0  0  0  0
 33 38  1  0  0  0  0
 34 35  1  0  0  0  0
 35 36  2  0  0  0  0
 36 37  1  0  0  0  0
 36 42  1  0  0  0  0
 37 38  2  0  0  0  0
 37 40  1  0  0  0  0
 38 39  1  0  0  0  0
 40 41  2  0  0  0  0
 41 42  1  0  0  0  0
M  CHG  2   3  -1   4  -1
M  END
>  <CHROM.1>
16.19735897,17.25566950,-8.61459684,-33.43952627,-14.54706022,2.91569867
-0.15764120,-0.24778922

>  <Name>
ligand

>  <RI>
0

>  <Rbt.Current_Directory>
/home/itssahil/PROJECTS/Mol_Feturizer/New_Systems/rnas/4QLN

>  <Rbt.Executable>
rbdock ($Id: //depot/dev/client3/rdock/2013.1/src/exe/rbdock.cxx#4 $)

>  <Rbt.Library>
libRbt.so (2013.1, Build901 2013/11/27)

>  <Rbt.Parameter_File>
/export/apps/rDock/src/rDock_2013.1_src/data/scripts/dock_solv.prm

>  <Rbt.Receptor>
prm/blind_docking_80.prm

>  <SCORE>
188.589

>  <SCORE.INTER>
181.053

>  <SCORE.INTER.CONST>
1

>  <SCORE.INTER.POLAR>
0

>  <SCORE.INTER.ROT>
2

>  <SCORE.INTER.SOLV>
56.1591

>  <SCORE.INTER.VDW>
97.049

>  <SCORE.INTER.norm>
4.31079

>  <SCORE.INTRA>
-0.173583

>  <SCORE.INTRA.DIHEDRAL>
-0.000637551

>  <SCORE.INTRA.DIHEDRAL.0>
2.39985

>  <SCORE.INTRA.POLAR>
0

>  <SCORE.INTRA.POLAR.0>
0

>  <SCORE.INTRA.REPUL>
0

>  <SCORE.INTRA.REPUL.0>
0

>  <SCORE.INTRA.SOLV>
0.098655

>  <SCORE.INTRA.SOLV.lig_0>
-110.958

>  <SCORE.INTRA.VDW>
-0.222591

>  <SCORE.INTRA.VDW.0>
-2.34644

>  <SCORE.INTRA.norm>
-0.00413292

>  <SCORE.RESTR>
7.70935

>  <SCORE.RESTR.CAVITY>
7.70935

>  <SCORE.RESTR.norm>
0.183556

>  <SCORE.SYSTEM>
0

>  <SCORE.SYSTEM.CONST>
0

>  <SCORE.SYSTEM.DIHEDRAL>
0

>  <SCORE.SYSTEM.SOLV>
0

>  <SCORE.SYSTEM.norm>
0

>  <SCORE.heavy>
42

>  <SCORE.norm>
4.49021

>  <RMSD>
15.296

$$$$
ligand
 OpenBabel11021811513D
libRbt.so/2013.1/901 2013/11/27
 42 48  0  0  0  0  0  0  0  0999 V2000
   -9.2317  -36.5132  -14.6284 P   0  0  2  0  0  0  0  0  0  0  0  0
   -7.2799  -32.6010  -17.1581 P   0  0  1  0  0  0  0  0  0  0  0  0
   -9.9782  -37.5771  -15.3990 O   0  5  0  0  0  0  0  0  0  0  0  0
   -7.1976  -32.1085  -15.7330 O   0  5  0  0  0  0  0  0  0  0  0  0
   -9.3654  -36.4381  -13.1262 O   0  0  0  0  0  0  0  0  0  0  0  0
   -6.5465  -31.8653  -18.2537 O   0  0  0  0  0  0  0  0  0  0  0  0
  -10.9326  -34.8468  -15.7628 C   0  0  0  0  0  0  0  0  0  0  0  0
   -5.5057  -34.5103  -16.7580 C   0  0  0  0  0  0  0  0  0  0  0  0
   -9.6248  -35.0780  -15.2420 O   0  0  0  0  0  0  0  0  0  0  0  0
   -6.8147  -34.1422  -17.1866 O   0  0  0  0  0  0  0  0  0  0  0  0
  -10.8578  -33.8179  -16.8846 C   0  0  1  0  0  0  0  0  0  0  0  0
   -5.5988  -35.6627  -15.7658 C   0  0  1  0  0  0  0  0  0  0  0  0
  -12.1339  -33.1944  -17.0528 O   0  0  0  0  0  0  0  0  0  0  0  0
   -4.4292  -35.6875  -14.9441 O   0  0  0  0  0  0  0  0  0  0  0  0
   -9.8464  -32.7294  -16.5671 C   0  0  1  0  0  0  0  0  0  0  0  0
   -6.8048  -35.5089  -14.8528 C   0  0  1  0  0  0  0  0  0  0  0  0
   -8.8344  -32.6954  -17.5688 O   0  0  0  0  0  0  0  0  0  0  0  0
   -7.6679  -36.6338  -14.9902 O   0  0  0  0  0  0  0  0  0  0  0  0
  -10.6133  -31.4201  -16.5580 C   0  0  0  0  0  0  0  0  0  0  0  0
   -6.2655  -35.4371  -13.4373 C   0  0  0  0  0  0  0  0  0  0  0  0
  -12.0589  -31.7780  -16.8695 C   0  0  2  0  0  0  0  0  0  0  0  0
   -4.7526  -35.5524  -13.5580 C   0  0  2  0  0  0  0  0  0  0  0  0
  -14.5605  -33.3148  -12.5153 N   0  0  0  0  0  0  0  0  0  0  0  0
  -13.7944  -34.0178  -13.3698 C   0  0  0  0  0  0  0  0  0  0  0  0
  -13.2092  -33.4869  -14.4593 N   0  0  0  0  0  0  0  0  0  0  0  0
  -13.3643  -32.1759  -14.7626 C   0  0  0  0  0  0  0  0  0  0  0  0
  -14.1883  -31.3398  -13.8755 C   0  0  0  0  0  0  0  0  0  0  0  0
  -14.8002  -31.9967  -12.6961 C   0  0  0  0  0  0  0  0  0  0  0  0
  -15.5726  -31.2996  -11.8283 N   0  0  0  0  0  0  0  0  0  0  0  0
  -14.1772  -30.0991  -14.3979 N   0  0  0  0  0  0  0  0  0  0  0  0
  -13.4143  -30.1361  -15.5203 C   0  0  0  0  0  0  0  0  0  0  0  0
  -12.9295  -31.3739  -15.7377 N   0  0  0  0  0  0  0  0  0  0  0  0
   -5.2847  -30.4325  -12.5212 N   0  0  0  0  0  0  0  0  0  0  0  0
   -6.1537  -31.3014  -13.0699 C   0  0  0  0  0  0  0  0  0  0  0  0
   -5.8792  -32.6016  -13.2791 N   0  0  0  0  0  0  0  0  0  0  0  0
   -4.6752  -33.1206  -12.9371 C   0  0  0  0  0  0  0  0  0  0  0  0
   -3.6708  -32.2332  -12.3309 C   0  0  0  0  0  0  0  0  0  0  0  0
   -4.0489  -30.8140  -12.1328 C   0  0  0  0  0  0  0  0  0  0  0  0
   -3.1827  -29.9293  -11.5805 N   0  0  0  0  0  0  0  0  0  0  0  0
   -2.5838  -32.9908  -12.0915 N   0  0  0  0  0  0  0  0  0  0  0  0
   -2.8672  -34.2518  -12.5081 C   0  0  0  0  0  0  0  0  0  0  0  0
   -4.1126  -34.3292  -13.0119 N   0  0  0  0  0  0  0  0  0  0  0  0
  1  3  1  6  0  0  0
  1  5  2  0  0  0  0
  1  9  1  0  0  0  0
  1 18  1  0  0  0  0
  2  4  1  1  0  0  0
  2  6  2  0  0  0  0
  2 10  1  0  0  0  0
  2 17  1  0  0  0  0
  7  9  1  0  0  0  0
  8 10  1  0  0  0  0
 11  7  1  1  0  0  0
 11 13  1  0  0  0  0
 11 15  1  0  0  0  0
 12  8  1  6  0  0  0
 12 14  1  0  0  0  0
 12 16  1  0  0  0  0
 13 21  1  0  0  0  0
 14 22  1  0  0  0  0
 15 17  1  6  0  0  0
 15 19  1  0  0  0  0
 16 18  1  1  0  0  0
 16 20  1  0  0  0  0
 19 21  1  0  0  0  0
 20 22  1  0  0  0  0
 21 32  1  1  0  0  0
 22 42  1  6  0  0  0
 23 24  2  0  0  0  0
 23 28  1  0  0  0  0
 24 25  1  0  0  0  0
 25 26  2  0  0  0  0
 26 27  1  0  0  0  0
 26 32  1  0  0  0  0
 27 28  2  0  0  0  0
 27 30  1  0  0  0  0
 28 29  1  0  0  0  0
 30 31  2  0  0  0  0
 31 32  1  0  0  0  0
 33 34  2  0  0  0  0
 33 38  1  0  0  0  0
 34 35  1  0  0  0  0
 35 36  2  0  0  0  0
 36 37  1  0  0  0  0
 36 42  1  0  0  0  0
 37 38  2  0  0  0  0
 37 40  1  0  0  0  0
 38 39  1  0  0  0  0
 40 41  2  0  0  0  0
 41 42  1  0  0  0  0
M  CHG  2   3  -1   4  -1
M  END
>  <CHROM.1>
20.62904007,92.85394360,-8.63859806,-33.40328326,-14.73905411,3.07718393
-0.14562722,0.47854789

>  <Name>
ligand

>  <RI>
0

>  <Rbt.Current_Directory>
/home/itssahil/PROJECTS/Mol_Feturizer/New_Systems/rnas/4QLN

>  <Rbt.Executable>
rbdock ($Id: //depot/dev/client3/rdock/2013.1/src/exe/rbdock.cxx#4 $)

>  <Rbt.Library>
libRbt.so (2013.1, Build901 2013/11/27)

>  <Rbt.Parameter_File>
/export/apps/rDock/src/rDock_2013.1_src/data/scripts/dock_solv.prm

>  <Rbt.Receptor>
prm/blind_docking_80.prm

>  <SCORE>
236.938

>  <SCORE.INTER>
225.919

>  <SCORE.INTER.CONST>
1

>  <SCORE.INTER.POLAR>
0

>  <SCORE.INTER.ROT>
2

>  <SCORE.INTER.SOLV>
62.6645

>  <SCORE.INTER.VDW>
124.791

>  <SCORE.INTER.norm>
5.37902

>  <SCORE.INTRA>
0.905949

>  <SCORE.INTRA.DIHEDRAL>
0.000662871

>  <SCORE.INTRA.DIHEDRAL.0>
2.39985

>  <SCORE.INTRA.POLAR>
0

>  <SCORE.INTRA.POLAR.0>
0

>  <SCORE.INTRA.REPUL>
0

>  <SCORE.INTRA.REPUL.0>
0

>  <SCORE.INTRA.SOLV>
0.661652

>  <SCORE.INTRA.SOLV.lig_0>
-110.958

>  <SCORE.INTRA.VDW>
0.574792

>  <SCORE.INTRA.VDW.0>
-2.34644

>  <SCORE.INTRA.norm>
0.0215702

>  <SCORE.RESTR>
10.1134

>  <SCORE.RESTR.CAVITY>
10.1134

>  <SCORE.RESTR.norm>
0.240796

>  <SCORE.SYSTEM>
0

>  <SCORE.SYSTEM.CONST>
0

>  <SCORE.SYSTEM.DIHEDRAL>
0

>  <SCORE.SYSTEM.SOLV>
0

>  <SCORE.SYSTEM.norm>
0

>  <SCORE.heavy>
42

>  <SCORE.norm>
5.64138

>  <RMSD>
15.343

$$$$
ligand
 OpenBabel11021811513D
libRbt.so/2013.1/901 2013/11/27
 42 48  0  0  0  0  0  0  0  0999 V2000
   -8.4816  -31.8172  -17.4629 P   0  0  2  0  0  0  0  0  0  0  0  0
  -10.4387  -35.6777  -14.8591 P   0  0  1  0  0  0  0  0  0  0  0  0
   -7.7205  -32.1103  -18.7349 O   0  5  0  0  0  0  0  0  0  0  0  0
  -10.5374  -34.5560  -13.8530 O   0  5  0  0  0  0  0  0  0  0  0  0
   -8.3618  -30.4613  -16.8094 O   0  0  0  0  0  0  0  0  0  0  0  0
  -11.1676  -36.9770  -14.6138 O   0  0  0  0  0  0  0  0  0  0  0  0
   -6.7826  -33.5002  -16.3503 C   0  0  0  0  0  0  0  0  0  0  0  0
  -12.2026  -34.5775  -16.4813 C   0  0  0  0  0  0  0  0  0  0  0  0
   -8.0933  -32.9376  -16.3744 O   0  0  0  0  0  0  0  0  0  0  0  0
  -10.8925  -35.1083  -16.2952 O   0  0  0  0  0  0  0  0  0  0  0  0
   -6.8548  -34.9338  -15.8383 C   0  0  1  0  0  0  0  0  0  0  0  0
  -12.1101  -33.2153  -17.1573 C   0  0  1  0  0  0  0  0  0  0  0  0
   -5.5817  -35.3238  -15.3160 O   0  0  0  0  0  0  0  0  0  0  0  0
  -13.2869  -32.4549  -16.8731 O   0  0  0  0  0  0  0  0  0  0  0  0
   -7.8767  -35.0692  -14.7222 C   0  0  1  0  0  0  0  0  0  0  0  0
  -10.9135  -32.4270  -16.6491 C   0  0  1  0  0  0  0  0  0  0  0  0
   -8.8800  -36.0111  -15.0898 O   0  0  0  0  0  0  0  0  0  0  0  0
  -10.0411  -32.1123  -17.7303 O   0  0  0  0  0  0  0  0  0  0  0  0
   -7.1194  -35.5649  -13.5043 C   0  0  0  0  0  0  0  0  0  0  0  0
  -11.4660  -31.1534  -16.0390 C   0  0  0  0  0  0  0  0  0  0  0  0
   -5.6685  -35.7051  -13.9404 C   0  0  2  0  0  0  0  0  0  0  0  0
  -12.9769  -31.2281  -16.2074 C   0  0  2  0  0  0  0  0  0  0  0  0
   -0.8189  -33.8802  -13.0864 N   0  0  0  0  0  0  0  0  0  0  0  0
   -1.2666  -34.7591  -14.0020 C   0  0  0  0  0  0  0  0  0  0  0  0
   -2.5531  -35.1400  -14.1062 N   0  0  0  0  0  0  0  0  0  0  0  0
   -3.4953  -34.6429  -13.2695 C   0  0  0  0  0  0  0  0  0  0  0  0
   -3.0841  -33.6752  -12.2402 C   0  0  0  0  0  0  0  0  0  0  0  0
   -1.6497  -33.3057  -12.1879 C   0  0  0  0  0  0  0  0  0  0  0  0
   -1.1871  -32.4216  -11.2714 N   0  0  0  0  0  0  0  0  0  0  0  0
   -4.1961  -33.3465  -11.5562 N   0  0  0  0  0  0  0  0  0  0  0  0
   -5.2286  -34.0416  -12.0985 C   0  0  0  0  0  0  0  0  0  0  0  0
   -4.8111  -34.8142  -13.1198 N   0  0  0  0  0  0  0  0  0  0  0  0
  -14.4899  -34.0244  -12.0284 N   0  0  0  0  0  0  0  0  0  0  0  0
  -13.8675  -34.4165  -13.1555 C   0  0  0  0  0  0  0  0  0  0  0  0
  -13.5365  -33.5805  -14.1561 N   0  0  0  0  0  0  0  0  0  0  0  0
  -13.8212  -32.2580  -14.0787 C   0  0  0  0  0  0  0  0  0  0  0  0
  -14.5012  -31.7519  -12.8764 C   0  0  0  0  0  0  0  0  0  0  0  0
  -14.8325  -32.7352  -11.8182 C   0  0  0  0  0  0  0  0  0  0  0  0
  -15.4585  -32.3525  -10.6782 N   0  0  0  0  0  0  0  0  0  0  0  0
  -14.6608  -30.4269  -13.0549 N   0  0  0  0  0  0  0  0  0  0  0  0
  -14.1304  -30.1127  -14.2648 C   0  0  0  0  0  0  0  0  0  0  0  0
  -13.6305  -31.2031  -14.8746 N   0  0  0  0  0  0  0  0  0  0  0  0
  1  3  1  6  0  0  0
  1  5  2  0  0  0  0
  1  9  1  0  0  0  0
  1 18  1  0  0  0  0
  2  4  1  1  0  0  0
  2  6  2  0  0  0  0
  2 10  1  0  0  0  0
  2 17  1  0  0  0  0
  7  9  1  0  0  0  0
  8 10  1  0  0  0  0
 11  7  1  1  0  0  0
 11 13  1  0  0  0  0
 11 15  1  0  0  0  0
 12  8  1  1  0  0  0
 12 14  1  0  0  0  0
 12 16  1  0  0  0  0
 13 21  1  0  0  0  0
 14 22  1  0  0  0  0
 15 17  1  6  0  0  0
 15 19  1  0  0  0  0
 16 18  1  6  0  0  0
 16 20  1  0  0  0  0
 19 21  1  0  0  0  0
 20 22  1  0  0  0  0
 21 32  1  1  0  0  0
 22 42  1  1  0  0  0
 23 24  2  0  0  0  0
 23 28  1  0  0  0  0
 24 25  1  0  0  0  0
 25 26  2  0  0  0  0
 26 27  1  0  0  0  0
 26 32  1  0  0  0  0
 27 28  2  0  0  0  0
 27 30  1  0  0  0  0
 28 29  1  0  0  0  0
 30 31  2  0  0  0  0
 31 32  1  0  0  0  0
 33 34  2  0  0  0  0
 33 38  1  0  0  0  0
 34 35  1  0  0  0  0
 35 36  2  0  0  0  0
 36 37  1  0  0  0  0
 36 42  1  0  0  0  0
 37 38  2  0  0  0  0
 37 40  1  0  0  0  0
 38 39  1  0  0  0  0
 40 41  2  0  0  0  0
 41 42  1  0  0  0  0
M  CHG  2   3  -1   4  -1
M  END
>  <CHROM.1>
-58.55745579,34.64276361,-9.06494709,-33.50464819,-14.67814788,-0.13507306
0.12184363,-1.26893192

>  <Name>
ligand

>  <RI>
0

>  <Rbt.Current_Directory>
/home/itssahil/PROJECTS/Mol_Feturizer/New_Systems/rnas/4QLN

>  <Rbt.Executable>
rbdock ($Id: //depot/dev/client3/rdock/2013.1/src/exe/rbdock.cxx#4 $)

>  <Rbt.Library>
libRbt.so (2013.1, Build901 2013/11/27)

>  <Rbt.Parameter_File>
/export/apps/rDock/src/rDock_2013.1_src/data/scripts/dock_solv.prm

>  <Rbt.Receptor>
prm/blind_docking_80.prm

>  <SCORE>
286.419

>  <SCORE.INTER>
270.699

>  <SCORE.INTER.CONST>
1

>  <SCORE.INTER.POLAR>
0

>  <SCORE.INTER.ROT>
2

>  <SCORE.INTER.SOLV>
55.9042

>  <SCORE.INTER.VDW>
156.898

>  <SCORE.INTER.norm>
6.44521

>  <SCORE.INTRA>
1.05724

>  <SCORE.INTRA.DIHEDRAL>
-0.000561375

>  <SCORE.INTRA.DIHEDRAL.0>
2.39985

>  <SCORE.INTRA.POLAR>
0

>  <SCORE.INTRA.POLAR.0>
0

>  <SCORE.INTRA.REPUL>
0

>  <SCORE.INTRA.REPUL.0>
0

>  <SCORE.INTRA.SOLV>
0.628401

>  <SCORE.INTRA.SOLV.lig_0>
-110.958

>  <SCORE.INTRA.VDW>
0.743315

>  <SCORE.INTRA.VDW.0>
-2.34644

>  <SCORE.INTRA.norm>
0.0251723

>  <SCORE.RESTR>
14.6624

>  <SCORE.RESTR.CAVITY>
14.6624

>  <SCORE.RESTR.norm>
0.349106

>  <SCORE.SYSTEM>
0

>  <SCORE.SYSTEM.CONST>
0

>  <SCORE.SYSTEM.DIHEDRAL>
0

>  <SCORE.SYSTEM.SOLV>
0

>  <SCORE.SYSTEM.norm>
0

>  <SCORE.heavy>
42

>  <SCORE.norm>
6.81949

>  <RMSD>
15.961

$$$$
ligand
 OpenBabel11021811513D
libRbt.so/2013.1/901 2013/11/27
 42 48  0  0  0  0  0  0  0  0999 V2000
   -9.8143  -37.0864  -14.9656 P   0  0  2  0  0  0  0  0  0  0  0  0
   -8.7616  -32.3775  -16.4598 P   0  0  1  0  0  0  0  0  0  0  0  0
  -10.4783  -38.0276  -15.9434 O   0  5  0  0  0  0  0  0  0  0  0  0
   -8.5913  -32.2631  -14.9637 O   0  5  0  0  0  0  0  0  0  0  0  0
   -9.7860  -37.4259  -13.4946 O   0  0  0  0  0  0  0  0  0  0  0  0
   -8.2741  -31.2687  -17.3611 O   0  0  0  0  0  0  0  0  0  0  0  0
  -11.8603  -35.5032  -15.4795 C   0  0  0  0  0  0  0  0  0  0  0  0
   -6.6912  -33.9894  -16.7218 C   0  0  0  0  0  0  0  0  0  0  0  0
  -10.4821  -35.6316  -15.1344 O   0  0  0  0  0  0  0  0  0  0  0  0
   -8.0803  -33.7548  -16.9409 O   0  0  0  0  0  0  0  0  0  0  0  0
  -12.0661  -34.2226  -16.2797 C   0  0  1  0  0  0  0  0  0  0  0  0
   -6.4998  -35.3571  -16.0784 C   0  0  1  0  0  0  0  0  0  0  0  0
  -13.4310  -33.8068  -16.1814 O   0  0  0  0  0  0  0  0  0  0  0  0
   -5.2536  -35.3908  -15.3787 O   0  0  0  0  0  0  0  0  0  0  0  0
  -11.1970  -33.0953  -15.7483 C   0  0  1  0  0  0  0  0  0  0  0  0
   -7.6036  -35.6549  -15.0761 C   0  0  1  0  0  0  0  0  0  0  0  0
  -10.3216  -32.6295  -16.7709 O   0  0  0  0  0  0  0  0  0  0  0  0
   -8.3012  -36.8376  -15.4550 O   0  0  0  0  0  0  0  0  0  0  0  0
  -12.1427  -31.9855  -15.3281 C   0  0  0  0  0  0  0  0  0  0  0  0
   -6.9234  -35.8590  -13.7362 C   0  0  0  0  0  0  0  0  0  0  0  0
  -13.5455  -32.4949  -15.6236 C   0  0  2  0  0  0  0  0  0  0  0  0
   -5.4337  -35.6762  -13.9894 C   0  0  2  0  0  0  0  0  0  0  0  0
  -18.0128  -31.1759  -13.1982 N   0  0  0  0  0  0  0  0  0  0  0  0
  -17.6047  -30.9331  -14.4575 C   0  0  0  0  0  0  0  0  0  0  0  0
  -16.4187  -31.3358  -14.9498 N   0  0  0  0  0  0  0  0  0  0  0  0
  -15.5458  -32.0292  -14.1802 C   0  0  0  0  0  0  0  0  0  0  0  0
  -15.9198  -32.3347  -12.7904 C   0  0  0  0  0  0  0  0  0  0  0  0
  -17.2421  -31.8571  -12.3209 C   0  0  0  0  0  0  0  0  0  0  0  0
  -17.6644  -32.0960  -11.0559 N   0  0  0  0  0  0  0  0  0  0  0  0
  -14.8911  -33.0206  -12.2579 N   0  0  0  0  0  0  0  0  0  0  0  0
  -13.9416  -33.1439  -13.2205 C   0  0  0  0  0  0  0  0  0  0  0  0
  -14.3318  -32.5532  -14.3664 N   0  0  0  0  0  0  0  0  0  0  0  0
   -2.2544  -31.5007  -13.8189 N   0  0  0  0  0  0  0  0  0  0  0  0
   -2.4824  -32.3774  -14.8143 C   0  0  0  0  0  0  0  0  0  0  0  0
   -3.3350  -33.4134  -14.7171 N   0  0  0  0  0  0  0  0  0  0  0  0
   -4.0309  -33.6351  -13.5758 C   0  0  0  0  0  0  0  0  0  0  0  0
   -3.8362  -32.7190  -12.4414 C   0  0  0  0  0  0  0  0  0  0  0  0
   -2.8802  -31.6017  -12.6265 C   0  0  0  0  0  0  0  0  0  0  0  0
   -2.6425  -30.7117  -11.6317 N   0  0  0  0  0  0  0  0  0  0  0  0
   -4.6347  -33.1595  -11.4509 N   0  0  0  0  0  0  0  0  0  0  0  0
   -5.2830  -34.2606  -11.9104 C   0  0  0  0  0  0  0  0  0  0  0  0
   -4.9234  -34.5440  -13.1759 N   0  0  0  0  0  0  0  0  0  0  0  0
  1  3  1  6  0  0  0
  1  5  2  0  0  0  0
  1  9  1  0  0  0  0
  1 18  1  0  0  0  0
  2  4  1  1  0  0  0
  2  6  2  0  0  0  0
  2 10  1  0  0  0  0
  2 17  1  0  0  0  0
  7  9  1  0  0  0  0
  8 10  1  0  0  0  0
 11  7  1  1  0  0  0
 11 13  1  0  0  0  0
 11 15  1  0  0  0  0
 12  8  1  1  0  0  0
 12 14  1  0  0  0  0
 12 16  1  0  0  0  0
 13 21  1  0  0  0  0
 14 22  1  0  0  0  0
 15 17  1  6  0  0  0
 15 19  1  0  0  0  0
 16 18  1  6  0  0  0
 16 20  1  0  0  0  0
 19 21  1  0  0  0  0
 20 22  1  0  0  0  0
 21 32  1  1  0  0  0
 22 42  1  1  0  0  0
 23 24  2  0  0  0  0
 23 28  1  0  0  0  0
 24 25  1  0  0  0  0
 25 26  2  0  0  0  0
 26 27  1  0  0  0  0
 26 32  1  0  0  0  0
 27 28  2  0  0  0  0
 27 30  1  0  0  0  0
 28 29  1  0  0  0  0
 30 31  2  0  0  0  0
 31 32  1  0  0  0  0
 33 34  2  0  0  0  0
 33 38  1  0  0  0  0
 34 35  1  0  0  0  0
 35 36  2  0  0  0  0
 36 37  1  0  0  0  0
 36 42  1  0  0  0  0
 37 38  2  0  0  0  0
 37 40  1  0  0  0  0
 38 39  1  0  0  0  0
 40 41  2  0  0  0  0
 41 42  1  0  0  0  0
M  CHG  2   3  -1   4  -1
M  END
>  <CHROM.1>
-112.33933544,-21.98113033,-9.57100825,-33.67034323,-14.57284760,0.09207130
0.03633075,-2.71682743

>  <Name>
ligand

>  <RI>
0

>  <Rbt.Current_Directory>
/home/itssahil/PROJECTS/Mol_Feturizer/New_Systems/rnas/4QLN

>  <Rbt.Executable>
rbdock ($Id: //depot/dev/client3/rdock/2013.1/src/exe/rbdock.cxx#4 $)

>  <Rbt.Library>
libRbt.so (2013.1, Build901 2013/11/27)

>  <Rbt.Parameter_File>
/export/apps/rDock/src/rDock_2013.1_src/data/scripts/dock_solv.prm

>  <Rbt.Receptor>
prm/blind_docking_80.prm

>  <SCORE>
213.15

>  <SCORE.INTER>
201.819

>  <SCORE.INTER.CONST>
1

>  <SCORE.INTER.POLAR>
0

>  <SCORE.INTER.ROT>
2

>  <SCORE.INTER.SOLV>
59.7404

>  <SCORE.INTER.VDW>
109.699

>  <SCORE.INTER.norm>
4.80521

>  <SCORE.INTRA>
1.20855

>  <SCORE.INTRA.DIHEDRAL>
0.000734653

>  <SCORE.INTRA.DIHEDRAL.0>
2.39985

>  <SCORE.INTRA.POLAR>
0

>  <SCORE.INTRA.POLAR.0>
0

>  <SCORE.INTRA.REPUL>
0

>  <SCORE.INTRA.REPUL.0>
0

>  <SCORE.INTRA.SOLV>
-0.0804518

>  <SCORE.INTRA.SOLV.lig_0>
-110.958

>  <SCORE.INTRA.VDW>
1.24841

>  <SCORE.INTRA.VDW.0>
-2.34644

>  <SCORE.INTRA.norm>
0.0287749

>  <SCORE.RESTR>
10.1227

>  <SCORE.RESTR.CAVITY>
10.1227

>  <SCORE.RESTR.norm>
0.241016

>  <SCORE.SYSTEM>
0

>  <SCORE.SYSTEM.CONST>
0

>  <SCORE.SYSTEM.DIHEDRAL>
0

>  <SCORE.SYSTEM.SOLV>
0

>  <SCORE.SYSTEM.norm>
0

>  <SCORE.heavy>
42

>  <SCORE.norm>
5.075

>  <RMSD>
16.367

$$$$
ligand
 OpenBabel11021811513D
libRbt.so/2013.1/901 2013/11/27
 42 48  0  0  0  0  0  0  0  0999 V2000
  -10.2871  -36.1413  -14.8533 P   0  0  2  0  0  0  0  0  0  0  0  0
   -8.7717  -31.8701  -17.0837 P   0  0  1  0  0  0  0  0  0  0  0  0
  -10.9920  -37.1858  -15.6870 O   0  5  0  0  0  0  0  0  0  0  0  0
   -8.6504  -31.5058  -15.6232 O   0  5  0  0  0  0  0  0  0  0  0  0
  -10.3456  -36.2156  -13.3463 O   0  0  0  0  0  0  0  0  0  0  0  0
   -8.1550  -30.9807  -18.1363 O   0  0  0  0  0  0  0  0  0  0  0  0
  -12.1662  -34.5183  -15.7430 C   0  0  0  0  0  0  0  0  0  0  0  0
   -6.8407  -33.6609  -16.9507 C   0  0  0  0  0  0  0  0  0  0  0  0
  -10.8188  -34.6916  -15.3076 O   0  0  0  0  0  0  0  0  0  0  0  0
   -8.1946  -33.3602  -17.2812 O   0  0  0  0  0  0  0  0  0  0  0  0
  -12.2286  -33.3878  -16.7632 C   0  0  1  0  0  0  0  0  0  0  0  0
   -6.7940  -34.9034  -16.0704 C   0  0  1  0  0  0  0  0  0  0  0  0
  -13.5550  -32.8550  -16.8118 O   0  0  0  0  0  0  0  0  0  0  0  0
   -5.5836  -34.9105  -15.3096 O   0  0  0  0  0  0  0  0  0  0  0  0
  -11.2861  -32.2562  -16.3898 C   0  0  1  0  0  0  0  0  0  0  0  0
   -7.9577  -34.9308  -15.0921 C   0  0  1  0  0  0  0  0  0  0  0  0
  -10.3344  -32.0497  -17.4294 O   0  0  0  0  0  0  0  0  0  0  0  0
   -8.7402  -36.1033  -15.2967 O   0  0  0  0  0  0  0  0  0  0  0  0
  -12.1473  -31.0185  -16.2199 C   0  0  0  0  0  0  0  0  0  0  0  0
   -7.3504  -34.9468  -13.7027 C   0  0  0  0  0  0  0  0  0  0  0  0
  -13.5766  -31.4600  -16.4972 C   0  0  2  0  0  0  0  0  0  0  0  0
   -5.8417  -34.9298  -13.9035 C   0  0  2  0  0  0  0  0  0  0  0  0
  -17.5107  -33.2407  -13.5089 N   0  0  0  0  0  0  0  0  0  0  0  0
  -16.9713  -33.7544  -14.6298 C   0  0  0  0  0  0  0  0  0  0  0  0
  -15.9536  -33.1828  -15.2996 N   0  0  0  0  0  0  0  0  0  0  0  0
  -15.4004  -32.0244  -14.8672 C   0  0  0  0  0  0  0  0  0  0  0  0
  -15.9353  -31.4000  -13.6471 C   0  0  0  0  0  0  0  0  0  0  0  0
  -17.0568  -32.0890  -12.9657 C   0  0  0  0  0  0  0  0  0  0  0  0
  -17.6077  -31.5822  -11.8363 N   0  0  0  0  0  0  0  0  0  0  0  0
  -15.2184  -30.2788  -13.4437 N   0  0  0  0  0  0  0  0  0  0  0  0
  -14.3051  -30.1917  -14.4444 C   0  0  0  0  0  0  0  0  0  0  0  0
  -14.4132  -31.2323  -15.2929 N   0  0  0  0  0  0  0  0  0  0  0  0
   -1.5957  -31.8935  -13.3336 N   0  0  0  0  0  0  0  0  0  0  0  0
   -1.7666  -33.0206  -14.0491 C   0  0  0  0  0  0  0  0  0  0  0  0
   -2.9247  -33.7028  -14.1039 N   0  0  0  0  0  0  0  0  0  0  0  0
   -4.0142  -33.2771  -13.4200 C   0  0  0  0  0  0  0  0  0  0  0  0
   -3.9067  -32.0511  -12.6140 C   0  0  0  0  0  0  0  0  0  0  0  0
   -2.5977  -31.3563  -12.6049 C   0  0  0  0  0  0  0  0  0  0  0  0
   -2.4133  -30.2199  -11.8889 N   0  0  0  0  0  0  0  0  0  0  0  0
   -5.1131  -31.8566  -12.0486 N   0  0  0  0  0  0  0  0  0  0  0  0
   -5.9213  -32.8688  -12.4562 C   0  0  0  0  0  0  0  0  0  0  0  0
   -5.2669  -33.7149  -13.2728 N   0  0  0  0  0  0  0  0  0  0  0  0
  1  3  1  6  0  0  0
  1  5  2  0  0  0  0
  1  9  1  0  0  0  0
  1 18  1  0  0  0  0
  2  4  1  1  0  0  0
  2  6  2  0  0  0  0
  2 10  1  0  0  0  0
  2 17  1  0  0  0  0
  7  9  1  0  0  0  0
  8 10  1  0  0  0  0
 11  7  1  1  0  0  0
 11 13  1  0  0  0  0
 11 15  1  0  0  0  0
 12  8  1  1  0  0  0
 12 14  1  0  0  0  0
 12 16  1  0  0  0  0
 13 21  1  0  0  0  0
 14 22  1  0  0  0  0
 15 17  1  6  0  0  0
 15 19  1  0  0  0  0
 16 18  1  6  0  0  0
 16 20  1  0  0  0  0
 19 21  1  0  0  0  0
 20 22  1  0  0  0  0
 21 32  1  1  0  0  0
 22 42  1  1  0  0  0
 23 24  2  0  0  0  0
 23 28  1  0  0  0  0
 24 25  1  0  0  0  0
 25 26  2  0  0  0  0
 26 27  1  0  0  0  0
 26 32  1  0  0  0  0
 27 28  2  0  0  0  0
 27 30  1  0  0  0  0
 28 29  1  0  0  0  0
 30 31  2  0  0  0  0
 31 32  1  0  0  0  0
 33 34  2  0  0  0  0
 33 38  1  0  0  0  0
 34 35  1  0  0  0  0
 35 36  2  0  0  0  0
 36 37  1  0  0  0  0
 36 42  1  0  0  0  0
 37 38  2  0  0  0  0
 37 40  1  0  0  0  0
 38 39  1  0  0  0  0
 40 41  2  0  0  0  0
 41 42  1  0  0  0  0
M  CHG  2   3  -1   4  -1
M  END
>  <CHROM.1>
-24.70752987,-51.13483982,-9.66310039,-33.12555227,-14.88040215,3.12029124
-0.08158180,0.36275893

>  <Name>
ligand

>  <RI>
0

>  <Rbt.Current_Directory>
/home/itssahil/PROJECTS/Mol_Feturizer/New_Systems/rnas/4QLN

>  <Rbt.Executable>
rbdock ($Id: //depot/dev/client3/rdock/2013.1/src/exe/rbdock.cxx#4 $)

>  <Rbt.Library>
libRbt.so (2013.1, Build901 2013/11/27)

>  <Rbt.Parameter_File>
/export/apps/rDock/src/rDock_2013.1_src/data/scripts/dock_solv.prm

>  <Rbt.Receptor>
prm/blind_docking_80.prm

>  <SCORE>
214.696

>  <SCORE.INTER>
202.842

>  <SCORE.INTER.CONST>
1

>  <SCORE.INTER.POLAR>
0

>  <SCORE.INTER.ROT>
2

>  <SCORE.INTER.SOLV>
61.0087

>  <SCORE.INTER.VDW>
109.958

>  <SCORE.INTER.norm>
4.82956

>  <SCORE.INTRA>
2.07075

>  <SCORE.INTRA.DIHEDRAL>
0.000737535

>  <SCORE.INTRA.DIHEDRAL.0>
2.39985

>  <SCORE.INTRA.POLAR>
0

>  <SCORE.INTRA.POLAR.0>
0

>  <SCORE.INTRA.REPUL>
0

>  <SCORE.INTRA.REPUL.0>
0

>  <SCORE.INTRA.SOLV>
-0.0506751

>  <SCORE.INTRA.SOLV.lig_0>
-110.958

>  <SCORE.INTRA.VDW>
2.09572

>  <SCORE.INTRA.VDW.0>
-2.34644

>  <SCORE.INTRA.norm>
0.0493035

>  <SCORE.RESTR>
9.78378

>  <SCORE.RESTR.CAVITY>
9.78378

>  <SCORE.RESTR.norm>
0.232947

>  <SCORE.SYSTEM>
0

>  <SCORE.SYSTEM.CONST>
0

>  <SCORE.SYSTEM.DIHEDRAL>
0

>  <SCORE.SYSTEM.SOLV>
0

>  <SCORE.SYSTEM.norm>
0

>  <SCORE.heavy>
42

>  <SCORE.norm>
5.11181

>  <RMSD>
16.407

$$$$
ligand
 OpenBabel11021811513D
libRbt.so/2013.1/901 2013/11/27
 42 48  0  0  0  0  0  0  0  0999 V2000
  -16.6783  -23.7991    0.1749 P   0  0  2  0  0  0  0  0  0  0  0  0
  -14.3958  -26.9211   -3.0743 P   0  0  1  0  0  0  0  0  0  0  0  0
  -17.4099  -24.3896    1.3577 O   0  5  0  0  0  0  0  0  0  0  0  0
  -14.3957  -25.6263   -3.8513 O   0  5  0  0  0  0  0  0  0  0  0  0
  -16.9159  -22.3600   -0.2154 O   0  0  0  0  0  0  0  0  0  0  0  0
  -13.5571  -28.0842   -3.5470 O   0  0  0  0  0  0  0  0  0  0  0  0
  -18.2258  -25.3824   -1.2588 C   0  0  0  0  0  0  0  0  0  0  0  0
  -12.7326  -25.9982   -1.2480 C   0  0  0  0  0  0  0  0  0  0  0  0
  -16.9689  -24.7244   -1.1097 O   0  0  0  0  0  0  0  0  0  0  0  0
  -13.9918  -26.5945   -1.5502 O   0  0  0  0  0  0  0  0  0  0  0  0
  -18.0299  -26.6829   -2.0288 C   0  0  1  0  0  0  0  0  0  0  0  0
  -12.9423  -24.8000   -0.3307 C   0  0  1  0  0  0  0  0  0  0  0  0
  -19.2647  -27.0754   -2.6343 O   0  0  0  0  0  0  0  0  0  0  0  0
  -11.8363  -23.9020   -0.4496 O   0  0  0  0  0  0  0  0  0  0  0  0
  -17.0010  -26.5187   -3.1346 C   0  0  1  0  0  0  0  0  0  0  0  0
  -14.2033  -24.0355   -0.7010 C   0  0  1  0  0  0  0  0  0  0  0  0
  -15.9195  -27.4237   -2.9342 O   0  0  0  0  0  0  0  0  0  0  0  0
  -15.0988  -24.0049    0.4064 O   0  0  0  0  0  0  0  0  0  0  0  0
  -17.7135  -26.8400   -4.4352 C   0  0  0  0  0  0  0  0  0  0  0  0
  -13.7640  -22.6275   -1.0536 C   0  0  0  0  0  0  0  0  0  0  0  0
  -19.1464  -27.1830   -4.0555 C   0  0  2  0  0  0  0  0  0  0  0  0
  -12.2522  -22.6032   -0.8788 C   0  0  2  0  0  0  0  0  0  0  0  0
  -20.4870  -24.7347   -8.5037 N   0  0  0  0  0  0  0  0  0  0  0  0
  -19.4942  -25.6101   -8.2603 C   0  0  0  0  0  0  0  0  0  0  0  0
  -19.2650  -26.1645   -7.0557 N   0  0  0  0  0  0  0  0  0  0  0  0
  -20.0463  -25.8621   -5.9912 C   0  0  0  0  0  0  0  0  0  0  0  0
  -21.1542  -24.9120   -6.1772 C   0  0  0  0  0  0  0  0  0  0  0  0
  -21.3425  -24.3432   -7.5329 C   0  0  0  0  0  0  0  0  0  0  0  0
  -22.3387  -23.4618   -7.7905 N   0  0  0  0  0  0  0  0  0  0  0  0
  -21.7607  -24.7907   -4.9814 N   0  0  0  0  0  0  0  0  0  0  0  0
  -21.1004  -25.5916   -4.1063 C   0  0  0  0  0  0  0  0  0  0  0  0
  -20.0786  -26.2304   -4.7081 N   0  0  0  0  0  0  0  0  0  0  0  0
  -12.9164  -21.8566   -6.0338 N   0  0  0  0  0  0  0  0  0  0  0  0
  -13.8122  -22.1729   -5.0804 C   0  0  0  0  0  0  0  0  0  0  0  0
  -13.4970  -22.3350   -3.7828 N   0  0  0  0  0  0  0  0  0  0  0  0
  -12.2206  -22.1832   -3.3542 C   0  0  0  0  0  0  0  0  0  0  0  0
  -11.1827  -21.8367   -4.3375 C   0  0  0  0  0  0  0  0  0  0  0  0
  -11.6092  -21.6750   -5.7475 C   0  0  0  0  0  0  0  0  0  0  0  0
  -10.7165  -21.3558   -6.7167 N   0  0  0  0  0  0  0  0  0  0  0  0
  -10.0243  -21.7469   -3.6571 N   0  0  0  0  0  0  0  0  0  0  0  0
  -10.2964  -22.0129   -2.3536 C   0  0  0  0  0  0  0  0  0  0  0  0
  -11.6044  -22.2729   -2.1732 N   0  0  0  0  0  0  0  0  0  0  0  0
  1  3  1  1  0  0  0
  1  5  2  0  0  0  0
  1  9  1  0  0  0  0
  1 18  1  0  0  0  0
  2  4  1  6  0  0  0
  2  6  2  0  0  0  0
  2 10  1  0  0  0  0
  2 17  1  0  0  0  0
  7  9  1  0  0  0  0
  8 10  1  0  0  0  0
 11  7  1  6  0  0  0
 11 13  1  0  0  0  0
 11 15  1  0  0  0  0
 12  8  1  6  0  0  0
 12 14  1  0  0  0  0
 12 16  1  0  0  0  0
 13 21  1  0  0  0  0
 14 22  1  0  0  0  0
 15 17  1  1  0  0  0
 15 19  1  0  0  0  0
 16 18  1  1  0  0  0
 16 20  1  0  0  0  0
 19 21  1  0  0  0  0
 20 22  1  0  0  0  0
 21 32  1  6  0  0  0
 22 42  1  6  0  0  0
 23 24  2  0  0  0  0
 23 28  1  0  0  0  0
 24 25  1  0  0  0  0
 25 26  2  0  0  0  0
 26 27  1  0  0  0  0
 26 32  1  0  0  0  0
 27 28  2  0  0  0  0
 27 30  1  0  0  0  0
 28 29  1  0  0  0  0
 30 31  2  0  0  0  0
 31 32  1  0  0  0  0
 33 34  2  0  0  0  0
 33 38  1  0  0  0  0
 34 35  1  0  0  0  0
 35 36  2  0  0  0  0
 36 37  1  0  0  0  0
 36 42  1  0  0  0  0
 37 38  2  0  0  0  0
 37 40  1  0  0  0  0
 38 39  1  0  0  0  0
 40 41  2  0  0  0  0
 41 42  1  0  0  0  0
M  CHG  2   3  -1   4  -1
M  END
>  <CHROM.1>
165.37951759,110.20670627,-15.85127957,-24.59168182,-3.23063268,0.27124114
0.38712442,1.86063723

>  <Name>
ligand

>  <RI>
0

>  <Rbt.Current_Directory>
/home/itssahil/PROJECTS/Mol_Feturizer/New_Systems/rnas/4QLN

>  <Rbt.Executable>
rbdock ($Id: //depot/dev/client3/rdock/2013.1/src/exe/rbdock.cxx#4 $)

>  <Rbt.Library>
libRbt.so (2013.1, Build901 2013/11/27)

>  <Rbt.Parameter_File>
/export/apps/rDock/src/rDock_2013.1_src/data/scripts/dock_solv.prm

>  <Rbt.Receptor>
prm/blind_docking_80.prm

>  <SCORE>
57.6645

>  <SCORE.INTER>
34.4584

>  <SCORE.INTER.CONST>
1

>  <SCORE.INTER.POLAR>
0

>  <SCORE.INTER.ROT>
2

>  <SCORE.INTER.SOLV>
45.1482

>  <SCORE.INTER.VDW>
2.98954

>  <SCORE.INTER.norm>
0.820439

>  <SCORE.INTRA>
2.4646

>  <SCORE.INTRA.DIHEDRAL>
0.000337683

>  <SCORE.INTRA.DIHEDRAL.0>
2.39985

>  <SCORE.INTRA.POLAR>
0

>  <SCORE.INTRA.POLAR.0>
0

>  <SCORE.INTRA.REPUL>
0

>  <SCORE.INTRA.REPUL.0>
0

>  <SCORE.INTRA.SOLV>
0.141848

>  <SCORE.INTRA.SOLV.lig_0>
-110.958

>  <SCORE.INTRA.VDW>
2.39351

>  <SCORE.INTRA.VDW.0>
-2.34644

>  <SCORE.INTRA.norm>
0.0586809

>  <SCORE.RESTR>
20.7415

>  <SCORE.RESTR.CAVITY>
20.7415

>  <SCORE.RESTR.norm>
0.493846

>  <SCORE.SYSTEM>
0

>  <SCORE.SYSTEM.CONST>
0

>  <SCORE.SYSTEM.DIHEDRAL>
0

>  <SCORE.SYSTEM.SOLV>
0

>  <SCORE.SYSTEM.norm>
0

>  <SCORE.heavy>
42

>  <SCORE.norm>
1.37297

>  <RMSD>
26.698

$$$$
ligand
 OpenBabel11021811513D
libRbt.so/2013.1/901 2013/11/27
 42 48  0  0  0  0  0  0  0  0999 V2000
  -17.0848  -24.4411    0.2081 P   0  0  2  0  0  0  0  0  0  0  0  0
  -14.4969  -27.1988   -3.1404 P   0  0  1  0  0  0  0  0  0  0  0  0
  -17.5021  -25.0834    1.5105 O   0  5  0  0  0  0  0  0  0  0  0  0
  -14.9103  -26.0149   -3.9817 O   0  5  0  0  0  0  0  0  0  0  0  0
  -17.7170  -23.1406   -0.2265 O   0  0  0  0  0  0  0  0  0  0  0  0
  -13.4572  -28.1642   -3.6565 O   0  0  0  0  0  0  0  0  0  0  0  0
  -18.3479  -26.4682   -0.9112 C   0  0  0  0  0  0  0  0  0  0  0  0
  -12.9123  -25.7482   -1.6114 C   0  0  0  0  0  0  0  0  0  0  0  0
  -17.2854  -25.5181   -0.9713 O   0  0  0  0  0  0  0  0  0  0  0  0
  -14.0103  -26.6527   -1.7060 O   0  0  0  0  0  0  0  0  0  0  0  0
  -17.9269  -27.7464   -1.6264 C   0  0  1  0  0  0  0  0  0  0  0  0
  -13.3037  -24.5593   -0.7429 C   0  0  1  0  0  0  0  0  0  0  0  0
  -19.0878  -28.4745   -2.0358 O   0  0  0  0  0  0  0  0  0  0  0  0
  -12.4776  -23.4367   -1.0610 O   0  0  0  0  0  0  0  0  0  0  0  0
  -17.1088  -27.4384   -2.8691 C   0  0  1  0  0  0  0  0  0  0  0  0
  -14.7497  -24.1543   -0.9809 C   0  0  1  0  0  0  0  0  0  0  0  0
  -15.8204  -28.0372   -2.7668 O   0  0  0  0  0  0  0  0  0  0  0  0
  -15.4878  -24.2418    0.2343 O   0  0  0  0  0  0  0  0  0  0  0  0
  -17.8671  -28.0337   -4.0408 C   0  0  0  0  0  0  0  0  0  0  0  0
  -14.7189  -22.7186   -1.4683 C   0  0  0  0  0  0  0  0  0  0  0  0
  -19.1147  -28.6749   -3.4515 C   0  0  2  0  0  0  0  0  0  0  0  0
  -13.2509  -22.3180   -1.5020 C   0  0  2  0  0  0  0  0  0  0  0  0
  -21.1600  -24.3483   -5.6138 N   0  0  0  0  0  0  0  0  0  0  0  0
  -19.9109  -24.5924   -5.1763 C   0  0  0  0  0  0  0  0  0  0  0  0
  -19.5231  -25.7627   -4.6369 N   0  0  0  0  0  0  0  0  0  0  0  0
  -20.3964  -26.7894   -4.5023 C   0  0  0  0  0  0  0  0  0  0  0  0
  -21.7825  -26.6004   -4.9581 C   0  0  0  0  0  0  0  0  0  0  0  0
  -22.1336  -25.2834   -5.5405 C   0  0  0  0  0  0  0  0  0  0  0  0
  -23.3872  -25.0259   -5.9851 N   0  0  0  0  0  0  0  0  0  0  0  0
  -22.4283  -27.7558   -4.7126 N   0  0  0  0  0  0  0  0  0  0  0  0
  -21.5359  -28.6099   -4.1492 C   0  0  0  0  0  0  0  0  0  0  0  0
  -20.3247  -28.0341   -4.0240 N   0  0  0  0  0  0  0  0  0  0  0  0
  -14.4044  -22.7210   -6.6088 N   0  0  0  0  0  0  0  0  0  0  0  0
  -15.0390  -23.2240   -5.5337 C   0  0  0  0  0  0  0  0  0  0  0  0
  -14.6254  -23.0387   -4.2672 N   0  0  0  0  0  0  0  0  0  0  0  0
  -13.5131  -22.3127   -3.9993 C   0  0  0  0  0  0  0  0  0  0  0  0
  -12.7640  -21.7290   -5.1227 C   0  0  0  0  0  0  0  0  0  0  0  0
  -13.2834  -21.9778   -6.4882 C   0  0  0  0  0  0  0  0  0  0  0  0
  -12.6536  -21.4759   -7.5790 N   0  0  0  0  0  0  0  0  0  0  0  0
  -11.7209  -21.0679   -4.5862 N   0  0  0  0  0  0  0  0  0  0  0  0
  -11.7954  -21.2157   -3.2384 C   0  0  0  0  0  0  0  0  0  0  0  0
  -12.8627  -21.9571   -2.8888 N   0  0  0  0  0  0  0  0  0  0  0  0
  1  3  1  1  0  0  0
  1  5  2  0  0  0  0
  1  9  1  0  0  0  0
  1 18  1  0  0  0  0
  2  4  1  6  0  0  0
  2  6  2  0  0  0  0
  2 10  1  0  0  0  0
  2 17  1  0  0  0  0
  7  9  1  0  0  0  0
  8 10  1  0  0  0  0
 11  7  1  6  0  0  0
 11 13  1  0  0  0  0
 11 15  1  0  0  0  0
 12  8  1  6  0  0  0
 12 14  1  0  0  0  0
 12 16  1  0  0  0  0
 13 21  1  0  0  0  0
 14 22  1  0  0  0  0
 15 17  1  1  0  0  0
 15 19  1  0  0  0  0
 16 18  1  1  0  0  0
 16 20  1  0  0  0  0
 19 21  1  0  0  0  0
 20 22  1  0  0  0  0
 21 32  1  6  0  0  0
 22 42  1  6  0  0  0
 23 24  2  0  0  0  0
 23 28  1  0  0  0  0
 24 25  1  0  0  0  0
 25 26  2  0  0  0  0
 26 27  1  0  0  0  0
 26 32  1  0  0  0  0
 27 28  2  0  0  0  0
 27 30  1  0  0  0  0
 28 29  1  0  0  0  0
 30 31  2  0  0  0  0
 31 32  1  0  0  0  0
 33 34  2  0  0  0  0
 33 38  1  0  0  0  0
 34 35  1  0  0  0  0
 35 36  2  0  0  0  0
 36 37  1  0  0  0  0
 36 42  1  0  0  0  0
 37 38  2  0  0  0  0
 37 40  1  0  0  0  0
 38 39  1  0  0  0  0
 40 41  2  0  0  0  0
 41 42  1  0  0  0  0
M  CHG  2   3  -1   4  -1
M  END
>  <CHROM.1>
92.11098377,98.63372027,-16.44005128,-25.13114805,-3.05272770,-0.15357972
0.47651119,2.07606229

>  <Name>
ligand

>  <RI>
0

>  <Rbt.Current_Directory>
/home/itssahil/PROJECTS/Mol_Feturizer/New_Systems/rnas/4QLN

>  <Rbt.Executable>
rbdock ($Id: //depot/dev/client3/rdock/2013.1/src/exe/rbdock.cxx#4 $)

>  <Rbt.Library>
libRbt.so (2013.1, Build901 2013/11/27)

>  <Rbt.Parameter_File>
/export/apps/rDock/src/rDock_2013.1_src/data/scripts/dock_solv.prm

>  <Rbt.Receptor>
prm/blind_docking_80.prm

>  <SCORE>
92.2777

>  <SCORE.INTER>
78.2993

>  <SCORE.INTER.CONST>
1

>  <SCORE.INTER.POLAR>
0

>  <SCORE.INTER.ROT>
2

>  <SCORE.INTER.SOLV>
45.3105

>  <SCORE.INTER.VDW>
32.1627

>  <SCORE.INTER.norm>
1.86427

>  <SCORE.INTRA>
2.02316

>  <SCORE.INTRA.DIHEDRAL>
0.00108656

>  <SCORE.INTRA.DIHEDRAL.0>
2.39985

>  <SCORE.INTRA.POLAR>
0

>  <SCORE.INTRA.POLAR.0>
0

>  <SCORE.INTRA.REPUL>
0

>  <SCORE.INTRA.REPUL.0>
0

>  <SCORE.INTRA.SOLV>
0.44899

>  <SCORE.INTRA.SOLV.lig_0>
-110.958

>  <SCORE.INTRA.VDW>
1.79813

>  <SCORE.INTRA.VDW.0>
-2.34644

>  <SCORE.INTRA.norm>
0.0481706

>  <SCORE.RESTR>
11.9552

>  <SCORE.RESTR.CAVITY>
11.9552

>  <SCORE.RESTR.norm>
0.284649

>  <SCORE.SYSTEM>
0

>  <SCORE.SYSTEM.CONST>
0

>  <SCORE.SYSTEM.DIHEDRAL>
0

>  <SCORE.SYSTEM.SOLV>
0

>  <SCORE.SYSTEM.norm>
0

>  <SCORE.heavy>
42

>  <SCORE.norm>
2.19709

>  <RMSD>
27.117

$$$$
ligand
 OpenBabel11021811513D
libRbt.so/2013.1/901 2013/11/27
 42 48  0  0  0  0  0  0  0  0999 V2000
  -17.0916  -24.4397    0.2183 P   0  0  2  0  0  0  0  0  0  0  0  0
  -14.5166  -27.2044   -3.1343 P   0  0  1  0  0  0  0  0  0  0  0  0
  -17.5052  -25.0797    1.5230 O   0  5  0  0  0  0  0  0  0  0  0  0
  -14.9318  -26.0214   -3.9761 O   0  5  0  0  0  0  0  0  0  0  0  0
  -17.7242  -23.1394   -0.2162 O   0  0  0  0  0  0  0  0  0  0  0  0
  -13.4793  -28.1714   -3.6523 O   0  0  0  0  0  0  0  0  0  0  0  0
  -18.3598  -26.4675   -0.8939 C   0  0  0  0  0  0  0  0  0  0  0  0
  -12.9259  -25.7527   -1.6127 C   0  0  0  0  0  0  0  0  0  0  0  0
  -17.2969  -25.5183   -0.9588 O   0  0  0  0  0  0  0  0  0  0  0  0
  -14.0249  -26.6565   -1.7024 O   0  0  0  0  0  0  0  0  0  0  0  0
  -17.9421  -27.7472   -1.6084 C   0  0  1  0  0  0  0  0  0  0  0  0
  -13.3137  -24.5622   -0.7447 C   0  0  1  0  0  0  0  0  0  0  0  0
  -19.1049  -28.4750   -2.0130 O   0  0  0  0  0  0  0  0  0  0  0  0
  -12.4878  -23.4407   -1.0671 O   0  0  0  0  0  0  0  0  0  0  0  0
  -17.1278  -27.4417   -2.8542 C   0  0  1  0  0  0  0  0  0  0  0  0
  -14.7602  -24.1564   -0.9787 C   0  0  1  0  0  0  0  0  0  0  0  0
  -15.8395  -28.0412   -2.7552 O   0  0  0  0  0  0  0  0  0  0  0  0
  -15.4944  -24.2416    0.2390 O   0  0  0  0  0  0  0  0  0  0  0  0
  -17.8904  -28.0381   -4.0227 C   0  0  0  0  0  0  0  0  0  0  0  0
  -14.7299  -22.7215   -1.4684 C   0  0  0  0  0  0  0  0  0  0  0  0
  -19.1365  -28.6775   -3.4283 C   0  0  2  0  0  0  0  0  0  0  0  0
  -13.2617  -22.3220   -1.5074 C   0  0  2  0  0  0  0  0  0  0  0  0
  -21.2755  -24.2591   -5.2942 N   0  0  0  0  0  0  0  0  0  0  0  0
  -20.0367  -24.4915   -4.8223 C   0  0  0  0  0  0  0  0  0  0  0  0
  -19.6213  -25.6892   -4.3705 N   0  0  0  0  0  0  0  0  0  0  0  0
  -20.4536  -26.7579   -4.3675 C   0  0  0  0  0  0  0  0  0  0  0  0
  -21.8259  -26.5841   -4.8689 C   0  0  0  0  0  0  0  0  0  0  0  0
  -22.2092  -25.2352   -5.3488 C   0  0  0  0  0  0  0  0  0  0  0  0
  -23.4528  -24.9890   -5.8269 N   0  0  0  0  0  0  0  0  0  0  0  0
  -22.4303  -27.7818   -4.7564 N   0  0  0  0  0  0  0  0  0  0  0  0
  -21.5262  -28.6467   -4.2295 C   0  0  0  0  0  0  0  0  0  0  0  0
  -20.3478  -28.0367   -3.9979 N   0  0  0  0  0  0  0  0  0  0  0  0
  -14.4242  -22.7434   -6.6106 N   0  0  0  0  0  0  0  0  0  0  0  0
  -15.0547  -23.2458   -5.5329 C   0  0  0  0  0  0  0  0  0  0  0  0
  -14.6392  -23.0555   -4.2677 N   0  0  0  0  0  0  0  0  0  0  0  0
  -13.5291  -22.3246   -4.0041 C   0  0  0  0  0  0  0  0  0  0  0  0
  -12.7844  -21.7412   -5.1307 C   0  0  0  0  0  0  0  0  0  0  0  0
  -13.3057  -21.9957   -6.4944 C   0  0  0  0  0  0  0  0  0  0  0  0
  -12.6801  -21.4945   -7.5879 N   0  0  0  0  0  0  0  0  0  0  0  0
  -11.7428  -21.0747   -4.5982 N   0  0  0  0  0  0  0  0  0  0  0  0
  -11.8140  -21.2190   -3.2499 C   0  0  0  0  0  0  0  0  0  0  0  0
  -12.8777  -21.9635   -2.8960 N   0  0  0  0  0  0  0  0  0  0  0  0
  1  3  1  1  0  0  0
  1  5  2  0  0  0  0
  1  9  1  0  0  0  0
  1 18  1  0  0  0  0
  2  4  1  6  0  0  0
  2  6  2  0  0  0  0
  2 10  1  0  0  0  0
  2 17  1  0  0  0  0
  7  9  1  0  0  0  0
  8 10  1  0  0  0  0
 11  7  1  6  0  0  0
 11 13  1  0  0  0  0
 11 15  1  0  0  0  0
 12  8  1  6  0  0  0
 12 14  1  0  0  0  0
 12 16  1  0  0  0  0
 13 21  1  0  0  0  0
 14 22  1  0  0  0  0
 15 17  1  1  0  0  0
 15 19  1  0  0  0  0
 16 18  1  1  0  0  0
 16 20  1  0  0  0  0
 19 21  1  0  0  0  0
 20 22  1  0  0  0  0
 21 32  1  6  0  0  0
 22 42  1  6  0  0  0
 23 24  2  0  0  0  0
 23 28  1  0  0  0  0
 24 25  1  0  0  0  0
 25 26  2  0  0  0  0
 26 27  1  0  0  0  0
 26 32  1  0  0  0  0
 27 28  2  0  0  0  0
 27 30  1  0  0  0  0
 28 29  1  0  0  0  0
 30 31  2  0  0  0  0
 31 32  1  0  0  0  0
 33 34  2  0  0  0  0
 33 38  1  0  0  0  0
 34 35  1  0  0  0  0
 35 36  2  0  0  0  0
 36 37  1  0  0  0  0
 36 42  1  0  0  0  0
 37 38  2  0  0  0  0
 37 40  1  0  0  0  0
 38 39  1  0  0  0  0
 40 41  2  0  0  0  0
 41 42  1  0  0  0  0
M  CHG  2   3  -1   4  -1
M  END
>  <CHROM.1>
85.74530643,98.35765049,-16.46466604,-25.12841347,-3.01925572,-2.97150562
-0.46436296,-1.05357628

>  <Name>
ligand

>  <RI>
0

>  <Rbt.Current_Directory>
/home/itssahil/PROJECTS/Mol_Feturizer/New_Systems/rnas/4QLN

>  <Rbt.Executable>
rbdock ($Id: //depot/dev/client3/rdock/2013.1/src/exe/rbdock.cxx#4 $)

>  <Rbt.Library>
libRbt.so (2013.1, Build901 2013/11/27)

>  <Rbt.Parameter_File>
/export/apps/rDock/src/rDock_2013.1_src/data/scripts/dock_solv.prm

>  <Rbt.Receptor>
prm/blind_docking_80.prm

>  <SCORE>
92.9806

>  <SCORE.INTER>
79.3107

>  <SCORE.INTER.CONST>
1

>  <SCORE.INTER.POLAR>
0

>  <SCORE.INTER.ROT>
2

>  <SCORE.INTER.SOLV>
45.1728

>  <SCORE.INTER.VDW>
32.8829

>  <SCORE.INTER.norm>
1.88835

>  <SCORE.INTRA>
1.67574

>  <SCORE.INTRA.DIHEDRAL>
0.00108635

>  <SCORE.INTRA.DIHEDRAL.0>
2.39985

>  <SCORE.INTRA.POLAR>
0

>  <SCORE.INTRA.POLAR.0>
0

>  <SCORE.INTRA.REPUL>
0

>  <SCORE.INTRA.REPUL.0>
0

>  <SCORE.INTRA.SOLV>
0.465034

>  <SCORE.INTRA.SOLV.lig_0>
-110.958

>  <SCORE.INTRA.VDW>
1.44268

>  <SCORE.INTRA.VDW.0>
-2.34644

>  <SCORE.INTRA.norm>
0.0398985

>  <SCORE.RESTR>
11.9942

>  <SCORE.RESTR.CAVITY>
11.9942

>  <SCORE.RESTR.norm>
0.285576

>  <SCORE.SYSTEM>
0

>  <SCORE.SYSTEM.CONST>
0

>  <SCORE.SYSTEM.DIHEDRAL>
0

>  <SCORE.SYSTEM.SOLV>
0

>  <SCORE.SYSTEM.norm>
0

>  <SCORE.heavy>
42

>  <SCORE.norm>
2.21382

>  <RMSD>
27.158

$$$$
ligand
 OpenBabel11021811513D
libRbt.so/2013.1/901 2013/11/27
 42 48  0  0  0  0  0  0  0  0999 V2000
  -14.2241  -22.3028   -0.9841 P   0  0  2  0  0  0  0  0  0  0  0  0
  -15.3026  -25.3408   -4.8728 P   0  0  1  0  0  0  0  0  0  0  0  0
  -12.9144  -21.5495   -0.9922 O   0  5  0  0  0  0  0  0  0  0  0  0
  -16.3311  -25.7768   -3.8566 O   0  5  0  0  0  0  0  0  0  0  0  0
  -15.0188  -22.4174    0.2946 O   0  0  0  0  0  0  0  0  0  0  0  0
  -15.4241  -25.7901   -6.3090 O   0  0  0  0  0  0  0  0  0  0  0  0
  -12.7122  -24.4419   -1.2931 C   0  0  0  0  0  0  0  0  0  0  0  0
  -16.3761  -22.9486   -5.1532 C   0  0  0  0  0  0  0  0  0  0  0  0
  -13.9544  -23.7873   -1.5449 O   0  0  0  0  0  0  0  0  0  0  0  0
  -15.2240  -23.7327   -4.8524 O   0  0  0  0  0  0  0  0  0  0  0  0
  -12.3939  -25.3875   -2.4451 C   0  0  1  0  0  0  0  0  0  0  0  0
  -16.5713  -21.8928   -4.0724 C   0  0  1  0  0  0  0  0  0  0  0  0
  -11.4882  -26.4012   -2.0005 O   0  0  0  0  0  0  0  0  0  0  0  0
  -17.9394  -21.4787   -4.0440 O   0  0  0  0  0  0  0  0  0  0  0  0
  -13.6485  -26.0759   -2.9554 C   0  0  1  0  0  0  0  0  0  0  0  0
  -16.2229  -22.4397   -2.6972 C   0  0  1  0  0  0  0  0  0  0  0  0
  -13.8476  -25.7708   -4.3324 O   0  0  0  0  0  0  0  0  0  0  0  0
  -15.1770  -21.6674   -2.1151 O   0  0  0  0  0  0  0  0  0  0  0  0
  -13.4221  -27.5660   -2.7805 C   0  0  0  0  0  0  0  0  0  0  0  0
  -17.4814  -22.3266   -1.8586 C   0  0  0  0  0  0  0  0  0  0  0  0
  -12.0368  -27.7113   -2.1682 C   0  0  2  0  0  0  0  0  0  0  0  0
  -18.5375  -21.7131   -2.7668 C   0  0  2  0  0  0  0  0  0  0  0  0
  -12.0948  -27.1079    3.0482 N   0  0  0  0  0  0  0  0  0  0  0  0
  -11.9721  -26.1917    2.0700 C   0  0  0  0  0  0  0  0  0  0  0  0
  -11.9734  -26.4936    0.7585 N   0  0  0  0  0  0  0  0  0  0  0  0
  -12.1030  -27.7755    0.3403 C   0  0  0  0  0  0  0  0  0  0  0  0
  -12.2425  -28.8360    1.3507 C   0  0  0  0  0  0  0  0  0  0  0  0
  -12.2314  -28.4248    2.7747 C   0  0  0  0  0  0  0  0  0  0  0  0
  -12.3549  -29.3375    3.7683 N   0  0  0  0  0  0  0  0  0  0  0  0
  -12.3528  -29.9962    0.6768 N   0  0  0  0  0  0  0  0  0  0  0  0
  -12.2894  -29.7058   -0.6479 C   0  0  0  0  0  0  0  0  0  0  0  0
  -12.1408  -28.3822   -0.8486 N   0  0  0  0  0  0  0  0  0  0  0  0
  -20.1693  -26.3539   -4.6035 N   0  0  0  0  0  0  0  0  0  0  0  0
  -18.9538  -25.7784   -4.6570 C   0  0  0  0  0  0  0  0  0  0  0  0
  -18.6758  -24.5691   -4.1376 N   0  0  0  0  0  0  0  0  0  0  0  0
  -19.6355  -23.8443   -3.5134 C   0  0  0  0  0  0  0  0  0  0  0  0
  -20.9913  -24.4064   -3.4139 C   0  0  0  0  0  0  0  0  0  0  0  0
  -21.2181  -25.7439   -4.0105 C   0  0  0  0  0  0  0  0  0  0  0  0
  -22.4376  -26.3343   -3.9624 N   0  0  0  0  0  0  0  0  0  0  0  0
  -21.7364  -23.4972   -2.7573 N   0  0  0  0  0  0  0  0  0  0  0  0
  -20.9291  -22.4458   -2.4629 C   0  0  0  0  0  0  0  0  0  0  0  0
  -19.6779  -22.6524   -2.9133 N   0  0  0  0  0  0  0  0  0  0  0  0
  1  3  1  1  0  0  0
  1  5  2  0  0  0  0
  1  9  1  0  0  0  0
  1 18  1  0  0  0  0
  2  4  1  1  0  0  0
  2  6  2  0  0  0  0
  2 10  1  0  0  0  0
  2 17  1  0  0  0  0
  7  9  1  0  0  0  0
  8 10  1  0  0  0  0
 11  7  1  1  0  0  0
 11 13  1  0  0  0  0
 11 15  1  0  0  0  0
 12  8  1  6  0  0  0
 12 14  1  0  0  0  0
 12 16  1  0  0  0  0
 13 21  1  0  0  0  0
 14 22  1  0  0  0  0
 15 17  1  6  0  0  0
 15 19  1  0  0  0  0
 16 18  1  1  0  0  0
 16 20  1  0  0  0  0
 19 21  1  0  0  0  0
 20 22  1  0  0  0  0
 21 32  1  1  0  0  0
 22 42  1  6  0  0  0
 23 24  2  0  0  0  0
 23 28  1  0  0  0  0
 24 25  1  0  0  0  0
 25 26  2  0  0  0  0
 26 27  1  0  0  0  0
 26 32  1  0  0  0  0
 27 28  2  0  0  0  0
 27 30  1  0  0  0  0
 28 29  1  0  0  0  0
 30 31  2  0  0  0  0
 31 32  1  0  0  0  0
 33 34  2  0  0  0  0
 33 38  1  0  0  0  0
 34 35  1  0  0  0  0
 35 36  2  0  0  0  0
 36 37  1  0  0  0  0
 36 42  1  0  0  0  0
 37 38  2  0  0  0  0
 37 40  1  0  0  0  0
 38 39  1  0  0  0  0
 40 41  2  0  0  0  0
 41 42  1  0  0  0  0
M  CHG  2   3  -1   4  -1
M  END
>  <CHROM.1>
17.62768561,52.45452726,-15.44824782,-25.00785585,-2.16675983,-0.46384452
-0.52565607,-0.06322860

>  <Name>
ligand

>  <RI>
0

>  <Rbt.Current_Directory>
/home/itssahil/PROJECTS/Mol_Feturizer/New_Systems/rnas/4QLN

>  <Rbt.Executable>
rbdock ($Id: //depot/dev/client3/rdock/2013.1/src/exe/rbdock.cxx#4 $)

>  <Rbt.Library>
libRbt.so (2013.1, Build901 2013/11/27)

>  <Rbt.Parameter_File>
/export/apps/rDock/src/rDock_2013.1_src/data/scripts/dock_solv.prm

>  <Rbt.Receptor>
prm/blind_docking_100.prm

>  <SCORE>
4.97317

>  <SCORE.INTER>
-0.33541

>  <SCORE.INTER.CONST>
1

>  <SCORE.INTER.POLAR>
0

>  <SCORE.INTER.ROT>
2

>  <SCORE.INTER.SOLV>
30.6671

>  <SCORE.INTER.VDW>
-15.3793

>  <SCORE.INTER.norm>
-0.00798595

>  <SCORE.INTRA>
0.084895

>  <SCORE.INTRA.DIHEDRAL>
-0.000349218

>  <SCORE.INTRA.DIHEDRAL.0>
2.39985

>  <SCORE.INTRA.POLAR>
0

>  <SCORE.INTRA.POLAR.0>
0

>  <SCORE.INTRA.REPUL>
0

>  <SCORE.INTRA.REPUL.0>
0

>  <SCORE.INTRA.SOLV>
1.24534

>  <SCORE.INTRA.SOLV.lig_0>
-110.958

>  <SCORE.INTRA.VDW>
-0.537603

>  <SCORE.INTRA.VDW.0>
-2.34644

>  <SCORE.INTRA.norm>
0.00202131

>  <SCORE.RESTR>
5.22369

>  <SCORE.RESTR.CAVITY>
5.22369

>  <SCORE.RESTR.norm>
0.124373

>  <SCORE.SYSTEM>
0

>  <SCORE.SYSTEM.CONST>
0

>  <SCORE.SYSTEM.DIHEDRAL>
0

>  <SCORE.SYSTEM.SOLV>
0

>  <SCORE.SYSTEM.norm>
0

>  <SCORE.heavy>
42

>  <SCORE.norm>
0.118409

>  <RMSD>
27.456

$$$$
ligand
 OpenBabel11021811513D
libRbt.so/2013.1/901 2013/11/27
 42 48  0  0  0  0  0  0  0  0999 V2000
  -14.2136  -22.3030   -0.9810 P   0  0  2  0  0  0  0  0  0  0  0  0
  -15.2865  -25.3443   -4.8686 P   0  0  1  0  0  0  0  0  0  0  0  0
  -12.9060  -21.5460   -0.9901 O   0  5  0  0  0  0  0  0  0  0  0  0
  -16.3130  -25.7831   -3.8517 O   0  5  0  0  0  0  0  0  0  0  0  0
  -15.0071  -22.4197    0.2984 O   0  0  0  0  0  0  0  0  0  0  0  0
  -15.4077  -25.7941   -6.3047 O   0  0  0  0  0  0  0  0  0  0  0  0
  -12.6960  -24.4379   -1.2908 C   0  0  0  0  0  0  0  0  0  0  0  0
  -16.3668  -22.9552   -5.1484 C   0  0  0  0  0  0  0  0  0  0  0  0
  -13.9402  -23.7868   -1.5418 O   0  0  0  0  0  0  0  0  0  0  0  0
  -15.2123  -23.7360   -4.8484 O   0  0  0  0  0  0  0  0  0  0  0  0
  -12.3759  -25.3827   -2.4430 C   0  0  1  0  0  0  0  0  0  0  0  0
  -16.5642  -21.8998   -4.0676 C   0  0  1  0  0  0  0  0  0  0  0  0
  -11.4671  -26.3938   -1.9990 O   0  0  0  0  0  0  0  0  0  0  0  0
  -17.9334  -21.4895   -4.0383 O   0  0  0  0  0  0  0  0  0  0  0  0
  -13.6289  -26.0746   -2.9524 C   0  0  1  0  0  0  0  0  0  0  0  0
  -16.2133  -22.4456   -2.6926 C   0  0  1  0  0  0  0  0  0  0  0  0
  -13.8299  -25.7702   -4.3293 O   0  0  0  0  0  0  0  0  0  0  0  0
  -15.1692  -21.6704   -2.1113 O   0  0  0  0  0  0  0  0  0  0  0  0
  -13.3982  -27.5641   -2.7775 C   0  0  0  0  0  0  0  0  0  0  0  0
  -17.4714  -22.3360   -1.8531 C   0  0  0  0  0  0  0  0  0  0  0  0
  -12.0121  -27.7054   -2.1662 C   0  0  2  0  0  0  0  0  0  0  0  0
  -18.5300  -21.7255   -2.7606 C   0  0  2  0  0  0  0  0  0  0  0  0
  -12.2765  -27.0865    3.0420 N   0  0  0  0  0  0  0  0  0  0  0  0
  -12.1840  -26.1681    2.0626 C   0  0  0  0  0  0  0  0  0  0  0  0
  -12.1232  -26.4746    0.7536 N   0  0  0  0  0  0  0  0  0  0  0  0
  -12.1539  -27.7640    0.3394 C   0  0  0  0  0  0  0  0  0  0  0  0
  -12.2547  -28.8273    1.3513 C   0  0  0  0  0  0  0  0  0  0  0  0
  -12.3164  -28.4106    2.7724 C   0  0  0  0  0  0  0  0  0  0  0  0
  -12.4105  -29.3256    3.7671 N   0  0  0  0  0  0  0  0  0  0  0  0
  -12.2659  -29.9950    0.6813 N   0  0  0  0  0  0  0  0  0  0  0  0
  -12.1798  -29.7062   -0.6424 C   0  0  0  0  0  0  0  0  0  0  0  0
  -12.1132  -28.3765   -0.8465 N   0  0  0  0  0  0  0  0  0  0  0  0
  -20.1271  -26.4119   -4.5096 N   0  0  0  0  0  0  0  0  0  0  0  0
  -18.9103  -25.8384   -4.5530 C   0  0  0  0  0  0  0  0  0  0  0  0
  -18.6422  -24.6160   -4.0594 N   0  0  0  0  0  0  0  0  0  0  0  0
  -19.6140  -23.8751   -3.4741 C   0  0  0  0  0  0  0  0  0  0  0  0
  -20.9720  -24.4341   -3.3881 C   0  0  0  0  0  0  0  0  0  0  0  0
  -21.1875  -25.7865   -3.9544 C   0  0  0  0  0  0  0  0  0  0  0  0
  -22.4082  -26.3752   -3.9162 N   0  0  0  0  0  0  0  0  0  0  0  0
  -21.7298  -23.5080   -2.7708 N   0  0  0  0  0  0  0  0  0  0  0  0
  -20.9278  -22.4495   -2.4872 C   0  0  0  0  0  0  0  0  0  0  0  0
  -19.6678  -22.6680   -2.9062 N   0  0  0  0  0  0  0  0  0  0  0  0
  1  3  1  1  0  0  0
  1  5  2  0  0  0  0
  1  9  1  0  0  0  0
  1 18  1  0  0  0  0
  2  4  1  1  0  0  0
  2  6  2  0  0  0  0
  2 10  1  0  0  0  0
  2 17  1  0  0  0  0
  7  9  1  0  0  0  0
  8 10  1  0  0  0  0
 11  7  1  1  0  0  0
 11 13  1  0  0  0  0
 11 15  1  0  0  0  0
 12  8  1  6  0  0  0
 12 14  1  0  0  0  0
 12 16  1  0  0  0  0
 13 21  1  0  0  0  0
 14 22  1  0  0  0  0
 15 17  1  6  0  0  0
 15 19  1  0  0  0  0
 16 18  1  1  0  0  0
 16 20  1  0  0  0  0
 19 21  1  0  0  0  0
 20 22  1  0  0  0  0
 21 32  1  1  0  0  0
 22 42  1  6  0  0  0
 23 24  2  0  0  0  0
 23 28  1  0  0  0  0
 24 25  1  0  0  0  0
 25 26  2  0  0  0  0
 26 27  1  0  0  0  0
 26 32  1  0  0  0  0
 27 28  2  0  0  0  0
 27 30  1  0  0  0  0
 28 29  1  0  0  0  0
 30 31  2  0  0  0  0
 31 32  1  0  0  0  0
 33 34  2  0  0  0  0
 33 38  1  0  0  0  0
 34 35  1  0  0  0  0
 35 36  2  0  0  0  0
 36 37  1  0  0  0  0
 36 42  1  0  0  0  0
 37 38  2  0  0  0  0
 37 40  1  0  0  0  0
 38 39  1  0  0  0  0
 40 41  2  0  0  0  0
 41 42  1  0  0  0  0
M  CHG  2   3  -1   4  -1
M  END
>  <CHROM.1>
21.74479503,54.38477723,-15.44631303,-25.01368050,-2.15609073,-0.47722065
-0.51395321,-0.08542609

>  <Name>
ligand

>  <RI>
0

>  <Rbt.Current_Directory>
/home/itssahil/PROJECTS/Mol_Feturizer/New_Systems/rnas/4QLN

>  <Rbt.Executable>
rbdock ($Id: //depot/dev/client3/rdock/2013.1/src/exe/rbdock.cxx#4 $)

>  <Rbt.Library>
libRbt.so (2013.1, Build901 2013/11/27)

>  <Rbt.Parameter_File>
/export/apps/rDock/src/rDock_2013.1_src/data/scripts/dock_solv.prm

>  <Rbt.Receptor>
prm/blind_docking_100.prm

>  <SCORE>
5.28732

>  <SCORE.INTER>
-0.11548

>  <SCORE.INTER.CONST>
1

>  <SCORE.INTER.POLAR>
0

>  <SCORE.INTER.ROT>
2

>  <SCORE.INTER.SOLV>
30.665

>  <SCORE.INTER.VDW>
-15.232

>  <SCORE.INTER.norm>
-0.00274953

>  <SCORE.INTRA>
0.22689

>  <SCORE.INTRA.DIHEDRAL>
-0.000306634

>  <SCORE.INTRA.DIHEDRAL.0>
2.39985

>  <SCORE.INTRA.POLAR>
0

>  <SCORE.INTRA.POLAR.0>
0

>  <SCORE.INTRA.REPUL>
0

>  <SCORE.INTRA.REPUL.0>
0

>  <SCORE.INTRA.SOLV>
1.27345

>  <SCORE.INTRA.SOLV.lig_0>
-110.958

>  <SCORE.INTRA.VDW>
-0.409679

>  <SCORE.INTRA.VDW.0>
-2.34644

>  <SCORE.INTRA.norm>
0.00540215

>  <SCORE.RESTR>
5.17591

>  <SCORE.RESTR.CAVITY>
5.17591

>  <SCORE.RESTR.norm>
0.123236

>  <SCORE.SYSTEM>
0

>  <SCORE.SYSTEM.CONST>
0

>  <SCORE.SYSTEM.DIHEDRAL>
0

>  <SCORE.SYSTEM.SOLV>
0

>  <SCORE.SYSTEM.norm>
0

>  <SCORE.heavy>
42

>  <SCORE.norm>
0.125889

>  <RMSD>
27.458

$$$$
ligand
 OpenBabel11021811513D
libRbt.so/2013.1/901 2013/11/27
 42 48  0  0  0  0  0  0  0  0999 V2000
  -14.1475  -22.3392   -0.9684 P   0  0  2  0  0  0  0  0  0  0  0  0
  -15.2868  -25.3587   -4.8542 P   0  0  1  0  0  0  0  0  0  0  0  0
  -12.8448  -21.5745   -1.0002 O   0  5  0  0  0  0  0  0  0  0  0  0
  -16.2885  -25.8108   -3.8186 O   0  5  0  0  0  0  0  0  0  0  0  0
  -14.9125  -22.4699    0.3269 O   0  0  0  0  0  0  0  0  0  0  0  0
  -15.4365  -25.7988   -6.2907 O   0  0  0  0  0  0  0  0  0  0  0  0
  -12.6248  -24.4629   -1.3266 C   0  0  0  0  0  0  0  0  0  0  0  0
  -16.3866  -22.9740   -5.0931 C   0  0  0  0  0  0  0  0  0  0  0  0
  -13.8778  -23.8173   -1.5459 O   0  0  0  0  0  0  0  0  0  0  0  0
  -15.2214  -23.7501   -4.8238 O   0  0  0  0  0  0  0  0  0  0  0  0
  -12.3242  -25.3974   -2.4924 C   0  0  1  0  0  0  0  0  0  0  0  0
  -16.5666  -21.9276   -4.0005 C   0  0  1  0  0  0  0  0  0  0  0  0
  -11.4002  -26.4064   -2.0755 O   0  0  0  0  0  0  0  0  0  0  0  0
  -17.9372  -21.5257   -3.9386 O   0  0  0  0  0  0  0  0  0  0  0  0
  -13.5840  -26.0930   -2.9796 C   0  0  1  0  0  0  0  0  0  0  0  0
  -16.1829  -22.4813   -2.6374 C   0  0  1  0  0  0  0  0  0  0  0  0
  -13.8164  -25.7799   -4.3496 O   0  0  0  0  0  0  0  0  0  0  0  0
  -15.1309  -21.7041   -2.0732 O   0  0  0  0  0  0  0  0  0  0  0  0
  -13.3410  -27.5824   -2.8207 C   0  0  0  0  0  0  0  0  0  0  0  0
  -17.4232  -22.3852   -1.7702 C   0  0  0  0  0  0  0  0  0  0  0  0
  -11.9412  -27.7199   -2.2406 C   0  0  2  0  0  0  0  0  0  0  0  0
  -18.5046  -21.7744   -2.6501 C   0  0  2  0  0  0  0  0  0  0  0  0
  -12.2541  -27.1384    2.9693 N   0  0  0  0  0  0  0  0  0  0  0  0
  -12.2083  -26.2121    1.9940 C   0  0  0  0  0  0  0  0  0  0  0  0
  -12.1273  -26.5094    0.6839 N   0  0  0  0  0  0  0  0  0  0  0  0
  -12.0871  -27.7967    0.2643 C   0  0  0  0  0  0  0  0  0  0  0  0
  -12.1334  -28.8682    1.2715 C   0  0  0  0  0  0  0  0  0  0  0  0
  -12.2217  -28.4615    2.6941 C   0  0  0  0  0  0  0  0  0  0  0  0
  -12.2693  -29.3845    3.6848 N   0  0  0  0  0  0  0  0  0  0  0  0
  -12.0797  -30.0319    0.5968 N   0  0  0  0  0  0  0  0  0  0  0  0
  -12.0053  -29.7334   -0.7256 C   0  0  0  0  0  0  0  0  0  0  0  0
  -12.0100  -28.4011   -0.9239 N   0  0  0  0  0  0  0  0  0  0  0  0
  -19.9744  -26.7893   -3.1632 N   0  0  0  0  0  0  0  0  0  0  0  0
  -18.7444  -26.2510   -3.0691 C   0  0  0  0  0  0  0  0  0  0  0  0
  -18.5136  -24.9320   -2.9399 N   0  0  0  0  0  0  0  0  0  0  0  0
  -19.5401  -24.0486   -2.8961 C   0  0  0  0  0  0  0  0  0  0  0  0
  -20.9159  -24.5603   -2.9928 C   0  0  0  0  0  0  0  0  0  0  0  0
  -21.0878  -26.0256   -3.1330 C   0  0  0  0  0  0  0  0  0  0  0  0
  -22.3214  -26.5799   -3.2280 N   0  0  0  0  0  0  0  0  0  0  0  0
  -21.7294  -23.4897   -2.9233 N   0  0  0  0  0  0  0  0  0  0  0  0
  -20.9437  -22.3897   -2.7941 C   0  0  0  0  0  0  0  0  0  0  0  0
  -19.6399  -22.7225   -2.7781 N   0  0  0  0  0  0  0  0  0  0  0  0
  1  3  1  1  0  0  0
  1  5  2  0  0  0  0
  1  9  1  0  0  0  0
  1 18  1  0  0  0  0
  2  4  1  1  0  0  0
  2  6  2  0  0  0  0
  2 10  1  0  0  0  0
  2 17  1  0  0  0  0
  7  9  1  0  0  0  0
  8 10  1  0  0  0  0
 11  7  1  1  0  0  0
 11 13  1  0  0  0  0
 11 15  1  0  0  0  0
 12  8  1  6  0  0  0
 12 14  1  0  0  0  0
 12 16  1  0  0  0  0
 13 21  1  0  0  0  0
 14 22  1  0  0  0  0
 15 17  1  6  0  0  0
 15 19  1  0  0  0  0
 16 18  1  1  0  0  0
 16 20  1  0  0  0  0
 19 21  1  0  0  0  0
 20 22  1  0  0  0  0
 21 32  1  1  0  0  0
 22 42  1  6  0  0  0
 23 24  2  0  0  0  0
 23 28  1  0  0  0  0
 24 25  1  0  0  0  0
 25 26  2  0  0  0  0
 26 27  1  0  0  0  0
 26 32  1  0  0  0  0
 27 28  2  0  0  0  0
 27 30  1  0  0  0  0
 28 29  1  0  0  0  0
 30 31  2  0  0  0  0
 31 32  1  0  0  0  0
 33 34  2  0  0  0  0
 33 38  1  0  0  0  0
 34 35  1  0  0  0  0
 35 36  2  0  0  0  0
 36 37  1  0  0  0  0
 36 42  1  0  0  0  0
 37 38  2  0  0  0  0
 37 40  1  0  0  0  0
 38 39  1  0  0  0  0
 40 41  2  0  0  0  0
 41 42  1  0  0  0  0
M  CHG  2   3  -1   4  -1
M  END
>  <CHROM.1>
24.84978854,79.92752766,-15.39143949,-25.07569529,-2.03562267,-0.57779967
-0.34459525,-0.29662860

>  <Name>
ligand

>  <RI>
0

>  <Rbt.Current_Directory>
/home/itssahil/PROJECTS/Mol_Feturizer/New_Systems/rnas/4QLN

>  <Rbt.Executable>
rbdock ($Id: //depot/dev/client3/rdock/2013.1/src/exe/rbdock.cxx#4 $)

>  <Rbt.Library>
libRbt.so (2013.1, Build901 2013/11/27)

>  <Rbt.Parameter_File>
/export/apps/rDock/src/rDock_2013.1_src/data/scripts/dock_solv.prm

>  <Rbt.Receptor>
prm/blind_docking_100.prm

>  <SCORE>
7.47116

>  <SCORE.INTER>
0.861106

>  <SCORE.INTER.CONST>
1

>  <SCORE.INTER.POLAR>
0

>  <SCORE.INTER.ROT>
2

>  <SCORE.INTER.SOLV>
29.9007

>  <SCORE.INTER.VDW>
-14.3262

>  <SCORE.INTER.norm>
0.0205025

>  <SCORE.INTRA>
1.31116

>  <SCORE.INTRA.DIHEDRAL>
0.000547279

>  <SCORE.INTRA.DIHEDRAL.0>
2.39985

>  <SCORE.INTRA.POLAR>
0

>  <SCORE.INTRA.POLAR.0>
0

>  <SCORE.INTRA.REPUL>
0

>  <SCORE.INTRA.REPUL.0>
0

>  <SCORE.INTRA.SOLV>
1.07395

>  <SCORE.INTRA.SOLV.lig_0>
-110.958

>  <SCORE.INTRA.VDW>
0.773907

>  <SCORE.INTRA.VDW.0>
-2.34644

>  <SCORE.INTRA.norm>
0.031218

>  <SCORE.RESTR>
5.2989

>  <SCORE.RESTR.CAVITY>
5.2989

>  <SCORE.RESTR.norm>
0.126164

>  <SCORE.SYSTEM>
0

>  <SCORE.SYSTEM.CONST>
0

>  <SCORE.SYSTEM.DIHEDRAL>
0

>  <SCORE.SYSTEM.SOLV>
0

>  <SCORE.SYSTEM.norm>
0

>  <SCORE.heavy>
42

>  <SCORE.norm>
0.177885

>  <RMSD>
27.461

$$$$
ligand
 OpenBabel11021811513D
libRbt.so/2013.1/901 2013/11/27
 42 48  0  0  0  0  0  0  0  0999 V2000
  -16.5113  -23.3754    0.0821 P   0  0  2  0  0  0  0  0  0  0  0  0
  -14.7448  -26.7196   -3.2660 P   0  0  1  0  0  0  0  0  0  0  0  0
  -16.7737  -23.8338    1.4977 O   0  5  0  0  0  0  0  0  0  0  0  0
  -15.1774  -25.5897   -4.1696 O   0  5  0  0  0  0  0  0  0  0  0  0
  -17.0842  -22.0654   -0.4035 O   0  0  0  0  0  0  0  0  0  0  0  0
  -13.8911  -27.8381   -3.8133 O   0  0  0  0  0  0  0  0  0  0  0  0
  -18.1131  -25.3585   -0.5950 C   0  0  0  0  0  0  0  0  0  0  0  0
  -12.8140  -25.2995   -2.1666 C   0  0  0  0  0  0  0  0  0  0  0  0
  -16.9922  -24.5387   -0.9211 O   0  0  0  0  0  0  0  0  0  0  0  0
  -13.9902  -26.0861   -1.9925 O   0  0  0  0  0  0  0  0  0  0  0  0
  -17.9275  -26.7404   -1.2102 C   0  0  1  0  0  0  0  0  0  0  0  0
  -12.9543  -23.9936   -1.3947 C   0  0  1  0  0  0  0  0  0  0  0  0
  -19.1995  -27.3777   -1.3565 O   0  0  0  0  0  0  0  0  0  0  0  0
  -12.0910  -23.0040   -1.9597 O   0  0  0  0  0  0  0  0  0  0  0  0
  -17.2917  -26.6494   -2.5871 C   0  0  1  0  0  0  0  0  0  0  0  0
  -14.3773  -23.4623   -1.4629 C   0  0  1  0  0  0  0  0  0  0  0  0
  -16.0627  -27.3692   -2.6064 O   0  0  0  0  0  0  0  0  0  0  0  0
  -14.9189  -23.3465   -0.1505 O   0  0  0  0  0  0  0  0  0  0  0  0
  -18.2763  -27.2758   -3.5570 C   0  0  0  0  0  0  0  0  0  0  0  0
  -14.2945  -22.0950   -2.1137 C   0  0  0  0  0  0  0  0  0  0  0  0
  -19.4678  -27.7166   -2.7198 C   0  0  2  0  0  0  0  0  0  0  0  0
  -12.8201  -21.8594   -2.4096 C   0  0  2  0  0  0  0  0  0  0  0  0
  -21.9720  -23.1174   -3.1126 N   0  0  0  0  0  0  0  0  0  0  0  0
  -20.7663  -23.4070   -2.5893 C   0  0  0  0  0  0  0  0  0  0  0  0
  -20.2443  -24.6470   -2.5557 N   0  0  0  0  0  0  0  0  0  0  0  0
  -20.9256  -25.7021   -3.0633 C   0  0  0  0  0  0  0  0  0  0  0  0
  -22.2523  -25.4664   -3.6540 C   0  0  0  0  0  0  0  0  0  0  0  0
  -22.7597  -24.0737   -3.6534 C   0  0  0  0  0  0  0  0  0  0  0  0
  -23.9713  -23.7694   -4.1779 N   0  0  0  0  0  0  0  0  0  0  0  0
  -22.7026  -26.6627   -4.0762 N   0  0  0  0  0  0  0  0  0  0  0  0
  -21.7496  -27.5839   -3.7822 C   0  0  0  0  0  0  0  0  0  0  0  0
  -20.6902  -27.0114   -3.1787 N   0  0  0  0  0  0  0  0  0  0  0  0
  -14.7445  -22.7503   -7.2133 N   0  0  0  0  0  0  0  0  0  0  0  0
  -15.2370  -23.0835   -6.0058 C   0  0  0  0  0  0  0  0  0  0  0  0
  -14.6293  -22.7869   -4.8429 N   0  0  0  0  0  0  0  0  0  0  0  0
  -13.4523  -22.1158   -4.8261 C   0  0  0  0  0  0  0  0  0  0  0  0
  -12.8496  -21.7162   -6.1072 C   0  0  0  0  0  0  0  0  0  0  0  0
  -13.5799  -22.0793   -7.3445 C   0  0  0  0  0  0  0  0  0  0  0  0
  -13.0946  -21.7487   -8.5665 N   0  0  0  0  0  0  0  0  0  0  0  0
  -11.7042  -21.0743   -5.8087 N   0  0  0  0  0  0  0  0  0  0  0  0
  -11.5841  -21.0643   -4.4562 C   0  0  0  0  0  0  0  0  0  0  0  0
  -12.6250  -21.6847   -3.8709 N   0  0  0  0  0  0  0  0  0  0  0  0
  1  3  1  1  0  0  0
  1  5  2  0  0  0  0
  1  9  1  0  0  0  0
  1 18  1  0  0  0  0
  2  4  1  6  0  0  0
  2  6  2  0  0  0  0
  2 10  1  0  0  0  0
  2 17  1  0  0  0  0
  7  9  1  0  0  0  0
  8 10  1  0  0  0  0
 11  7  1  6  0  0  0
 11 13  1  0  0  0  0
 11 15  1  0  0  0  0
 12  8  1  6  0  0  0
 12 14  1  0  0  0  0
 12 16  1  0  0  0  0
 13 21  1  0  0  0  0
 14 22  1  0  0  0  0
 15 17  1  1  0  0  0
 15 19  1  0  0  0  0
 16 18  1  1  0  0  0
 16 20  1  0  0  0  0
 19 21  1  0  0  0  0
 20 22  1  0  0  0  0
 21 32  1  6  0  0  0
 22 42  1  6  0  0  0
 23 24  2  0  0  0  0
 23 28  1  0  0  0  0
 24 25  1  0  0  0  0
 25 26  2  0  0  0  0
 26 27  1  0  0  0  0
 26 32  1  0  0  0  0
 27 28  2  0  0  0  0
 27 30  1  0  0  0  0
 28 29  1  0  0  0  0
 30 31  2  0  0  0  0
 31 32  1  0  0  0  0
 33 34  2  0  0  0  0
 33 38  1  0  0  0  0
 34 35  1  0  0  0  0
 35 36  2  0  0  0  0
 36 37  1  0  0  0  0
 36 42  1  0  0  0  0
 37 38  2  0  0  0  0
 37 40  1  0  0  0  0
 38 39  1  0  0  0  0
 40 41  2  0  0  0  0
 41 42  1  0  0  0  0
M  CHG  2   3  -1   4  -1
M  END
>  <CHROM.1>
51.22778274,96.43541835,-16.49508306,-24.43931093,-2.97653661,-2.85044773
-0.27314393,-1.16884037

>  <Name>
ligand

>  <RI>
0

>  <Rbt.Current_Directory>
/home/itssahil/PROJECTS/Mol_Feturizer/New_Systems/rnas/4QLN

>  <Rbt.Executable>
rbdock ($Id: //depot/dev/client3/rdock/2013.1/src/exe/rbdock.cxx#4 $)

>  <Rbt.Library>
libRbt.so (2013.1, Build901 2013/11/27)

>  <Rbt.Parameter_File>
/export/apps/rDock/src/rDock_2013.1_src/data/scripts/dock_solv.prm

>  <Rbt.Receptor>
prm/blind_docking_80.prm

>  <SCORE>
97.9241

>  <SCORE.INTER>
86.9362

>  <SCORE.INTER.CONST>
1

>  <SCORE.INTER.POLAR>
0

>  <SCORE.INTER.ROT>
2

>  <SCORE.INTER.SOLV>
48.7399

>  <SCORE.INTER.VDW>
36.7775

>  <SCORE.INTER.norm>
2.06991

>  <SCORE.INTRA>
0.621181

>  <SCORE.INTRA.DIHEDRAL>
0.000743718

>  <SCORE.INTRA.DIHEDRAL.0>
2.39985

>  <SCORE.INTRA.POLAR>
0

>  <SCORE.INTRA.POLAR.0>
0

>  <SCORE.INTRA.REPUL>
0

>  <SCORE.INTRA.REPUL.0>
0

>  <SCORE.INTRA.SOLV>
0.543435

>  <SCORE.INTRA.SOLV.lig_0>
-110.958

>  <SCORE.INTRA.VDW>
0.349092

>  <SCORE.INTRA.VDW.0>
-2.34644

>  <SCORE.INTRA.norm>
0.01479

>  <SCORE.RESTR>
10.3667

>  <SCORE.RESTR.CAVITY>
10.3667

>  <SCORE.RESTR.norm>
0.246826

>  <SCORE.SYSTEM>
0

>  <SCORE.SYSTEM.CONST>
0

>  <SCORE.SYSTEM.DIHEDRAL>
0

>  <SCORE.SYSTEM.SOLV>
0

>  <SCORE.SYSTEM.norm>
0

>  <SCORE.heavy>
42

>  <SCORE.norm>
2.33153

>  <RMSD>
27.536

$$$$
ligand
 OpenBabel11021811513D
libRbt.so/2013.1/901 2013/11/27
 42 48  0  0  0  0  0  0  0  0999 V2000
  -16.5142  -23.3749    0.0799 P   0  0  2  0  0  0  0  0  0  0  0  0
  -14.7463  -26.7193   -3.2674 P   0  0  1  0  0  0  0  0  0  0  0  0
  -16.7767  -23.8333    1.4955 O   0  5  0  0  0  0  0  0  0  0  0  0
  -15.1790  -25.5895   -4.1713 O   0  5  0  0  0  0  0  0  0  0  0  0
  -17.0873  -22.0652   -0.4060 O   0  0  0  0  0  0  0  0  0  0  0  0
  -13.8923  -27.8377   -3.8145 O   0  0  0  0  0  0  0  0  0  0  0  0
  -18.1154  -25.3585   -0.5972 C   0  0  0  0  0  0  0  0  0  0  0  0
  -12.8160  -25.2986   -2.1679 C   0  0  0  0  0  0  0  0  0  0  0  0
  -16.9946  -24.5385   -0.9233 O   0  0  0  0  0  0  0  0  0  0  0  0
  -13.9921  -26.0854   -1.9939 O   0  0  0  0  0  0  0  0  0  0  0  0
  -17.9295  -26.7404   -1.2123 C   0  0  1  0  0  0  0  0  0  0  0  0
  -12.9568  -23.9926   -1.3961 C   0  0  1  0  0  0  0  0  0  0  0  0
  -19.2013  -27.3780   -1.3587 O   0  0  0  0  0  0  0  0  0  0  0  0
  -12.0936  -23.0029   -1.9611 O   0  0  0  0  0  0  0  0  0  0  0  0
  -17.2934  -26.6495   -2.5891 C   0  0  1  0  0  0  0  0  0  0  0  0
  -14.3798  -23.4616   -1.4647 C   0  0  1  0  0  0  0  0  0  0  0  0
  -16.0643  -27.3690   -2.6081 O   0  0  0  0  0  0  0  0  0  0  0  0
  -14.9217  -23.3458   -0.1524 O   0  0  0  0  0  0  0  0  0  0  0  0
  -18.2777  -27.2762   -3.5591 C   0  0  0  0  0  0  0  0  0  0  0  0
  -14.2972  -22.0944   -2.1156 C   0  0  0  0  0  0  0  0  0  0  0  0
  -19.4692  -27.7172   -2.7220 C   0  0  2  0  0  0  0  0  0  0  0  0
  -12.8228  -21.8585   -2.4113 C   0  0  2  0  0  0  0  0  0  0  0  0
  -21.9772  -23.1195   -3.1096 N   0  0  0  0  0  0  0  0  0  0  0  0
  -20.7720  -23.4090   -2.5853 C   0  0  0  0  0  0  0  0  0  0  0  0
  -20.2489  -24.6486   -2.5533 N   0  0  0  0  0  0  0  0  0  0  0  0
  -20.9285  -25.7033   -3.0637 C   0  0  0  0  0  0  0  0  0  0  0  0
  -22.2546  -25.4678   -3.6558 C   0  0  0  0  0  0  0  0  0  0  0  0
  -22.7633  -24.0756   -3.6533 C   0  0  0  0  0  0  0  0  0  0  0  0
  -23.9745  -23.7715   -4.1788 N   0  0  0  0  0  0  0  0  0  0  0  0
  -22.7033  -26.6638   -4.0808 N   0  0  0  0  0  0  0  0  0  0  0  0
  -21.7498  -27.5846   -3.7873 C   0  0  0  0  0  0  0  0  0  0  0  0
  -20.6917  -27.0123   -3.1813 N   0  0  0  0  0  0  0  0  0  0  0  0
  -14.7463  -22.7502   -7.2152 N   0  0  0  0  0  0  0  0  0  0  0  0
  -15.2390  -23.0832   -6.0078 C   0  0  0  0  0  0  0  0  0  0  0  0
  -14.6315  -22.7865   -4.8448 N   0  0  0  0  0  0  0  0  0  0  0  0
  -13.4546  -22.1152   -4.8279 C   0  0  0  0  0  0  0  0  0  0  0  0
  -12.8516  -21.7157   -6.1089 C   0  0  0  0  0  0  0  0  0  0  0  0
  -13.5818  -22.0790   -7.3463 C   0  0  0  0  0  0  0  0  0  0  0  0
  -13.0962  -21.7486   -8.5682 N   0  0  0  0  0  0  0  0  0  0  0  0
  -11.7064  -21.0738   -5.8103 N   0  0  0  0  0  0  0  0  0  0  0  0
  -11.5865  -21.0636   -4.4578 C   0  0  0  0  0  0  0  0  0  0  0  0
  -12.6275  -21.6840   -3.8726 N   0  0  0  0  0  0  0  0  0  0  0  0
  1  3  1  1  0  0  0
  1  5  2  0  0  0  0
  1  9  1  0  0  0  0
  1 18  1  0  0  0  0
  2  4  1  6  0  0  0
  2  6  2  0  0  0  0
  2 10  1  0  0  0  0
  2 17  1  0  0  0  0
  7  9  1  0  0  0  0
  8 10  1  0  0  0  0
 11  7  1  6  0  0  0
 11 13  1  0  0  0  0
 11 15  1  0  0  0  0
 12  8  1  6  0  0  0
 12 14  1  0  0  0  0
 12 16  1  0  0  0  0
 13 21  1  0  0  0  0
 14 22  1  0  0  0  0
 15 17  1  1  0  0  0
 15 19  1  0  0  0  0
 16 18  1  1  0  0  0
 16 20  1  0  0  0  0
 19 21  1  0  0  0  0
 20 22  1  0  0  0  0
 21 32  1  6  0  0  0
 22 42  1  6  0  0  0
 23 24  2  0  0  0  0
 23 28  1  0  0  0  0
 24 25  1  0  0  0  0
 25 26  2  0  0  0  0
 26 27  1  0  0  0  0
 26 32  1  0  0  0  0
 27 28  2  0  0  0  0
 27 30  1  0  0  0  0
 28 29  1  0  0  0  0
 30 31  2  0  0  0  0
 31 32  1  0  0  0  0
 33 34  2  0  0  0  0
 33 38  1  0  0  0  0
 34 35  1  0  0  0  0
 35 36  2  0  0  0  0
 36 37  1  0  0  0  0
 36 42  1  0  0  0  0
 37 38  2  0  0  0  0
 37 40  1  0  0  0  0
 38 39  1  0  0  0  0
 40 41  2  0  0  0  0
 41 42  1  0  0  0  0
M  CHG  2   3  -1   4  -1
M  END
>  <CHROM.1>
51.09011470,96.44220170,-16.49740632,-24.43933027,-2.97809823,-2.85052056
-0.27337887,-1.16945463

>  <Name>
ligand

>  <RI>
0

>  <Rbt.Current_Directory>
/home/itssahil/PROJECTS/Mol_Feturizer/New_Systems/rnas/4QLN

>  <Rbt.Executable>
rbdock ($Id: //depot/dev/client3/rdock/2013.1/src/exe/rbdock.cxx#4 $)

>  <Rbt.Library>
libRbt.so (2013.1, Build901 2013/11/27)

>  <Rbt.Parameter_File>
/export/apps/rDock/src/rDock_2013.1_src/data/scripts/dock_solv.prm

>  <Rbt.Receptor>
prm/blind_docking_80.prm

>  <SCORE>
97.9643

>  <SCORE.INTER>
86.9851

>  <SCORE.INTER.CONST>
1

>  <SCORE.INTER.POLAR>
0

>  <SCORE.INTER.ROT>
2

>  <SCORE.INTER.SOLV>
48.7418

>  <SCORE.INTER.VDW>
36.8095

>  <SCORE.INTER.norm>
2.07107

>  <SCORE.INTRA>
0.622997

>  <SCORE.INTRA.DIHEDRAL>
0.000741943

>  <SCORE.INTRA.DIHEDRAL.0>
2.39985

>  <SCORE.INTRA.POLAR>
0

>  <SCORE.INTRA.POLAR.0>
0

>  <SCORE.INTRA.REPUL>
0

>  <SCORE.INTRA.REPUL.0>
0

>  <SCORE.INTRA.SOLV>
0.543418

>  <SCORE.INTRA.SOLV.lig_0>
-110.958

>  <SCORE.INTRA.VDW>
0.350917

>  <SCORE.INTRA.VDW.0>
-2.34644

>  <SCORE.INTRA.norm>
0.0148333

>  <SCORE.RESTR>
10.3562

>  <SCORE.RESTR.CAVITY>
10.3562

>  <SCORE.RESTR.norm>
0.246576

>  <SCORE.SYSTEM>
0

>  <SCORE.SYSTEM.CONST>
0

>  <SCORE.SYSTEM.DIHEDRAL>
0

>  <SCORE.SYSTEM.SOLV>
0

>  <SCORE.SYSTEM.norm>
0

>  <SCORE.heavy>
42

>  <SCORE.norm>
2.33248

>  <RMSD>
27.537

$$$$
ligand
 OpenBabel11021811513D
libRbt.so/2013.1/901 2013/11/27
 42 48  0  0  0  0  0  0  0  0999 V2000
  -14.4066  -22.2543   -1.0123 P   0  0  2  0  0  0  0  0  0  0  0  0
  -15.2617  -25.3214   -4.9335 P   0  0  1  0  0  0  0  0  0  0  0  0
  -13.1055  -21.4880   -0.9595 O   0  5  0  0  0  0  0  0  0  0  0  0
  -16.3350  -25.7628   -3.9672 O   0  5  0  0  0  0  0  0  0  0  0  0
  -15.2626  -22.3707    0.2261 O   0  0  0  0  0  0  0  0  0  0  0  0
  -15.3075  -25.7789   -6.3716 O   0  0  0  0  0  0  0  0  0  0  0  0
  -12.8607  -24.3798   -1.2347 C   0  0  0  0  0  0  0  0  0  0  0  0
  -16.3430  -22.9414   -5.2793 C   0  0  0  0  0  0  0  0  0  0  0  0
  -14.0951  -23.7387   -1.5512 O   0  0  0  0  0  0  0  0  0  0  0  0
  -15.1997  -23.7126   -4.9177 O   0  0  0  0  0  0  0  0  0  0  0  0
  -12.4765  -25.3276   -2.3645 C   0  0  1  0  0  0  0  0  0  0  0  0
  -16.6018  -21.8824   -4.2151 C   0  0  1  0  0  0  0  0  0  0  0  0
  -11.5842  -26.3302   -1.8703 O   0  0  0  0  0  0  0  0  0  0  0  0
  -17.9735  -21.4818   -4.2567 O   0  0  0  0  0  0  0  0  0  0  0  0
  -13.6976  -26.0309   -2.9327 C   0  0  1  0  0  0  0  0  0  0  0  0
  -16.3167  -22.4193   -2.8214 C   0  0  1  0  0  0  0  0  0  0  0  0
  -13.8311  -25.7344   -4.3195 O   0  0  0  0  0  0  0  0  0  0  0  0
  -15.3085  -21.6339   -2.1924 O   0  0  0  0  0  0  0  0  0  0  0  0
  -13.4657  -27.5179   -2.7389 C   0  0  0  0  0  0  0  0  0  0  0  0
  -17.6162  -22.3147   -2.0467 C   0  0  0  0  0  0  0  0  0  0  0  0
  -12.1111  -27.6464   -2.0581 C   0  0  2  0  0  0  0  0  0  0  0  0
  -18.6319  -21.7160   -3.0094 C   0  0  2  0  0  0  0  0  0  0  0  0
  -15.0302  -28.0858    2.2852 N   0  0  0  0  0  0  0  0  0  0  0  0
  -15.2023  -27.3103    1.1988 C   0  0  0  0  0  0  0  0  0  0  0  0
  -14.3632  -27.3006    0.1467 N   0  0  0  0  0  0  0  0  0  0  0  0
  -13.2671  -28.0962    0.1243 C   0  0  0  0  0  0  0  0  0  0  0  0
  -13.0097  -28.9743    1.2765 C   0  0  0  0  0  0  0  0  0  0  0  0
  -13.9788  -28.9281    2.3970 C   0  0  0  0  0  0  0  0  0  0  0  0
  -13.8169  -29.7045    3.4956 N   0  0  0  0  0  0  0  0  0  0  0  0
  -11.8762  -29.6464    1.0013 N   0  0  0  0  0  0  0  0  0  0  0  0
  -11.4448  -29.2358   -0.2187 C   0  0  0  0  0  0  0  0  0  0  0  0
  -12.2739  -28.3119   -0.7417 N   0  0  0  0  0  0  0  0  0  0  0  0
  -20.7658  -25.3735   -6.1145 N   0  0  0  0  0  0  0  0  0  0  0  0
  -19.6373  -24.6563   -6.2677 C   0  0  0  0  0  0  0  0  0  0  0  0
  -19.2068  -23.7415   -5.3804 N   0  0  0  0  0  0  0  0  0  0  0  0
  -19.9091  -23.4865   -4.2501 C   0  0  0  0  0  0  0  0  0  0  0  0
  -21.1550  -24.2310   -4.0105 C   0  0  0  0  0  0  0  0  0  0  0  0
  -21.5623  -25.2219   -5.0345 C   0  0  0  0  0  0  0  0  0  0  0  0
  -22.6963  -25.9510   -4.8913 N   0  0  0  0  0  0  0  0  0  0  0  0
  -21.6445  -23.7921   -2.8355 N   0  0  0  0  0  0  0  0  0  0  0  0
  -20.7880  -22.8494   -2.3647 C   0  0  0  0  0  0  0  0  0  0  0  0
  -19.7545  -22.6673   -3.2072 N   0  0  0  0  0  0  0  0  0  0  0  0
  1  3  1  1  0  0  0
  1  5  2  0  0  0  0
  1  9  1  0  0  0  0
  1 18  1  0  0  0  0
  2  4  1  1  0  0  0
  2  6  2  0  0  0  0
  2 10  1  0  0  0  0
  2 17  1  0  0  0  0
  7  9  1  0  0  0  0
  8 10  1  0  0  0  0
 11  7  1  1  0  0  0
 11 13  1  0  0  0  0
 11 15  1  0  0  0  0
 12  8  1  6  0  0  0
 12 14  1  0  0  0  0
 12 16  1  0  0  0  0
 13 21  1  0  0  0  0
 14 22  1  0  0  0  0
 15 17  1  6  0  0  0
 15 19  1  0  0  0  0
 16 18  1  1  0  0  0
 16 20  1  0  0  0  0
 19 21  1  0  0  0  0
 20 22  1  0  0  0  0
 21 32  1  1  0  0  0
 22 42  1  6  0  0  0
 23 24  2  0  0  0  0
 23 28  1  0  0  0  0
 24 25  1  0  0  0  0
 25 26  2  0  0  0  0
 26 27  1  0  0  0  0
 26 32  1  0  0  0  0
 27 28  2  0  0  0  0
 27 30  1  0  0  0  0
 28 29  1  0  0  0  0
 30 31  2  0  0  0  0
 31 32  1  0  0  0  0
 33 34  2  0  0  0  0
 33 38  1  0  0  0  0
 34 35  1  0  0  0  0
 35 36  2  0  0  0  0
 36 37  1  0  0  0  0
 36 42  1  0  0  0  0
 37 38  2  0  0  0  0
 37 40  1  0  0  0  0
 38 39  1  0  0  0  0
 40 41  2  0  0  0  0
 41 42  1  0  0  0  0
M  CHG  2   3  -1   4  -1
M  END
>  <CHROM.1>
78.17302571,18.42676384,-15.81034190,-24.98193125,-2.41026802,-0.67949311
-0.37526466,-0.41528948

>  <Name>
ligand

>  <RI>
0

>  <Rbt.Current_Directory>
/home/itssahil/PROJECTS/Mol_Feturizer/New_Systems/rnas/4QLN

>  <Rbt.Executable>
rbdock ($Id: //depot/dev/client3/rdock/2013.1/src/exe/rbdock.cxx#4 $)

>  <Rbt.Library>
libRbt.so (2013.1, Build901 2013/11/27)

>  <Rbt.Parameter_File>
/export/apps/rDock/src/rDock_2013.1_src/data/scripts/dock_solv.prm

>  <Rbt.Receptor>
prm/blind_docking_100.prm

>  <SCORE>
7.04742

>  <SCORE.INTER>
1.02399

>  <SCORE.INTER.CONST>
1

>  <SCORE.INTER.POLAR>
0

>  <SCORE.INTER.ROT>
2

>  <SCORE.INTER.SOLV>
30.0148

>  <SCORE.INTER.VDW>
-14.2556

>  <SCORE.INTER.norm>
0.0243807

>  <SCORE.INTRA>
-0.0350893

>  <SCORE.INTRA.DIHEDRAL>
-0.000255813

>  <SCORE.INTRA.DIHEDRAL.0>
2.39985

>  <SCORE.INTRA.POLAR>
0

>  <SCORE.INTRA.POLAR.0>
0

>  <SCORE.INTRA.REPUL>
0

>  <SCORE.INTRA.REPUL.0>
0

>  <SCORE.INTRA.SOLV>
0.0656091

>  <SCORE.INTRA.SOLV.lig_0>
-110.958

>  <SCORE.INTRA.VDW>
-0.067766

>  <SCORE.INTRA.VDW.0>
-2.34644

>  <SCORE.INTRA.norm>
-0.00083546

>  <SCORE.RESTR>
6.05852

>  <SCORE.RESTR.CAVITY>
6.05852

>  <SCORE.RESTR.norm>
0.14425

>  <SCORE.SYSTEM>
0

>  <SCORE.SYSTEM.CONST>
0

>  <SCORE.SYSTEM.DIHEDRAL>
0

>  <SCORE.SYSTEM.SOLV>
0

>  <SCORE.SYSTEM.norm>
0

>  <SCORE.heavy>
42

>  <SCORE.norm>
0.167796

>  <RMSD>
27.682

$$$$
ligand
 OpenBabel11021811513D
libRbt.so/2013.1/901 2013/11/27
 42 48  0  0  0  0  0  0  0  0999 V2000
  -16.0533  -22.1935   -3.5028 P   0  0  2  0  0  0  0  0  0  0  0  0
  -18.0987  -25.9529   -0.8199 P   0  0  1  0  0  0  0  0  0  0  0  0
  -16.4103  -20.7691   -3.1469 O   0  5  0  0  0  0  0  0  0  0  0  0
  -17.5483  -26.6992   -2.0117 O   0  5  0  0  0  0  0  0  0  0  0  0
  -15.3916  -22.4958   -4.8260 O   0  0  0  0  0  0  0  0  0  0  0  0
  -18.5627  -26.7147    0.3982 O   0  0  0  0  0  0  0  0  0  0  0  0
  -18.6607  -22.5353   -3.7073 C   0  0  0  0  0  0  0  0  0  0  0  0
  -15.7025  -25.2927    0.0611 C   0  0  0  0  0  0  0  0  0  0  0  0
  -17.3854  -23.0898   -3.3889 O   0  0  0  0  0  0  0  0  0  0  0  0
  -17.0010  -24.8722   -0.3510 O   0  0  0  0  0  0  0  0  0  0  0  0
  -19.7343  -23.2154   -2.8662 C   0  0  1  0  0  0  0  0  0  0  0  0
  -14.6453  -24.4729   -0.6678 C   0  0  1  0  0  0  0  0  0  0  0  0
  -21.0060  -23.0801   -3.5066 O   0  0  0  0  0  0  0  0  0  0  0  0
  -13.4119  -25.1950   -0.6993 O   0  0  0  0  0  0  0  0  0  0  0  0
  -19.4501  -24.6993   -2.7052 C   0  0  1  0  0  0  0  0  0  0  0  0
  -15.0570  -24.1938   -2.1046 C   0  0  1  0  0  0  0  0  0  0  0  0
  -19.3133  -25.0237   -1.3251 O   0  0  0  0  0  0  0  0  0  0  0  0
  -15.1276  -22.7888   -2.3283 O   0  0  0  0  0  0  0  0  0  0  0  0
  -20.6410  -25.4311   -3.2958 C   0  0  0  0  0  0  0  0  0  0  0  0
  -13.9857  -24.8073   -2.9852 C   0  0  0  0  0  0  0  0  0  0  0  0
  -21.5934  -24.3527   -3.7906 C   0  0  2  0  0  0  0  0  0  0  0  0
  -12.9701  -25.4309   -2.0384 C   0  0  2  0  0  0  0  0  0  0  0  0
  -19.6185  -26.1351   -8.3184 N   0  0  0  0  0  0  0  0  0  0  0  0
  -19.1140  -26.1862   -7.0718 C   0  0  0  0  0  0  0  0  0  0  0  0
  -19.7379  -25.6815   -5.9915 N   0  0  0  0  0  0  0  0  0  0  0  0
  -20.9448  -25.0770   -6.1049 C   0  0  0  0  0  0  0  0  0  0  0  0
  -21.5632  -24.9818   -7.4366 C   0  0  0  0  0  0  0  0  0  0  0  0
  -20.8145  -25.5605   -8.5774 C   0  0  0  0  0  0  0  0  0  0  0  0
  -21.3122  -25.5160   -9.8368 N   0  0  0  0  0  0  0  0  0  0  0  0
  -22.7383  -24.3465   -7.2697 N   0  0  0  0  0  0  0  0  0  0  0  0
  -22.8625  -24.0596   -5.9486 C   0  0  0  0  0  0  0  0  0  0  0  0
  -21.7937  -24.4951   -5.2541 N   0  0  0  0  0  0  0  0  0  0  0  0
  -15.5829  -29.8079   -3.2981 N   0  0  0  0  0  0  0  0  0  0  0  0
  -16.0256  -28.5456   -3.1499 C   0  0  0  0  0  0  0  0  0  0  0  0
  -15.2333  -27.5095   -2.8204 N   0  0  0  0  0  0  0  0  0  0  0  0
  -13.9061  -27.6886   -2.6143 C   0  0  0  0  0  0  0  0  0  0  0  0
  -13.3459  -29.0412   -2.7580 C   0  0  0  0  0  0  0  0  0  0  0  0
  -14.2831  -30.1297   -3.1232 C   0  0  0  0  0  0  0  0  0  0  0  0
  -13.8493  -31.4050   -3.2761 N   0  0  0  0  0  0  0  0  0  0  0  0
  -12.0277  -28.9397   -2.5036 N   0  0  0  0  0  0  0  0  0  0  0  0
  -11.7670  -27.6372   -2.2215 C   0  0  0  0  0  0  0  0  0  0  0  0
  -12.8857  -26.8921   -2.2872 N   0  0  0  0  0  0  0  0  0  0  0  0
  1  3  1  1  0  0  0
  1  5  2  0  0  0  0
  1  9  1  0  0  0  0
  1 18  1  0  0  0  0
  2  4  1  6  0  0  0
  2  6  2  0  0  0  0
  2 10  1  0  0  0  0
  2 17  1  0  0  0  0
  7  9  1  0  0  0  0
  8 10  1  0  0  0  0
 11  7  1  6  0  0  0
 11 13  1  0  0  0  0
 11 15  1  0  0  0  0
 12  8  1  6  0  0  0
 12 14  1  0  0  0  0
 12 16  1  0  0  0  0
 13 21  1  0  0  0  0
 14 22  1  0  0  0  0
 15 17  1  1  0  0  0
 15 19  1  0  0  0  0
 16 18  1  1  0  0  0
 16 20  1  0  0  0  0
 19 21  1  0  0  0  0
 20 22  1  0  0  0  0
 21 32  1  6  0  0  0
 22 42  1  6  0  0  0
 23 24  2  0  0  0  0
 23 28  1  0  0  0  0
 24 25  1  0  0  0  0
 25 26  2  0  0  0  0
 26 27  1  0  0  0  0
 26 32  1  0  0  0  0
 27 28  2  0  0  0  0
 27 30  1  0  0  0  0
 28 29  1  0  0  0  0
 30 31  2  0  0  0  0
 31 32  1  0  0  0  0
 33 34  2  0  0  0  0
 33 38  1  0  0  0  0
 34 35  1  0  0  0  0
 35 36  2  0  0  0  0
 36 37  1  0  0  0  0
 36 42  1  0  0  0  0
 37 38  2  0  0  0  0
 37 40  1  0  0  0  0
 38 39  1  0  0  0  0
 40 41  2  0  0  0  0
 41 42  1  0  0  0  0
M  CHG  2   3  -1   4  -1
M  END
>  <CHROM.1>
94.23049061,82.07415120,-17.28964561,-25.38489611,-3.40322913,-0.02665166
-0.60502670,0.51513022

>  <Name>
ligand

>  <RI>
0

>  <Rbt.Current_Directory>
/home/itssahil/PROJECTS/Mol_Feturizer/New_Systems/rnas/4QLN

>  <Rbt.Executable>
rbdock ($Id: //depot/dev/client3/rdock/2013.1/src/exe/rbdock.cxx#4 $)

>  <Rbt.Library>
libRbt.so (2013.1, Build901 2013/11/27)

>  <Rbt.Parameter_File>
/export/apps/rDock/src/rDock_2013.1_src/data/scripts/dock_solv.prm

>  <Rbt.Receptor>
prm/blind_docking_60.prm

>  <SCORE>
12.8408

>  <SCORE.INTER>
-0.427291

>  <SCORE.INTER.CONST>
1

>  <SCORE.INTER.POLAR>
0

>  <SCORE.INTER.ROT>
2

>  <SCORE.INTER.SOLV>
30.0482

>  <SCORE.INTER.VDW>
-15.2343

>  <SCORE.INTER.norm>
-0.0101736

>  <SCORE.INTRA>
2.17475

>  <SCORE.INTRA.DIHEDRAL>
0.00109309

>  <SCORE.INTRA.DIHEDRAL.0>
2.39985

>  <SCORE.INTRA.POLAR>
0

>  <SCORE.INTRA.POLAR.0>
0

>  <SCORE.INTRA.REPUL>
0

>  <SCORE.INTRA.REPUL.0>
0

>  <SCORE.INTRA.SOLV>
0.93979

>  <SCORE.INTRA.SOLV.lig_0>
-110.958

>  <SCORE.INTRA.VDW>
1.70431

>  <SCORE.INTRA.VDW.0>
-2.34644

>  <SCORE.INTRA.norm>
0.0517797

>  <SCORE.RESTR>
11.0933

>  <SCORE.RESTR.CAVITY>
11.0933

>  <SCORE.RESTR.norm>
0.264127

>  <SCORE.SYSTEM>
0

>  <SCORE.SYSTEM.CONST>
0

>  <SCORE.SYSTEM.DIHEDRAL>
0

>  <SCORE.SYSTEM.SOLV>
0

>  <SCORE.SYSTEM.norm>
0

>  <SCORE.heavy>
42

>  <SCORE.norm>
0.305733

>  <RMSD>
27.994

$$$$
ligand
 OpenBabel11021811513D
libRbt.so/2013.1/901 2013/11/27
 42 48  0  0  0  0  0  0  0  0999 V2000
  -17.1292  -22.1801   -3.5243 P   0  0  2  0  0  0  0  0  0  0  0  0
  -18.3569  -26.1772   -0.6906 P   0  0  1  0  0  0  0  0  0  0  0  0
  -17.7381  -20.8382   -3.1904 O   0  5  0  0  0  0  0  0  0  0  0  0
  -17.7085  -26.8412   -1.8818 O   0  5  0  0  0  0  0  0  0  0  0  0
  -16.4586  -22.3910   -4.8607 O   0  0  0  0  0  0  0  0  0  0  0  0
  -18.6361  -26.9771    0.5591 O   0  0  0  0  0  0  0  0  0  0  0  0
  -19.6302  -23.0103   -3.6371 C   0  0  0  0  0  0  0  0  0  0  0  0
  -16.1048  -25.0546    0.0975 C   0  0  0  0  0  0  0  0  0  0  0  0
  -18.2652  -23.3066   -3.3470 O   0  0  0  0  0  0  0  0  0  0  0  0
  -17.4699  -24.8969   -0.2823 O   0  0  0  0  0  0  0  0  0  0  0  0
  -20.5334  -23.8550   -2.7465 C   0  0  1  0  0  0  0  0  0  0  0  0
  -15.2410  -24.0725   -0.6838 C   0  0  1  0  0  0  0  0  0  0  0  0
  -21.8247  -23.9789   -3.3487 O   0  0  0  0  0  0  0  0  0  0  0  0
  -13.8950  -24.5512   -0.7380 O   0  0  0  0  0  0  0  0  0  0  0  0
  -19.9708  -25.2540   -2.5603 C   0  0  1  0  0  0  0  0  0  0  0  0
  -15.7367  -23.9171   -2.1127 C   0  0  1  0  0  0  0  0  0  0  0  0
  -19.7380  -25.5071   -1.1780 O   0  0  0  0  0  0  0  0  0  0  0  0
  -16.0764  -22.5572   -2.3666 O   0  0  0  0  0  0  0  0  0  0  0  0
  -21.0183  -26.2128   -3.0951 C   0  0  0  0  0  0  0  0  0  0  0  0
  -14.5933  -24.3441   -3.0127 C   0  0  0  0  0  0  0  0  0  0  0  0
  -22.1697  -25.3467   -3.5841 C   0  0  2  0  0  0  0  0  0  0  0  0
  -13.4532  -24.7387   -2.0848 C   0  0  2  0  0  0  0  0  0  0  0  0
  -20.0402  -25.1753   -8.3814 N   0  0  0  0  0  0  0  0  0  0  0  0
  -19.5043  -24.8786   -7.1831 C   0  0  0  0  0  0  0  0  0  0  0  0
  -20.1763  -24.9692   -6.0206 N   0  0  0  0  0  0  0  0  0  0  0  0
  -21.4677  -25.3774   -5.9940 C   0  0  0  0  0  0  0  0  0  0  0  0
  -22.1248  -25.7207   -7.2649 C   0  0  0  0  0  0  0  0  0  0  0  0
  -21.3195  -25.5950   -8.5029 C   0  0  0  0  0  0  0  0  0  0  0  0
  -21.8474  -25.8915   -9.7150 N   0  0  0  0  0  0  0  0  0  0  0  0
  -23.3831  -26.0889   -6.9593 N   0  0  0  0  0  0  0  0  0  0  0  0
  -23.5209  -25.9902   -5.6122 C   0  0  0  0  0  0  0  0  0  0  0  0
  -22.3792  -25.5664   -5.0367 N   0  0  0  0  0  0  0  0  0  0  0  0
  -10.1420  -28.6488   -0.9360 N   0  0  0  0  0  0  0  0  0  0  0  0
  -10.1539  -27.3702   -0.5157 C   0  0  0  0  0  0  0  0  0  0  0  0
  -11.0746  -26.4666   -0.8968 N   0  0  0  0  0  0  0  0  0  0  0  0
  -12.0699  -26.8075   -1.7508 C   0  0  0  0  0  0  0  0  0  0  0  0
  -12.1250  -28.1884   -2.2549 C   0  0  0  0  0  0  0  0  0  0  0  0
  -11.0751  -29.1246   -1.7884 C   0  0  0  0  0  0  0  0  0  0  0  0
  -11.0529  -30.4149   -2.2040 N   0  0  0  0  0  0  0  0  0  0  0  0
  -13.1937  -28.2566   -3.0710 N   0  0  0  0  0  0  0  0  0  0  0  0
  -13.7715  -27.0279   -3.0882 C   0  0  0  0  0  0  0  0  0  0  0  0
  -13.1021  -26.1647   -2.3021 N   0  0  0  0  0  0  0  0  0  0  0  0
  1  3  1  1  0  0  0
  1  5  2  0  0  0  0
  1  9  1  0  0  0  0
  1 18  1  0  0  0  0
  2  4  1  6  0  0  0
  2  6  2  0  0  0  0
  2 10  1  0  0  0  0
  2 17  1  0  0  0  0
  7  9  1  0  0  0  0
  8 10  1  0  0  0  0
 11  7  1  6  0  0  0
 11 13  1  0  0  0  0
 11 15  1  0  0  0  0
 12  8  1  1  0  0  0
 12 14  1  0  0  0  0
 12 16  1  0  0  0  0
 13 21  1  0  0  0  0
 14 22  1  0  0  0  0
 15 17  1  1  0  0  0
 15 19  1  0  0  0  0
 16 18  1  6  0  0  0
 16 20  1  0  0  0  0
 19 21  1  0  0  0  0
 20 22  1  0  0  0  0
 21 32  1  6  0  0  0
 22 42  1  1  0  0  0
 23 24  2  0  0  0  0
 23 28  1  0  0  0  0
 24 25  1  0  0  0  0
 25 26  2  0  0  0  0
 26 27  1  0  0  0  0
 26 32  1  0  0  0  0
 27 28  2  0  0  0  0
 27 30  1  0  0  0  0
 28 29  1  0  0  0  0
 30 31  2  0  0  0  0
 31 32  1  0  0  0  0
 33 34  2  0  0  0  0
 33 38  1  0  0  0  0
 34 35  1  0  0  0  0
 35 36  2  0  0  0  0
 36 37  1  0  0  0  0
 36 42  1  0  0  0  0
 37 38  2  0  0  0  0
 37 40  1  0  0  0  0
 38 39  1  0  0  0  0
 40 41  2  0  0  0  0
 41 42  1  0  0  0  0
M  CHG  2   3  -1   4  -1
M  END
>  <CHROM.1>
60.27878473,-68.17232071,-17.32354737,-25.32923688,-3.14903770,2.93280811
0.44155991,-2.24680079

>  <Name>
ligand

>  <RI>
0

>  <Rbt.Current_Directory>
/home/itssahil/PROJECTS/Mol_Feturizer/New_Systems/rnas/4QLN

>  <Rbt.Executable>
rbdock ($Id: //depot/dev/client3/rdock/2013.1/src/exe/rbdock.cxx#4 $)

>  <Rbt.Library>
libRbt.so (2013.1, Build901 2013/11/27)

>  <Rbt.Parameter_File>
/export/apps/rDock/src/rDock_2013.1_src/data/scripts/dock_solv.prm

>  <Rbt.Receptor>
prm/blind_docking_100.prm

>  <SCORE>
-9.90147

>  <SCORE.INTER>
-12.7937

>  <SCORE.INTER.CONST>
1

>  <SCORE.INTER.POLAR>
0

>  <SCORE.INTER.ROT>
2

>  <SCORE.INTER.SOLV>
29.9452

>  <SCORE.INTER.VDW>
-23.4442

>  <SCORE.INTER.norm>
-0.304612

>  <SCORE.INTRA>
0.921356

>  <SCORE.INTRA.DIHEDRAL>
-0.000159503

>  <SCORE.INTRA.DIHEDRAL.0>
2.39985

>  <SCORE.INTRA.POLAR>
0

>  <SCORE.INTRA.POLAR.0>
0

>  <SCORE.INTRA.REPUL>
0

>  <SCORE.INTRA.REPUL.0>
0

>  <SCORE.INTRA.SOLV>
-0.0673196

>  <SCORE.INTRA.SOLV.lig_0>
-110.958

>  <SCORE.INTRA.VDW>
0.955095

>  <SCORE.INTRA.VDW.0>
-2.34644

>  <SCORE.INTRA.norm>
0.021937

>  <SCORE.RESTR>
1.97087

>  <SCORE.RESTR.CAVITY>
1.97087

>  <SCORE.RESTR.norm>
0.0469256

>  <SCORE.SYSTEM>
0

>  <SCORE.SYSTEM.CONST>
0

>  <SCORE.SYSTEM.DIHEDRAL>
0

>  <SCORE.SYSTEM.SOLV>
0

>  <SCORE.SYSTEM.norm>
0

>  <SCORE.heavy>
42

>  <SCORE.norm>
-0.235749

>  <RMSD>
28.011

$$$$
ligand
 OpenBabel11021811513D
libRbt.so/2013.1/901 2013/11/27
 42 48  0  0  0  0  0  0  0  0999 V2000
  -14.7467  -23.8905   -5.7548 P   0  0  2  0  0  0  0  0  0  0  0  0
  -16.6299  -22.8366   -1.1878 P   0  0  1  0  0  0  0  0  0  0  0  0
  -14.3402  -22.7468   -6.6546 O   0  5  0  0  0  0  0  0  0  0  0  0
  -16.9962  -24.2943   -1.3348 O   0  5  0  0  0  0  0  0  0  0  0  0
  -14.9134  -25.2773   -6.3284 O   0  0  0  0  0  0  0  0  0  0  0  0
  -16.7512  -22.1606    0.1567 O   0  0  0  0  0  0  0  0  0  0  0  0
  -17.0833  -22.6697   -5.6711 C   0  0  0  0  0  0  0  0  0  0  0  0
  -14.0431  -23.3414   -1.1037 C   0  0  0  0  0  0  0  0  0  0  0  0
  -16.1155  -23.4844   -5.0116 O   0  0  0  0  0  0  0  0  0  0  0  0
  -15.1221  -22.6398   -1.7171 O   0  0  0  0  0  0  0  0  0  0  0  0
  -17.8365  -21.8397   -4.6385 C   0  0  1  0  0  0  0  0  0  0  0  0
  -13.2005  -24.0204   -2.1760 C   0  0  1  0  0  0  0  0  0  0  0  0
  -19.1031  -21.4420   -5.1706 O   0  0  0  0  0  0  0  0  0  0  0  0
  -12.4858  -25.1187   -1.6044 O   0  0  0  0  0  0  0  0  0  0  0  0
  -18.0942  -22.6381   -3.3717 C   0  0  1  0  0  0  0  0  0  0  0  0
  -14.0697  -24.5653   -3.2981 C   0  0  1  0  0  0  0  0  0  0  0  0
  -17.4904  -21.9916   -2.2553 O   0  0  0  0  0  0  0  0  0  0  0  0
  -13.6964  -23.9710   -4.5377 O   0  0  0  0  0  0  0  0  0  0  0  0
  -19.6002  -22.6856   -3.1930 C   0  0  0  0  0  0  0  0  0  0  0  0
  -13.8242  -26.0611   -3.3438 C   0  0  0  0  0  0  0  0  0  0  0  0
  -20.1868  -21.9129   -4.3650 C   0  0  2  0  0  0  0  0  0  0  0  0
  -12.8132  -26.3545   -2.2445 C   0  0  2  0  0  0  0  0  0  0  0  0
  -20.3835  -25.7938   -7.8976 N   0  0  0  0  0  0  0  0  0  0  0  0
  -19.3231  -25.1748   -7.3466 C   0  0  0  0  0  0  0  0  0  0  0  0
  -19.4230  -24.1829   -6.4426 N   0  0  0  0  0  0  0  0  0  0  0  0
  -20.6339  -23.7417   -6.0256 C   0  0  0  0  0  0  0  0  0  0  0  0
  -21.8428  -24.3692   -6.5820 C   0  0  0  0  0  0  0  0  0  0  0  0
  -21.6513  -25.4545   -7.5732 C   0  0  0  0  0  0  0  0  0  0  0  0
  -22.7108  -26.0857   -8.1341 N   0  0  0  0  0  0  0  0  0  0  0  0
  -22.8936  -23.7536   -6.0083 N   0  0  0  0  0  0  0  0  0  0  0  0
  -22.4024  -22.8147   -5.1596 C   0  0  0  0  0  0  0  0  0  0  0  0
  -21.0555  -22.8076   -5.1696 N   0  0  0  0  0  0  0  0  0  0  0  0
  -16.8446  -27.3256    0.9767 N   0  0  0  0  0  0  0  0  0  0  0  0
  -16.6224  -26.2831    0.1549 C   0  0  0  0  0  0  0  0  0  0  0  0
  -15.5315  -26.1640   -0.6231 N   0  0  0  0  0  0  0  0  0  0  0  0
  -14.5690  -27.1178   -0.6200 C   0  0  0  0  0  0  0  0  0  0  0  0
  -14.7398  -28.2896    0.2528 C   0  0  0  0  0  0  0  0  0  0  0  0
  -15.9685  -28.3481    1.0794 C   0  0  0  0  0  0  0  0  0  0  0  0
  -16.2041  -29.3931    1.9104 N   0  0  0  0  0  0  0  0  0  0  0  0
  -13.6582  -29.0691    0.0648 N   0  0  0  0  0  0  0  0  0  0  0  0
  -12.8648  -28.4506   -0.8473 C   0  0  0  0  0  0  0  0  0  0  0  0
  -13.4071  -27.2884   -1.2551 N   0  0  0  0  0  0  0  0  0  0  0  0
  1  3  1  6  0  0  0
  1  5  2  0  0  0  0
  1  9  1  0  0  0  0
  1 18  1  0  0  0  0
  2  4  1  1  0  0  0
  2  6  2  0  0  0  0
  2 10  1  0  0  0  0
  2 17  1  0  0  0  0
  7  9  1  0  0  0  0
  8 10  1  0  0  0  0
 11  7  1  6  0  0  0
 11 13  1  0  0  0  0
 11 15  1  0  0  0  0
 12  8  1  1  0  0  0
 12 14  1  0  0  0  0
 12 16  1  0  0  0  0
 13 21  1  0  0  0  0
 14 22  1  0  0  0  0
 15 17  1  1  0  0  0
 15 19  1  0  0  0  0
 16 18  1  6  0  0  0
 16 20  1  0  0  0  0
 19 21  1  0  0  0  0
 20 22  1  0  0  0  0
 21 32  1  6  0  0  0
 22 42  1  1  0  0  0
 23 24  2  0  0  0  0
 23 28  1  0  0  0  0
 24 25  1  0  0  0  0
 25 26  2  0  0  0  0
 26 27  1  0  0  0  0
 26 32  1  0  0  0  0
 27 28  2  0  0  0  0
 27 30  1  0  0  0  0
 28 29  1  0  0  0  0
 30 31  2  0  0  0  0
 31 32  1  0  0  0  0
 33 34  2  0  0  0  0
 33 38  1  0  0  0  0
 34 35  1  0  0  0  0
 35 36  2  0  0  0  0
 36 37  1  0  0  0  0
 36 42  1  0  0  0  0
 37 38  2  0  0  0  0
 37 40  1  0  0  0  0
 38 39  1  0  0  0  0
 40 41  2  0  0  0  0
 41 42  1  0  0  0  0
M  CHG  2   3  -1   4  -1
M  END
>  <CHROM.1>
42.11185242,65.12612444,-16.81224061,-24.56042484,-3.34774554,-2.36238236
0.16650563,2.20765950

>  <Name>
ligand

>  <RI>
0

>  <Rbt.Current_Directory>
/home/itssahil/PROJECTS/Mol_Feturizer/New_Systems/rnas/4QLN

>  <Rbt.Executable>
rbdock ($Id: //depot/dev/client3/rdock/2013.1/src/exe/rbdock.cxx#4 $)

>  <Rbt.Library>
libRbt.so (2013.1, Build901 2013/11/27)

>  <Rbt.Parameter_File>
/export/apps/rDock/src/rDock_2013.1_src/data/scripts/dock_solv.prm

>  <Rbt.Receptor>
prm/blind_docking_60.prm

>  <SCORE>
34.8652

>  <SCORE.INTER>
20.3068

>  <SCORE.INTER.CONST>
1

>  <SCORE.INTER.POLAR>
0

>  <SCORE.INTER.ROT>
2

>  <SCORE.INTER.SOLV>
39.1087

>  <SCORE.INTER.VDW>
-4.4317

>  <SCORE.INTER.norm>
0.483495

>  <SCORE.INTRA>
1.41017

>  <SCORE.INTRA.DIHEDRAL>
0.000137736

>  <SCORE.INTRA.DIHEDRAL.0>
2.39985

>  <SCORE.INTRA.POLAR>
0

>  <SCORE.INTRA.POLAR.0>
0

>  <SCORE.INTRA.REPUL>
0

>  <SCORE.INTRA.REPUL.0>
0

>  <SCORE.INTRA.SOLV>
1.27659

>  <SCORE.INTRA.SOLV.lig_0>
-110.958

>  <SCORE.INTRA.VDW>
0.771805

>  <SCORE.INTRA.VDW.0>
-2.34644

>  <SCORE.INTRA.norm>
0.0335754

>  <SCORE.RESTR>
13.1483

>  <SCORE.RESTR.CAVITY>
13.1483

>  <SCORE.RESTR.norm>
0.313054

>  <SCORE.SYSTEM>
0

>  <SCORE.SYSTEM.CONST>
0

>  <SCORE.SYSTEM.DIHEDRAL>
0

>  <SCORE.SYSTEM.SOLV>
0

>  <SCORE.SYSTEM.norm>
0

>  <SCORE.heavy>
42

>  <SCORE.norm>
0.830124

>  <RMSD>
28.125

$$$$
ligand
 OpenBabel11021811513D
libRbt.so/2013.1/901 2013/11/27
 42 48  0  0  0  0  0  0  0  0999 V2000
  -14.7932  -22.1716   -1.7476 P   0  0  2  0  0  0  0  0  0  0  0  0
  -16.5446  -25.5152   -5.1042 P   0  0  1  0  0  0  0  0  0  0  0  0
  -13.4203  -21.5780   -1.9619 O   0  5  0  0  0  0  0  0  0  0  0  0
  -17.5097  -25.7059   -3.9586 O   0  5  0  0  0  0  0  0  0  0  0  0
  -15.4689  -22.0401   -0.4037 O   0  0  0  0  0  0  0  0  0  0  0  0
  -16.8487  -26.1181   -6.4546 O   0  0  0  0  0  0  0  0  0  0  0  0
  -13.5441  -24.4898   -1.8983 C   0  0  0  0  0  0  0  0  0  0  0  0
  -17.3904  -23.0683   -5.6050 C   0  0  0  0  0  0  0  0  0  0  0  0
  -14.7315  -23.7339   -2.1301 O   0  0  0  0  0  0  0  0  0  0  0  0
  -16.3007  -23.9358   -5.3004 O   0  0  0  0  0  0  0  0  0  0  0  0
  -13.4360  -25.5975   -2.9393 C   0  0  1  0  0  0  0  0  0  0  0  0
  -17.3722  -21.8744   -4.6588 C   0  0  1  0  0  0  0  0  0  0  0  0
  -12.6000  -26.6461   -2.4425 O   0  0  0  0  0  0  0  0  0  0  0  0
  -18.6818  -21.3076   -4.5721 O   0  0  0  0  0  0  0  0  0  0  0  0
  -14.7976  -26.1959   -3.2503 C   0  0  1  0  0  0  0  0  0  0  0  0
  -16.9509  -22.2871   -3.2575 C   0  0  1  0  0  0  0  0  0  0  0  0
  -15.0959  -26.0389   -4.6342 O   0  0  0  0  0  0  0  0  0  0  0  0
  -15.7806  -21.5736   -2.8693 O   0  0  0  0  0  0  0  0  0  0  0  0
  -14.7085  -27.6700   -2.9016 C   0  0  0  0  0  0  0  0  0  0  0  0
  -18.1048  -21.9316   -2.3399 C   0  0  0  0  0  0  0  0  0  0  0  0
  -13.2929  -27.8962   -2.3919 C   0  0  2  0  0  0  0  0  0  0  0  0
  -19.1752  -21.3167   -3.2302 C   0  0  2  0  0  0  0  0  0  0  0  0
  -12.3206  -26.8076    2.6527 N   0  0  0  0  0  0  0  0  0  0  0  0
  -12.1397  -26.0546    1.5520 C   0  0  0  0  0  0  0  0  0  0  0  0
  -12.4367  -26.4681    0.3062 N   0  0  0  0  0  0  0  0  0  0  0  0
  -12.9502  -27.7023    0.0873 C   0  0  0  0  0  0  0  0  0  0  0  0
  -13.1778  -28.5861    1.2414 C   0  0  0  0  0  0  0  0  0  0  0  0
  -12.8253  -28.0597    2.5814 C   0  0  0  0  0  0  0  0  0  0  0  0
  -13.0036  -28.8078    3.6969 N   0  0  0  0  0  0  0  0  0  0  0  0
  -13.6856  -29.7330    0.7524 N   0  0  0  0  0  0  0  0  0  0  0  0
  -13.7755  -29.5971   -0.5954 C   0  0  0  0  0  0  0  0  0  0  0  0
  -13.3375  -28.3866   -0.9920 N   0  0  0  0  0  0  0  0  0  0  0  0
  -22.1554  -24.9547   -5.5660 N   0  0  0  0  0  0  0  0  0  0  0  0
  -20.9905  -24.4056   -5.9571 C   0  0  0  0  0  0  0  0  0  0  0  0
  -20.3295  -23.4718   -5.2496 N   0  0  0  0  0  0  0  0  0  0  0  0
  -20.8175  -23.0212   -4.0686 C   0  0  0  0  0  0  0  0  0  0  0  0
  -22.0875  -23.5739   -3.5729 C   0  0  0  0  0  0  0  0  0  0  0  0
  -22.7551  -24.5990   -4.4094 C   0  0  0  0  0  0  0  0  0  0  0  0
  -23.9282  -25.1600   -4.0260 N   0  0  0  0  0  0  0  0  0  0  0  0
  -22.3390  -22.9645   -2.3989 N   0  0  0  0  0  0  0  0  0  0  0  0
  -21.3203  -22.0979   -2.1640 C   0  0  0  0  0  0  0  0  0  0  0  0
  -20.4142  -22.1315   -3.1584 N   0  0  0  0  0  0  0  0  0  0  0  0
  1  3  1  6  0  0  0
  1  5  2  0  0  0  0
  1  9  1  0  0  0  0
  1 18  1  0  0  0  0
  2  4  1  1  0  0  0
  2  6  2  0  0  0  0
  2 10  1  0  0  0  0
  2 17  1  0  0  0  0
  7  9  1  0  0  0  0
  8 10  1  0  0  0  0
 11  7  1  1  0  0  0
 11 13  1  0  0  0  0
 11 15  1  0  0  0  0
 12  8  1  6  0  0  0
 12 14  1  0  0  0  0
 12 16  1  0  0  0  0
 13 21  1  0  0  0  0
 14 22  1  0  0  0  0
 15 17  1  6  0  0  0
 15 19  1  0  0  0  0
 16 18  1  1  0  0  0
 16 20  1  0  0  0  0
 19 21  1  0  0  0  0
 20 22  1  0  0  0  0
 21 32  1  1  0  0  0
 22 42  1  6  0  0  0
 23 24  2  0  0  0  0
 23 28  1  0  0  0  0
 24 25  1  0  0  0  0
 25 26  2  0  0  0  0
 26 27  1  0  0  0  0
 26 32  1  0  0  0  0
 27 28  2  0  0  0  0
 27 30  1  0  0  0  0
 28 29  1  0  0  0  0
 30 31  2  0  0  0  0
 31 32  1  0  0  0  0
 33 34  2  0  0  0  0
 33 38  1  0  0  0  0
 34 35  1  0  0  0  0
 35 36  2  0  0  0  0
 36 37  1  0  0  0  0
 36 42  1  0  0  0  0
 37 38  2  0  0  0  0
 37 40  1  0  0  0  0
 38 39  1  0  0  0  0
 40 41  2  0  0  0  0
 41 42  1  0  0  0  0
M  CHG  2   3  -1   4  -1
M  END
>  <CHROM.1>
7.98468542,17.51321284,-16.41515378,-24.77506180,-2.56860895,-0.49273492
-0.50510627,-0.11131312

>  <Name>
ligand

>  <RI>
0

>  <Rbt.Current_Directory>
/home/itssahil/PROJECTS/Mol_Feturizer/New_Systems/rnas/4QLN

>  <Rbt.Executable>
rbdock ($Id: //depot/dev/client3/rdock/2013.1/src/exe/rbdock.cxx#4 $)

>  <Rbt.Library>
libRbt.so (2013.1, Build901 2013/11/27)

>  <Rbt.Parameter_File>
/export/apps/rDock/src/rDock_2013.1_src/data/scripts/dock_solv.prm

>  <Rbt.Receptor>
prm/blind_docking_100.prm

>  <SCORE>
5.03874

>  <SCORE.INTER>
1.1594

>  <SCORE.INTER.CONST>
1

>  <SCORE.INTER.POLAR>
0

>  <SCORE.INTER.ROT>
2

>  <SCORE.INTER.SOLV>
25.7954

>  <SCORE.INTER.VDW>
-12.7589

>  <SCORE.INTER.norm>
0.0276047

>  <SCORE.INTRA>
-0.0715973

>  <SCORE.INTRA.DIHEDRAL>
-0.000553766

>  <SCORE.INTRA.DIHEDRAL.0>
2.39985

>  <SCORE.INTRA.POLAR>
0

>  <SCORE.INTRA.POLAR.0>
0

>  <SCORE.INTRA.REPUL>
0

>  <SCORE.INTRA.REPUL.0>
0

>  <SCORE.INTRA.SOLV>
0.0990248

>  <SCORE.INTRA.SOLV.lig_0>
-110.958

>  <SCORE.INTRA.VDW>
-0.120833

>  <SCORE.INTRA.VDW.0>
-2.34644

>  <SCORE.INTRA.norm>
-0.0017047

>  <SCORE.RESTR>
3.95094

>  <SCORE.RESTR.CAVITY>
3.95094

>  <SCORE.RESTR.norm>
0.09407

>  <SCORE.SYSTEM>
0

>  <SCORE.SYSTEM.CONST>
0

>  <SCORE.SYSTEM.DIHEDRAL>
0

>  <SCORE.SYSTEM.SOLV>
0

>  <SCORE.SYSTEM.norm>
0

>  <SCORE.heavy>
42

>  <SCORE.norm>
0.11997

>  <RMSD>
28.128

$$$$
ligand
 OpenBabel11021811513D
libRbt.so/2013.1/901 2013/11/27
 42 48  0  0  0  0  0  0  0  0999 V2000
  -15.5046  -22.2279   -3.4863 P   0  0  2  0  0  0  0  0  0  0  0  0
  -18.1031  -25.8187   -1.0638 P   0  0  1  0  0  0  0  0  0  0  0  0
  -15.7119  -20.7858   -3.0859 O   0  5  0  0  0  0  0  0  0  0  0  0
  -17.5837  -26.5793   -2.2605 O   0  5  0  0  0  0  0  0  0  0  0  0
  -14.8168  -22.5560   -4.7898 O   0  0  0  0  0  0  0  0  0  0  0  0
  -18.7127  -26.5659    0.0979 O   0  0  0  0  0  0  0  0  0  0  0  0
  -18.1205  -22.2528   -3.8236 C   0  0  0  0  0  0  0  0  0  0  0  0
  -15.6939  -25.4785   -0.0472 C   0  0  0  0  0  0  0  0  0  0  0  0
  -16.9355  -22.9650   -3.4718 O   0  0  0  0  0  0  0  0  0  0  0  0
  -16.9128  -24.8930   -0.4993 O   0  0  0  0  0  0  0  0  0  0  0  0
  -19.3064  -22.8330   -3.0623 C   0  0  1  0  0  0  0  0  0  0  0  0
  -14.5138  -24.7619   -0.6912 C   0  0  1  0  0  0  0  0  0  0  0  0
  -20.5201  -22.5251   -3.7534 O   0  0  0  0  0  0  0  0  0  0  0  0
  -13.3721  -25.6223   -0.6977 O   0  0  0  0  0  0  0  0  0  0  0  0
  -19.2042  -24.3450   -2.9528 C   0  0  1  0  0  0  0  0  0  0  0  0
  -14.8178  -24.3826   -2.1318 C   0  0  1  0  0  0  0  0  0  0  0  0
  -19.1752  -24.7348   -1.5831 O   0  0  0  0  0  0  0  0  0  0  0  0
  -14.7141  -22.9716   -2.2976 O   0  0  0  0  0  0  0  0  0  0  0  0
  -20.4406  -24.9089   -3.6278 C   0  0  0  0  0  0  0  0  0  0  0  0
  -13.7818  -25.0844   -2.9885 C   0  0  0  0  0  0  0  0  0  0  0  0
  -21.2359  -23.7082   -4.1184 C   0  0  2  0  0  0  0  0  0  0  0  0
  -12.8940  -25.8581   -2.0243 C   0  0  2  0  0  0  0  0  0  0  0  0
  -22.8864  -26.5219   -8.2339 N   0  0  0  0  0  0  0  0  0  0  0  0
  -22.9215  -26.8054   -6.9188 C   0  0  0  0  0  0  0  0  0  0  0  0
  -22.4558  -25.9799   -5.9634 N   0  0  0  0  0  0  0  0  0  0  0  0
  -21.9108  -24.7821   -6.2847 C   0  0  0  0  0  0  0  0  0  0  0  0
  -21.8367  -24.3991   -7.7034 C   0  0  0  0  0  0  0  0  0  0  0  0
  -22.3697  -25.3616   -8.6967 C   0  0  0  0  0  0  0  0  0  0  0  0
  -22.3408  -25.0873  -10.0232 N   0  0  0  0  0  0  0  0  0  0  0  0
  -21.2614  -23.1827   -7.7431 N   0  0  0  0  0  0  0  0  0  0  0  0
  -20.9903  -22.8180   -6.4638 C   0  0  0  0  0  0  0  0  0  0  0  0
  -21.3776  -23.7711   -5.5943 N   0  0  0  0  0  0  0  0  0  0  0  0
  -15.9811  -29.8982   -3.3358 N   0  0  0  0  0  0  0  0  0  0  0  0
  -16.2883  -28.6056   -3.1208 C   0  0  0  0  0  0  0  0  0  0  0  0
  -15.3836  -27.6678   -2.7866 N   0  0  0  0  0  0  0  0  0  0  0  0
  -14.0742  -27.9859   -2.6447 C   0  0  0  0  0  0  0  0  0  0  0  0
  -13.6589  -29.3800   -2.8636 C   0  0  0  0  0  0  0  0  0  0  0  0
  -14.7143  -30.3541   -3.2293 C   0  0  0  0  0  0  0  0  0  0  0  0
  -14.4174  -31.6585   -3.4491 N   0  0  0  0  0  0  0  0  0  0  0  0
  -12.3282  -29.4202   -2.6625 N   0  0  0  0  0  0  0  0  0  0  0  0
  -11.9271  -28.1630   -2.3427 C   0  0  0  0  0  0  0  0  0  0  0  0
  -12.9668  -27.3087   -2.3318 N   0  0  0  0  0  0  0  0  0  0  0  0
  1  3  1  1  0  0  0
  1  5  2  0  0  0  0
  1  9  1  0  0  0  0
  1 18  1  0  0  0  0
  2  4  1  6  0  0  0
  2  6  2  0  0  0  0
  2 10  1  0  0  0  0
  2 17  1  0  0  0  0
  7  9  1  0  0  0  0
  8 10  1  0  0  0  0
 11  7  1  6  0  0  0
 11 13  1  0  0  0  0
 11 15  1  0  0  0  0
 12  8  1  6  0  0  0
 12 14  1  0  0  0  0
 12 16  1  0  0  0  0
 13 21  1  0  0  0  0
 14 22  1  0  0  0  0
 15 17  1  1  0  0  0
 15 19  1  0  0  0  0
 16 18  1  1  0  0  0
 16 20  1  0  0  0  0
 19 21  1  0  0  0  0
 20 22  1  0  0  0  0
 21 32  1  6  0  0  0
 22 42  1  6  0  0  0
 23 24  2  0  0  0  0
 23 28  1  0  0  0  0
 24 25  1  0  0  0  0
 25 26  2  0  0  0  0
 26 27  1  0  0  0  0
 26 32  1  0  0  0  0
 27 28  2  0  0  0  0
 27 30  1  0  0  0  0
 28 29  1  0  0  0  0
 30 31  2  0  0  0  0
 31 32  1  0  0  0  0
 33 34  2  0  0  0  0
 33 38  1  0  0  0  0
 34 35  1  0  0  0  0
 35 36  2  0  0  0  0
 36 37  1  0  0  0  0
 36 42  1  0  0  0  0
 37 38  2  0  0  0  0
 37 40  1  0  0  0  0
 38 39  1  0  0  0  0
 40 41  2  0  0  0  0
 41 42  1  0  0  0  0
M  CHG  2   3  -1   4  -1
M  END
>  <CHROM.1>
175.19052323,76.88134533,-17.40783470,-25.33810725,-3.52786901,-0.17801827
-0.58279068,0.20447495

>  <Name>
ligand

>  <RI>
0

>  <Rbt.Current_Directory>
/home/itssahil/PROJECTS/Mol_Feturizer/New_Systems/rnas/4QLN

>  <Rbt.Executable>
rbdock ($Id: //depot/dev/client3/rdock/2013.1/src/exe/rbdock.cxx#4 $)

>  <Rbt.Library>
libRbt.so (2013.1, Build901 2013/11/27)

>  <Rbt.Parameter_File>
/export/apps/rDock/src/rDock_2013.1_src/data/scripts/dock_solv.prm

>  <Rbt.Receptor>
prm/blind_docking_60.prm

>  <SCORE>
13.1018

>  <SCORE.INTER>
-1.86507

>  <SCORE.INTER.CONST>
1

>  <SCORE.INTER.POLAR>
0

>  <SCORE.INTER.ROT>
2

>  <SCORE.INTER.SOLV>
26.2226

>  <SCORE.INTER.VDW>
-14.9176

>  <SCORE.INTER.norm>
-0.0444065

>  <SCORE.INTRA>
2.19559

>  <SCORE.INTRA.DIHEDRAL>
0.000665721

>  <SCORE.INTRA.DIHEDRAL.0>
2.39985

>  <SCORE.INTRA.POLAR>
0

>  <SCORE.INTRA.POLAR.0>
0

>  <SCORE.INTRA.REPUL>
0

>  <SCORE.INTRA.REPUL.0>
0

>  <SCORE.INTRA.SOLV>
1.06128

>  <SCORE.INTRA.SOLV.lig_0>
-110.958

>  <SCORE.INTRA.VDW>
1.66462

>  <SCORE.INTRA.VDW.0>
-2.34644

>  <SCORE.INTRA.norm>
0.0522759

>  <SCORE.RESTR>
12.7713

>  <SCORE.RESTR.CAVITY>
12.7713

>  <SCORE.RESTR.norm>
0.304079

>  <SCORE.SYSTEM>
0

>  <SCORE.SYSTEM.CONST>
0

>  <SCORE.SYSTEM.DIHEDRAL>
0

>  <SCORE.SYSTEM.SOLV>
0

>  <SCORE.SYSTEM.norm>
0

>  <SCORE.heavy>
42

>  <SCORE.norm>
0.311948

>  <RMSD>
28.131

$$$$
ligand
 OpenBabel11021811513D
libRbt.so/2013.1/901 2013/11/27
 42 48  0  0  0  0  0  0  0  0999 V2000
  -17.4848  -21.9722   -3.3944 P   0  0  2  0  0  0  0  0  0  0  0  0
  -18.3741  -26.2560   -0.8700 P   0  0  1  0  0  0  0  0  0  0  0  0
  -18.1869  -20.7094   -2.9525 O   0  5  0  0  0  0  0  0  0  0  0  0
  -17.6944  -26.7760   -2.1143 O   0  5  0  0  0  0  0  0  0  0  0  0
  -16.8186  -22.0289   -4.7483 O   0  0  0  0  0  0  0  0  0  0  0  0
  -18.5761  -27.1682    0.3159 O   0  0  0  0  0  0  0  0  0  0  0  0
  -19.9186  -22.9765   -3.5518 C   0  0  0  0  0  0  0  0  0  0  0  0
  -16.2010  -25.0314   -0.0148 C   0  0  0  0  0  0  0  0  0  0  0  0
  -18.5317  -23.1909   -3.2962 O   0  0  0  0  0  0  0  0  0  0  0  0
  -17.5790  -24.9479   -0.3706 O   0  0  0  0  0  0  0  0  0  0  0  0
  -20.7445  -23.9525   -2.7224 C   0  0  1  0  0  0  0  0  0  0  0  0
  -15.4230  -23.9302   -0.7242 C   0  0  1  0  0  0  0  0  0  0  0  0
  -22.0312  -24.1262   -3.3223 O   0  0  0  0  0  0  0  0  0  0  0  0
  -14.0461  -24.3010   -0.8259 O   0  0  0  0  0  0  0  0  0  0  0  0
  -20.0772  -25.3155   -2.6497 C   0  0  1  0  0  0  0  0  0  0  0  0
  -15.9482  -23.7031   -2.1328 C   0  0  1  0  0  0  0  0  0  0  0  0
  -19.8075  -25.6559   -1.2932 O   0  0  0  0  0  0  0  0  0  0  0  0
  -16.3914  -22.3570   -2.2777 O   0  0  0  0  0  0  0  0  0  0  0  0
  -21.0579  -26.3062   -3.2493 C   0  0  0  0  0  0  0  0  0  0  0  0
  -14.7887  -23.9727   -3.0722 C   0  0  0  0  0  0  0  0  0  0  0  0
  -22.2769  -25.4939   -3.6605 C   0  0  2  0  0  0  0  0  0  0  0  0
  -13.6099  -24.3508   -2.1865 C   0  0  2  0  0  0  0  0  0  0  0  0
  -20.1397  -25.0590   -8.4377 N   0  0  0  0  0  0  0  0  0  0  0  0
  -19.5993  -24.8498   -7.2230 C   0  0  0  0  0  0  0  0  0  0  0  0
  -20.2741  -25.0011   -6.0685 N   0  0  0  0  0  0  0  0  0  0  0  0
  -21.5732  -25.3847   -6.0677 C   0  0  0  0  0  0  0  0  0  0  0  0
  -22.2357  -25.6334   -7.3576 C   0  0  0  0  0  0  0  0  0  0  0  0
  -21.4269  -25.4449   -8.5854 C   0  0  0  0  0  0  0  0  0  0  0  0
  -21.9593  -25.6532   -9.8137 N   0  0  0  0  0  0  0  0  0  0  0  0
  -23.5013  -25.9955   -7.0758 N   0  0  0  0  0  0  0  0  0  0  0  0
  -23.6385  -25.9802   -5.7252 C   0  0  0  0  0  0  0  0  0  0  0  0
  -22.4893  -25.6164   -5.1241 N   0  0  0  0  0  0  0  0  0  0  0  0
  -11.1222  -28.6563   -0.4995 N   0  0  0  0  0  0  0  0  0  0  0  0
  -11.3678  -27.4930    0.1313 C   0  0  0  0  0  0  0  0  0  0  0  0
  -12.0252  -26.4624   -0.4304 N   0  0  0  0  0  0  0  0  0  0  0  0
  -12.4893  -26.5447   -1.7008 C   0  0  0  0  0  0  0  0  0  0  0  0
  -12.2602  -27.7857   -2.4567 C   0  0  0  0  0  0  0  0  0  0  0  0
  -11.5284  -28.8754   -1.7686 C   0  0  0  0  0  0  0  0  0  0  0  0
  -11.2756  -30.0520   -2.3929 N   0  0  0  0  0  0  0  0  0  0  0  0
  -12.8148  -27.6039   -3.6701 N   0  0  0  0  0  0  0  0  0  0  0  0
  -13.3510  -26.3565   -3.6894 C   0  0  0  0  0  0  0  0  0  0  0  0
  -13.1571  -25.7256   -2.5167 N   0  0  0  0  0  0  0  0  0  0  0  0
  1  3  1  1  0  0  0
  1  5  2  0  0  0  0
  1  9  1  0  0  0  0
  1 18  1  0  0  0  0
  2  4  1  6  0  0  0
  2  6  2  0  0  0  0
  2 10  1  0  0  0  0
  2 17  1  0  0  0  0
  7  9  1  0  0  0  0
  8 10  1  0  0  0  0
 11  7  1  6  0  0  0
 11 13  1  0  0  0  0
 11 15  1  0  0  0  0
 12  8  1  6  0  0  0
 12 14  1  0  0  0  0
 12 16  1  0  0  0  0
 13 21  1  0  0  0  0
 14 22  1  0  0  0  0
 15 17  1  1  0  0  0
 15 19  1  0  0  0  0
 16 18  1  1  0  0  0
 16 20  1  0  0  0  0
 19 21  1  0  0  0  0
 20 22  1  0  0  0  0
 21 32  1  6  0  0  0
 22 42  1  6  0  0  0
 23 24  2  0  0  0  0
 23 28  1  0  0  0  0
 24 25  1  0  0  0  0
 25 26  2  0  0  0  0
 26 27  1  0  0  0  0
 26 32  1  0  0  0  0
 27 28  2  0  0  0  0
 27 30  1  0  0  0  0
 28 29  1  0  0  0  0
 30 31  2  0  0  0  0
 31 32  1  0  0  0  0
 33 34  2  0  0  0  0
 33 38  1  0  0  0  0
 34 35  1  0  0  0  0
 35 36  2  0  0  0  0
 36 37  1  0  0  0  0
 36 42  1  0  0  0  0
 37 38  2  0  0  0  0
 37 40  1  0  0  0  0
 38 39  1  0  0  0  0
 40 41  2  0  0  0  0
 41 42  1  0  0  0  0
M  CHG  2   3  -1   4  -1
M  END
>  <CHROM.1>
65.77717899,-37.65255115,-17.52440473,-25.21563946,-3.19094599,2.93628140
0.46603911,-2.32851772

>  <Name>
ligand

>  <RI>
0

>  <Rbt.Current_Directory>
/home/itssahil/PROJECTS/Mol_Feturizer/New_Systems/rnas/4QLN

>  <Rbt.Executable>
rbdock ($Id: //depot/dev/client3/rdock/2013.1/src/exe/rbdock.cxx#4 $)

>  <Rbt.Library>
libRbt.so (2013.1, Build901 2013/11/27)

>  <Rbt.Parameter_File>
/export/apps/rDock/src/rDock_2013.1_src/data/scripts/dock_solv.prm

>  <Rbt.Receptor>
prm/blind_docking_100.prm

>  <SCORE>
-10.2965

>  <SCORE.INTER>
-12.4183

>  <SCORE.INTER.CONST>
1

>  <SCORE.INTER.POLAR>
0

>  <SCORE.INTER.ROT>
2

>  <SCORE.INTER.SOLV>
30.6962

>  <SCORE.INTER.VDW>
-23.4443

>  <SCORE.INTER.norm>
-0.295675

>  <SCORE.INTRA>
0.80576

>  <SCORE.INTRA.DIHEDRAL>
0.000920009

>  <SCORE.INTRA.DIHEDRAL.0>
2.39985

>  <SCORE.INTRA.POLAR>
0

>  <SCORE.INTRA.POLAR.0>
0

>  <SCORE.INTRA.REPUL>
0

>  <SCORE.INTRA.REPUL.0>
0

>  <SCORE.INTRA.SOLV>
-0.0494663

>  <SCORE.INTRA.SOLV.lig_0>
-110.958

>  <SCORE.INTRA.VDW>
0.830033

>  <SCORE.INTRA.VDW.0>
-2.34644

>  <SCORE.INTRA.norm>
0.0191848

>  <SCORE.RESTR>
1.31605

>  <SCORE.RESTR.CAVITY>
1.31605

>  <SCORE.RESTR.norm>
0.0313345

>  <SCORE.SYSTEM>
0

>  <SCORE.SYSTEM.CONST>
0

>  <SCORE.SYSTEM.DIHEDRAL>
0

>  <SCORE.SYSTEM.SOLV>
0

>  <SCORE.SYSTEM.norm>
0

>  <SCORE.heavy>
42

>  <SCORE.norm>
-0.245155

>  <RMSD>
28.167

$$$$
ligand
 OpenBabel11021811513D
libRbt.so/2013.1/901 2013/11/27
 42 48  0  0  0  0  0  0  0  0999 V2000
  -17.3790  -21.9857   -3.4854 P   0  0  2  0  0  0  0  0  0  0  0  0
  -18.2608  -26.1288   -0.7338 P   0  0  1  0  0  0  0  0  0  0  0  0
  -18.0472  -20.6913   -3.0843 O   0  5  0  0  0  0  0  0  0  0  0  0
  -17.6273  -26.7190   -1.9710 O   0  5  0  0  0  0  0  0  0  0  0  0
  -16.7548  -22.1182   -4.8539 O   0  0  0  0  0  0  0  0  0  0  0  0
  -18.4418  -26.9800    0.4999 O   0  0  0  0  0  0  0  0  0  0  0  0
  -19.8323  -22.9536   -3.5233 C   0  0  0  0  0  0  0  0  0  0  0  0
  -16.0436  -24.9032   -0.0021 C   0  0  0  0  0  0  0  0  0  0  0  0
  -18.4419  -23.1800   -3.2984 O   0  0  0  0  0  0  0  0  0  0  0  0
  -17.4302  -24.8126   -0.3210 O   0  0  0  0  0  0  0  0  0  0  0  0
  -20.6485  -23.8746   -2.6243 C   0  0  1  0  0  0  0  0  0  0  0  0
  -15.2697  -23.8507   -0.7859 C   0  0  1  0  0  0  0  0  0  0  0  0
  -21.9552  -24.0541   -3.1773 O   0  0  0  0  0  0  0  0  0  0  0  0
  -13.9026  -24.2499   -0.9099 O   0  0  0  0  0  0  0  0  0  0  0  0
  -20.0013  -25.2441   -2.5059 C   0  0  1  0  0  0  0  0  0  0  0  0
  -15.8333  -23.6815   -2.1878 C   0  0  1  0  0  0  0  0  0  0  0  0
  -19.6965  -25.5245   -1.1431 O   0  0  0  0  0  0  0  0  0  0  0  0
  -16.2589  -22.3363   -2.3840 O   0  0  0  0  0  0  0  0  0  0  0  0
  -21.0153  -26.2448   -3.0284 C   0  0  0  0  0  0  0  0  0  0  0  0
  -14.7069  -24.0156   -3.1467 C   0  0  0  0  0  0  0  0  0  0  0  0
  -22.2329  -25.4318   -3.4422 C   0  0  2  0  0  0  0  0  0  0  0  0
  -13.5084  -24.3718   -2.2788 C   0  0  2  0  0  0  0  0  0  0  0  0
  -20.2714  -25.1364   -8.3047 N   0  0  0  0  0  0  0  0  0  0  0  0
  -19.6964  -24.8632   -7.1190 C   0  0  0  0  0  0  0  0  0  0  0  0
  -20.3272  -24.9849   -5.9365 N   0  0  0  0  0  0  0  0  0  0  0  0
  -21.6143  -25.4027   -5.8749 C   0  0  0  0  0  0  0  0  0  0  0  0
  -22.3127  -25.7217   -7.1300 C   0  0  0  0  0  0  0  0  0  0  0  0
  -21.5515  -25.5621   -8.3918 C   0  0  0  0  0  0  0  0  0  0  0  0
  -22.1191  -25.8347   -9.5915 N   0  0  0  0  0  0  0  0  0  0  0  0
  -23.5575  -26.1055   -6.7899 N   0  0  0  0  0  0  0  0  0  0  0  0
  -23.6493  -26.0384   -5.4370 C   0  0  0  0  0  0  0  0  0  0  0  0
  -22.4911  -25.6198   -4.8915 N   0  0  0  0  0  0  0  0  0  0  0  0
  -11.1815  -28.6892   -0.4031 N   0  0  0  0  0  0  0  0  0  0  0  0
  -11.4074  -27.5001    0.1855 C   0  0  0  0  0  0  0  0  0  0  0  0
  -12.0228  -26.4700   -0.4226 N   0  0  0  0  0  0  0  0  0  0  0  0
  -12.4614  -26.5795   -1.6999 C   0  0  0  0  0  0  0  0  0  0  0  0
  -12.2515  -27.8498   -2.4116 C   0  0  0  0  0  0  0  0  0  0  0  0
  -11.5661  -28.9370   -1.6736 C   0  0  0  0  0  0  0  0  0  0  0  0
  -11.3334  -30.1393   -2.2552 N   0  0  0  0  0  0  0  0  0  0  0  0
  -12.7742  -27.6911   -3.6422 N   0  0  0  0  0  0  0  0  0  0  0  0
  -13.2741  -26.4306   -3.7124 C   0  0  0  0  0  0  0  0  0  0  0  0
  -13.0878  -25.7684   -2.5558 N   0  0  0  0  0  0  0  0  0  0  0  0
  1  3  1  1  0  0  0
  1  5  2  0  0  0  0
  1  9  1  0  0  0  0
  1 18  1  0  0  0  0
  2  4  1  6  0  0  0
  2  6  2  0  0  0  0
  2 10  1  0  0  0  0
  2 17  1  0  0  0  0
  7  9  1  0  0  0  0
  8 10  1  0  0  0  0
 11  7  1  6  0  0  0
 11 13  1  0  0  0  0
 11 15  1  0  0  0  0
 12  8  1  6  0  0  0
 12 14  1  0  0  0  0
 12 16  1  0  0  0  0
 13 21  1  0  0  0  0
 14 22  1  0  0  0  0
 15 17  1  1  0  0  0
 15 19  1  0  0  0  0
 16 18  1  1  0  0  0
 16 20  1  0  0  0  0
 19 21  1  0  0  0  0
 20 22  1  0  0  0  0
 21 32  1  6  0  0  0
 22 42  1  1  0  0  0
 23 24  2  0  0  0  0
 23 28  1  0  0  0  0
 24 25  1  0  0  0  0
 25 26  2  0  0  0  0
 26 27  1  0  0  0  0
 26 32  1  0  0  0  0
 27 28  2  0  0  0  0
 27 30  1  0  0  0  0
 28 29  1  0  0  0  0
 30 31  2  0  0  0  0
 31 32  1  0  0  0  0
 33 34  2  0  0  0  0
 33 38  1  0  0  0  0
 34 35  1  0  0  0  0
 35 36  2  0  0  0  0
 36 37  1  0  0  0  0
 36 42  1  0  0  0  0
 37 38  2  0  0  0  0
 37 40  1  0  0  0  0
 38 39  1  0  0  0  0
 40 41  2  0  0  0  0
 41 42  1  0  0  0  0
M  CHG  2   3  -1   4  -1
M  END
>  <CHROM.1>
63.20056498,-34.47473868,-17.47931184,-25.20887020,-3.12175452,2.98373078
0.46811904,-2.41591373

>  <Name>
ligand

>  <RI>
0

>  <Rbt.Current_Directory>
/home/itssahil/PROJECTS/Mol_Feturizer/New_Systems/rnas/4QLN

>  <Rbt.Executable>
rbdock ($Id: //depot/dev/client3/rdock/2013.1/src/exe/rbdock.cxx#4 $)

>  <Rbt.Library>
libRbt.so (2013.1, Build901 2013/11/27)

>  <Rbt.Parameter_File>
/export/apps/rDock/src/rDock_2013.1_src/data/scripts/dock_solv.prm

>  <Rbt.Receptor>
prm/blind_docking_100.prm

>  <SCORE>
-11.4514

>  <SCORE.INTER>
-13.6654

>  <SCORE.INTER.CONST>
1

>  <SCORE.INTER.POLAR>
0

>  <SCORE.INTER.ROT>
2

>  <SCORE.INTER.SOLV>
29.7542

>  <SCORE.INTER.VDW>
-23.9616

>  <SCORE.INTER.norm>
-0.325366

>  <SCORE.INTRA>
0.678664

>  <SCORE.INTRA.DIHEDRAL>
0.000924826

>  <SCORE.INTRA.DIHEDRAL.0>
2.39985

>  <SCORE.INTRA.POLAR>
0

>  <SCORE.INTRA.POLAR.0>
0

>  <SCORE.INTRA.REPUL>
0

>  <SCORE.INTRA.REPUL.0>
0

>  <SCORE.INTRA.SOLV>
-0.044699

>  <SCORE.INTRA.SOLV.lig_0>
-110.958

>  <SCORE.INTRA.VDW>
0.700551

>  <SCORE.INTRA.VDW.0>
-2.34644

>  <SCORE.INTRA.norm>
0.0161587

>  <SCORE.RESTR>
1.53527

>  <SCORE.RESTR.CAVITY>
1.53527

>  <SCORE.RESTR.norm>
0.0365539

>  <SCORE.SYSTEM>
0

>  <SCORE.SYSTEM.CONST>
0

>  <SCORE.SYSTEM.DIHEDRAL>
0

>  <SCORE.SYSTEM.SOLV>
0

>  <SCORE.SYSTEM.norm>
0

>  <SCORE.heavy>
42

>  <SCORE.norm>
-0.272653

>  <RMSD>
28.175

$$$$
ligand
 OpenBabel11021811513D
libRbt.so/2013.1/901 2013/11/27
 42 48  0  0  0  0  0  0  0  0999 V2000
  -17.3162  -21.8935   -3.5153 P   0  0  2  0  0  0  0  0  0  0  0  0
  -17.9907  -25.9893   -0.6372 P   0  0  1  0  0  0  0  0  0  0  0  0
  -18.0693  -20.6301   -3.1691 O   0  5  0  0  0  0  0  0  0  0  0  0
  -17.3007  -26.5801   -1.8436 O   0  5  0  0  0  0  0  0  0  0  0  0
  -16.6612  -22.0326   -4.8687 O   0  0  0  0  0  0  0  0  0  0  0  0
  -18.1408  -26.8086    0.6220 O   0  0  0  0  0  0  0  0  0  0  0  0
  -19.7046  -23.0118   -3.5578 C   0  0  0  0  0  0  0  0  0  0  0  0
  -15.8658  -24.6055    0.0861 C   0  0  0  0  0  0  0  0  0  0  0  0
  -18.3071  -23.1442   -3.3039 O   0  0  0  0  0  0  0  0  0  0  0  0
  -17.2496  -24.6113   -0.2570 O   0  0  0  0  0  0  0  0  0  0  0  0
  -20.4785  -23.9510   -2.6404 C   0  0  1  0  0  0  0  0  0  0  0  0
  -15.1443  -23.5338   -0.7212 C   0  0  1  0  0  0  0  0  0  0  0  0
  -21.7619  -24.2292   -3.2070 O   0  0  0  0  0  0  0  0  0  0  0  0
  -13.7533  -23.8517   -0.8104 O   0  0  0  0  0  0  0  0  0  0  0  0
  -19.7509  -25.2732   -2.4653 C   0  0  1  0  0  0  0  0  0  0  0  0
  -15.6925  -23.4464   -2.1367 C   0  0  1  0  0  0  0  0  0  0  0  0
  -19.4533  -25.4887   -1.0891 O   0  0  0  0  0  0  0  0  0  0  0  0
  -16.1961  -22.1373   -2.3854 O   0  0  0  0  0  0  0  0  0  0  0  0
  -20.6924  -26.3515   -2.9687 C   0  0  0  0  0  0  0  0  0  0  0  0
  -14.5312  -23.7420   -3.0661 C   0  0  0  0  0  0  0  0  0  0  0  0
  -21.9501  -25.6294   -3.4289 C   0  0  2  0  0  0  0  0  0  0  0  0
  -13.3285  -23.9945   -2.1681 C   0  0  2  0  0  0  0  0  0  0  0  0
  -20.1000  -25.0109   -8.3046 N   0  0  0  0  0  0  0  0  0  0  0  0
  -19.5860  -24.6165   -7.1250 C   0  0  0  0  0  0  0  0  0  0  0  0
  -20.1770  -24.8461   -5.9379 N   0  0  0  0  0  0  0  0  0  0  0  0
  -21.3569  -25.5075   -5.8650 C   0  0  0  0  0  0  0  0  0  0  0  0
  -21.9831  -25.9717   -7.1129 C   0  0  0  0  0  0  0  0  0  0  0  0
  -21.2719  -25.6805   -8.3803 C   0  0  0  0  0  0  0  0  0  0  0  0
  -21.7787  -26.0730   -9.5740 N   0  0  0  0  0  0  0  0  0  0  0  0
  -23.1272  -26.5884   -6.7620 N   0  0  0  0  0  0  0  0  0  0  0  0
  -23.2261  -26.5251   -5.4095 C   0  0  0  0  0  0  0  0  0  0  0  0
  -22.1709  -25.8811   -4.8746 N   0  0  0  0  0  0  0  0  0  0  0  0
  -14.5594  -29.0235   -3.0434 N   0  0  0  0  0  0  0  0  0  0  0  0
  -15.3561  -27.9513   -2.8786 C   0  0  0  0  0  0  0  0  0  0  0  0
  -14.8974  -26.7060   -2.6586 N   0  0  0  0  0  0  0  0  0  0  0  0
  -13.5670  -26.4583   -2.5896 C   0  0  0  0  0  0  0  0  0  0  0  0
  -12.6307  -27.5800   -2.7603 C   0  0  0  0  0  0  0  0  0  0  0  0
  -13.2135  -28.9214   -2.9993 C   0  0  0  0  0  0  0  0  0  0  0  0
  -12.4216  -30.0089   -3.1676 N   0  0  0  0  0  0  0  0  0  0  0  0
  -11.3913  -27.0657   -2.6489 N   0  0  0  0  0  0  0  0  0  0  0  0
  -11.5227  -25.7326   -2.4261 C   0  0  0  0  0  0  0  0  0  0  0  0
  -12.8184  -25.3708   -2.3906 N   0  0  0  0  0  0  0  0  0  0  0  0
  1  3  1  1  0  0  0
  1  5  2  0  0  0  0
  1  9  1  0  0  0  0
  1 18  1  0  0  0  0
  2  4  1  6  0  0  0
  2  6  2  0  0  0  0
  2 10  1  0  0  0  0
  2 17  1  0  0  0  0
  7  9  1  0  0  0  0
  8 10  1  0  0  0  0
 11  7  1  6  0  0  0
 11 13  1  0  0  0  0
 11 15  1  0  0  0  0
 12  8  1  1  0  0  0
 12 14  1  0  0  0  0
 12 16  1  0  0  0  0
 13 21  1  0  0  0  0
 14 22  1  0  0  0  0
 15 17  1  1  0  0  0
 15 19  1  0  0  0  0
 16 18  1  6  0  0  0
 16 20  1  0  0  0  0
 19 21  1  0  0  0  0
 20 22  1  0  0  0  0
 21 32  1  6  0  0  0
 22 42  1  1  0  0  0
 23 24  2  0  0  0  0
 23 28  1  0  0  0  0
 24 25  1  0  0  0  0
 25 26  2  0  0  0  0
 26 27  1  0  0  0  0
 26 32  1  0  0  0  0
 27 28  2  0  0  0  0
 27 30  1  0  0  0  0
 28 29  1  0  0  0  0
 30 31  2  0  0  0  0
 31 32  1  0  0  0  0
 33 34  2  0  0  0  0
 33 38  1  0  0  0  0
 34 35  1  0  0  0  0
 35 36  2  0  0  0  0
 36 37  1  0  0  0  0
 36 42  1  0  0  0  0
 37 38  2  0  0  0  0
 37 40  1  0  0  0  0
 38 39  1  0  0  0  0
 40 41  2  0  0  0  0
 41 42  1  0  0  0  0
M  CHG  2   3  -1   4  -1
M  END
>  <CHROM.1>
55.21427785,79.37742472,-17.55058124,-25.14907216,-3.28709629,2.98077579
0.44994017,-2.58486487

>  <Name>
ligand

>  <RI>
0

>  <Rbt.Current_Directory>
/home/itssahil/PROJECTS/Mol_Feturizer/New_Systems/rnas/4QLN

>  <Rbt.Executable>
rbdock ($Id: //depot/dev/client3/rdock/2013.1/src/exe/rbdock.cxx#4 $)

>  <Rbt.Library>
libRbt.so (2013.1, Build901 2013/11/27)

>  <Rbt.Parameter_File>
/export/apps/rDock/src/rDock_2013.1_src/data/scripts/dock_solv.prm

>  <Rbt.Receptor>
prm/blind_docking_60.prm

>  <SCORE>
-1.54305

>  <SCORE.INTER>
-11.9178

>  <SCORE.INTER.CONST>
1

>  <SCORE.INTER.POLAR>
0

>  <SCORE.INTER.ROT>
2

>  <SCORE.INTER.SOLV>
32.7522

>  <SCORE.INTER.VDW>
-23.796

>  <SCORE.INTER.norm>
-0.283758

>  <SCORE.INTRA>
0.985954

>  <SCORE.INTRA.DIHEDRAL>
0.000723312

>  <SCORE.INTRA.DIHEDRAL.0>
2.39985

>  <SCORE.INTRA.POLAR>
0

>  <SCORE.INTRA.POLAR.0>
0

>  <SCORE.INTRA.REPUL>
0

>  <SCORE.INTRA.REPUL.0>
0

>  <SCORE.INTRA.SOLV>
1.06337

>  <SCORE.INTRA.SOLV.lig_0>
-110.958

>  <SCORE.INTRA.VDW>
0.453907

>  <SCORE.INTRA.VDW.0>
-2.34644

>  <SCORE.INTRA.norm>
0.0234751

>  <SCORE.RESTR>
9.38882

>  <SCORE.RESTR.CAVITY>
9.38882

>  <SCORE.RESTR.norm>
0.223543

>  <SCORE.SYSTEM>
0

>  <SCORE.SYSTEM.CONST>
0

>  <SCORE.SYSTEM.DIHEDRAL>
0

>  <SCORE.SYSTEM.SOLV>
0

>  <SCORE.SYSTEM.norm>
0

>  <SCORE.heavy>
42

>  <SCORE.norm>
-0.0367392

>  <RMSD>
28.181

$$$$
ligand
 OpenBabel11021811513D
libRbt.so/2013.1/901 2013/11/27
 42 48  0  0  0  0  0  0  0  0999 V2000
  -17.5382  -21.9755   -3.3853 P   0  0  2  0  0  0  0  0  0  0  0  0
  -18.4224  -26.2771   -0.8895 P   0  0  1  0  0  0  0  0  0  0  0  0
  -18.2420  -20.7165   -2.9351 O   0  5  0  0  0  0  0  0  0  0  0  0
  -17.7420  -26.7880   -2.1370 O   0  5  0  0  0  0  0  0  0  0  0  0
  -16.8718  -22.0224   -4.7394 O   0  0  0  0  0  0  0  0  0  0  0  0
  -18.6234  -27.1974    0.2904 O   0  0  0  0  0  0  0  0  0  0  0  0
  -19.9708  -22.9818   -3.5496 C   0  0  0  0  0  0  0  0  0  0  0  0
  -16.2509  -25.0555   -0.0259 C   0  0  0  0  0  0  0  0  0  0  0  0
  -18.5836  -23.1962   -3.2953 O   0  0  0  0  0  0  0  0  0  0  0  0
  -17.6290  -24.9714   -0.3812 O   0  0  0  0  0  0  0  0  0  0  0  0
  -20.7956  -23.9643   -2.7268 C   0  0  1  0  0  0  0  0  0  0  0  0
  -15.4743  -23.9487   -0.7279 C   0  0  1  0  0  0  0  0  0  0  0  0
  -22.0819  -24.1357   -3.3279 O   0  0  0  0  0  0  0  0  0  0  0  0
  -14.0969  -24.3171   -0.8319 O   0  0  0  0  0  0  0  0  0  0  0  0
  -20.1266  -25.3269   -2.6631 C   0  0  1  0  0  0  0  0  0  0  0  0
  -15.9996  -23.7129   -2.1350 C   0  0  1  0  0  0  0  0  0  0  0  0
  -19.8565  -25.6760   -1.3088 O   0  0  0  0  0  0  0  0  0  0  0  0
  -16.4444  -22.3664   -2.2710 O   0  0  0  0  0  0  0  0  0  0  0  0
  -21.1059  -26.3148   -3.2693 C   0  0  0  0  0  0  0  0  0  0  0  0
  -14.8396  -23.9748   -3.0761 C   0  0  0  0  0  0  0  0  0  0  0  0
  -22.3259  -25.5014   -3.6752 C   0  0  2  0  0  0  0  0  0  0  0  0
  -13.6605  -24.3573   -2.1928 C   0  0  2  0  0  0  0  0  0  0  0  0
  -20.1907  -25.0258   -8.4494 N   0  0  0  0  0  0  0  0  0  0  0  0
  -19.6509  -24.8232   -7.2334 C   0  0  0  0  0  0  0  0  0  0  0  0
  -20.3250  -24.9849   -6.0799 N   0  0  0  0  0  0  0  0  0  0  0  0
  -21.6228  -25.3730   -6.0816 C   0  0  0  0  0  0  0  0  0  0  0  0
  -22.2846  -25.6150   -7.3733 C   0  0  0  0  0  0  0  0  0  0  0  0
  -21.4766  -25.4151   -8.5997 C   0  0  0  0  0  0  0  0  0  0  0  0
  -22.0084  -25.6167   -9.8294 N   0  0  0  0  0  0  0  0  0  0  0  0
  -23.5489  -25.9834   -7.0938 N   0  0  0  0  0  0  0  0  0  0  0  0
  -23.6860  -25.9780   -5.7431 C   0  0  0  0  0  0  0  0  0  0  0  0
  -22.5380  -25.6144   -5.1396 N   0  0  0  0  0  0  0  0  0  0  0  0
  -11.0348  -28.6129   -0.5904 N   0  0  0  0  0  0  0  0  0  0  0  0
  -11.2647  -27.4466    0.0408 C   0  0  0  0  0  0  0  0  0  0  0  0
  -11.9628  -26.4304   -0.4974 N   0  0  0  0  0  0  0  0  0  0  0  0
  -12.4877  -26.5314   -1.7425 C   0  0  0  0  0  0  0  0  0  0  0  0
  -12.2794  -27.7769   -2.4971 C   0  0  0  0  0  0  0  0  0  0  0  0
  -11.5000  -28.8499   -1.8358 C   0  0  0  0  0  0  0  0  0  0  0  0
  -11.2623  -30.0293   -2.4608 N   0  0  0  0  0  0  0  0  0  0  0  0
  -12.8955  -27.6145   -3.6832 N   0  0  0  0  0  0  0  0  0  0  0  0
  -13.4489  -26.3745   -3.6878 C   0  0  0  0  0  0  0  0  0  0  0  0
  -13.2059  -25.7293   -2.5321 N   0  0  0  0  0  0  0  0  0  0  0  0
  1  3  1  1  0  0  0
  1  5  2  0  0  0  0
  1  9  1  0  0  0  0
  1 18  1  0  0  0  0
  2  4  1  6  0  0  0
  2  6  2  0  0  0  0
  2 10  1  0  0  0  0
  2 17  1  0  0  0  0
  7  9  1  0  0  0  0
  8 10  1  0  0  0  0
 11  7  1  6  0  0  0
 11 13  1  0  0  0  0
 11 15  1  0  0  0  0
 12  8  1  6  0  0  0
 12 14  1  0  0  0  0
 12 16  1  0  0  0  0
 13 21  1  0  0  0  0
 14 22  1  0  0  0  0
 15 17  1  1  0  0  0
 15 19  1  0  0  0  0
 16 18  1  1  0  0  0
 16 20  1  0  0  0  0
 19 21  1  0  0  0  0
 20 22  1  0  0  0  0
 21 32  1  6  0  0  0
 22 42  1  6  0  0  0
 23 24  2  0  0  0  0
 23 28  1  0  0  0  0
 24 25  1  0  0  0  0
 25 26  2  0  0  0  0
 26 27  1  0  0  0  0
 26 32  1  0  0  0  0
 27 28  2  0  0  0  0
 27 30  1  0  0  0  0
 28 29  1  0  0  0  0
 30 31  2  0  0  0  0
 31 32  1  0  0  0  0
 33 34  2  0  0  0  0
 33 38  1  0  0  0  0
 34 35  1  0  0  0  0
 35 36  2  0  0  0  0
 36 37  1  0  0  0  0
 36 42  1  0  0  0  0
 37 38  2  0  0  0  0
 37 40  1  0  0  0  0
 38 39  1  0  0  0  0
 40 41  2  0  0  0  0
 41 42  1  0  0  0  0
M  CHG  2   3  -1   4  -1
M  END
>  <CHROM.1>
65.64817626,-40.71498803,-17.56305495,-25.21503719,-3.20799218,2.92915145
0.45649475,-2.30378885

>  <Name>
ligand

>  <RI>
0

>  <Rbt.Current_Directory>
/home/itssahil/PROJECTS/Mol_Feturizer/New_Systems/rnas/4QLN

>  <Rbt.Executable>
rbdock ($Id: //depot/dev/client3/rdock/2013.1/src/exe/rbdock.cxx#4 $)

>  <Rbt.Library>
libRbt.so (2013.1, Build901 2013/11/27)

>  <Rbt.Parameter_File>
/export/apps/rDock/src/rDock_2013.1_src/data/scripts/dock_solv.prm

>  <Rbt.Receptor>
prm/blind_docking_100.prm

>  <SCORE>
-10.3699

>  <SCORE.INTER>
-12.5931

>  <SCORE.INTER.CONST>
1

>  <SCORE.INTER.POLAR>
0

>  <SCORE.INTER.ROT>
2

>  <SCORE.INTER.SOLV>
30.7642

>  <SCORE.INTER.VDW>
-23.5835

>  <SCORE.INTER.norm>
-0.299836

>  <SCORE.INTRA>
0.87387

>  <SCORE.INTRA.DIHEDRAL>
0.000862502

>  <SCORE.INTRA.DIHEDRAL.0>
2.39985

>  <SCORE.INTRA.POLAR>
0

>  <SCORE.INTRA.POLAR.0>
0

>  <SCORE.INTRA.REPUL>
0

>  <SCORE.INTRA.REPUL.0>
0

>  <SCORE.INTRA.SOLV>
-0.0515827

>  <SCORE.INTRA.SOLV.lig_0>
-110.958

>  <SCORE.INTRA.VDW>
0.89923

>  <SCORE.INTRA.VDW.0>
-2.34644

>  <SCORE.INTRA.norm>
0.0208064

>  <SCORE.RESTR>
1.34937

>  <SCORE.RESTR.CAVITY>
1.34937

>  <SCORE.RESTR.norm>
0.0321278

>  <SCORE.SYSTEM>
0

>  <SCORE.SYSTEM.CONST>
0

>  <SCORE.SYSTEM.DIHEDRAL>
0

>  <SCORE.SYSTEM.SOLV>
0

>  <SCORE.SYSTEM.norm>
0

>  <SCORE.heavy>
42

>  <SCORE.norm>
-0.246902

>  <RMSD>
28.189

$$$$
ligand
 OpenBabel11021811513D
libRbt.so/2013.1/901 2013/11/27
 42 48  0  0  0  0  0  0  0  0999 V2000
  -17.4041  -21.9992   -3.4206 P   0  0  2  0  0  0  0  0  0  0  0  0
  -18.3404  -26.1871   -0.7563 P   0  0  1  0  0  0  0  0  0  0  0  0
  -18.1009  -20.7173   -3.0280 O   0  5  0  0  0  0  0  0  0  0  0  0
  -17.6553  -26.7543   -1.9766 O   0  5  0  0  0  0  0  0  0  0  0  0
  -16.7285  -22.1071   -4.7667 O   0  0  0  0  0  0  0  0  0  0  0  0
  -18.5572  -27.0563    0.4590 O   0  0  0  0  0  0  0  0  0  0  0  0
  -19.8434  -22.9926   -3.5614 C   0  0  0  0  0  0  0  0  0  0  0  0
  -16.1654  -24.9477    0.0724 C   0  0  0  0  0  0  0  0  0  0  0  0
  -18.4598  -23.2070   -3.2882 O   0  0  0  0  0  0  0  0  0  0  0  0
  -17.5403  -24.8677   -0.2964 O   0  0  0  0  0  0  0  0  0  0  0  0
  -20.6819  -23.9339   -2.7049 C   0  0  1  0  0  0  0  0  0  0  0  0
  -15.3750  -23.8768   -0.6689 C   0  0  1  0  0  0  0  0  0  0  0  0
  -21.9652  -24.1200   -3.3081 O   0  0  0  0  0  0  0  0  0  0  0  0
  -13.9999  -24.2598   -0.7474 O   0  0  0  0  0  0  0  0  0  0  0  0
  -20.0243  -25.2979   -2.5802 C   0  0  1  0  0  0  0  0  0  0  0  0
  -15.8884  -23.6952   -2.0884 C   0  0  1  0  0  0  0  0  0  0  0  0
  -19.7667  -25.5928   -1.2107 O   0  0  0  0  0  0  0  0  0  0  0  0
  -16.3214  -22.3522   -2.2831 O   0  0  0  0  0  0  0  0  0  0  0  0
  -21.0072  -26.3024   -3.1524 C   0  0  0  0  0  0  0  0  0  0  0  0
  -14.7239  -24.0048   -3.0092 C   0  0  0  0  0  0  0  0  0  0  0  0
  -22.2177  -25.4970   -3.6006 C   0  0  2  0  0  0  0  0  0  0  0  0
  -13.5542  -24.3595   -2.1022 C   0  0  2  0  0  0  0  0  0  0  0  0
  -20.0694  -25.1550   -8.3804 N   0  0  0  0  0  0  0  0  0  0  0  0
  -19.5398  -24.8962   -7.1705 C   0  0  0  0  0  0  0  0  0  0  0  0
  -20.2161  -25.0288   -6.0146 N   0  0  0  0  0  0  0  0  0  0  0  0
  -21.5057  -25.4435   -6.0072 C   0  0  0  0  0  0  0  0  0  0  0  0
  -22.1559  -25.7471   -7.2916 C   0  0  0  0  0  0  0  0  0  0  0  0
  -21.3462  -25.5762   -8.5213 C   0  0  0  0  0  0  0  0  0  0  0  0
  -21.8678  -25.8343   -9.7449 N   0  0  0  0  0  0  0  0  0  0  0  0
  -23.4137  -26.1310   -7.0039 N   0  0  0  0  0  0  0  0  0  0  0  0
  -23.5575  -26.0782   -5.6549 C   0  0  0  0  0  0  0  0  0  0  0  0
  -22.4202  -25.6687   -5.0606 N   0  0  0  0  0  0  0  0  0  0  0  0
  -11.5164  -28.7762   -0.1242 N   0  0  0  0  0  0  0  0  0  0  0  0
  -11.8115  -27.6103    0.4800 C   0  0  0  0  0  0  0  0  0  0  0  0
  -12.3363  -26.5492   -0.1588 N   0  0  0  0  0  0  0  0  0  0  0  0
  -12.6039  -26.6006   -1.4861 C   0  0  0  0  0  0  0  0  0  0  0  0
  -12.3090  -27.8423   -2.2178 C   0  0  0  0  0  0  0  0  0  0  0  0
  -11.7321  -28.9667   -1.4436 C   0  0  0  0  0  0  0  0  0  0  0  0
  -11.4314  -30.1462   -2.0406 N   0  0  0  0  0  0  0  0  0  0  0  0
  -12.6647  -27.6269   -3.4984 N   0  0  0  0  0  0  0  0  0  0  0  0
  -13.1445  -26.3591   -3.5795 C   0  0  0  0  0  0  0  0  0  0  0  0
  -13.1082  -25.7478   -2.3812 N   0  0  0  0  0  0  0  0  0  0  0  0
  1  3  1  1  0  0  0
  1  5  2  0  0  0  0
  1  9  1  0  0  0  0
  1 18  1  0  0  0  0
  2  4  1  6  0  0  0
  2  6  2  0  0  0  0
  2 10  1  0  0  0  0
  2 17  1  0  0  0  0
  7  9  1  0  0  0  0
  8 10  1  0  0  0  0
 11  7  1  6  0  0  0
 11 13  1  0  0  0  0
 11 15  1  0  0  0  0
 12  8  1  6  0  0  0
 12 14  1  0  0  0  0
 12 16  1  0  0  0  0
 13 21  1  0  0  0  0
 14 22  1  0  0  0  0
 15 17  1  1  0  0  0
 15 19  1  0  0  0  0
 16 18  1  1  0  0  0
 16 20  1  0  0  0  0
 19 21  1  0  0  0  0
 20 22  1  0  0  0  0
 21 32  1  6  0  0  0
 22 42  1  6  0  0  0
 23 24  2  0  0  0  0
 23 28  1  0  0  0  0
 24 25  1  0  0  0  0
 25 26  2  0  0  0  0
 26 27  1  0  0  0  0
 26 32  1  0  0  0  0
 27 28  2  0  0  0  0
 27 30  1  0  0  0  0
 28 29  1  0  0  0  0
 30 31  2  0  0  0  0
 31 32  1  0  0  0  0
 33 34  2  0  0  0  0
 33 38  1  0  0  0  0
 34 35  1  0  0  0  0
 35 36  2  0  0  0  0
 36 37  1  0  0  0  0
 36 42  1  0  0  0  0
 37 38  2  0  0  0  0
 37 40  1  0  0  0  0
 38 39  1  0  0  0  0
 40 41  2  0  0  0  0
 41 42  1  0  0  0  0
M  CHG  2   3  -1   4  -1
M  END
>  <CHROM.1>
63.98999532,-28.69081264,-17.50270956,-25.23903762,-3.09568824,2.96217899
0.50295363,-2.42421253

>  <Name>
ligand

>  <RI>
0

>  <Rbt.Current_Directory>
/home/itssahil/PROJECTS/Mol_Feturizer/New_Systems/rnas/4QLN

>  <Rbt.Executable>
rbdock ($Id: //depot/dev/client3/rdock/2013.1/src/exe/rbdock.cxx#4 $)

>  <Rbt.Library>
libRbt.so (2013.1, Build901 2013/11/27)

>  <Rbt.Parameter_File>
/export/apps/rDock/src/rDock_2013.1_src/data/scripts/dock_solv.prm

>  <Rbt.Receptor>
prm/blind_docking_100.prm

>  <SCORE>
-10.1903

>  <SCORE.INTER>
-11.9536

>  <SCORE.INTER.CONST>
1

>  <SCORE.INTER.POLAR>
0

>  <SCORE.INTER.ROT>
2

>  <SCORE.INTER.SOLV>
29.1843

>  <SCORE.INTER.VDW>
-22.6305

>  <SCORE.INTER.norm>
-0.28461

>  <SCORE.INTRA>
0.543484

>  <SCORE.INTRA.DIHEDRAL>
0.000954383

>  <SCORE.INTRA.DIHEDRAL.0>
2.39985

>  <SCORE.INTRA.POLAR>
0

>  <SCORE.INTRA.POLAR.0>
0

>  <SCORE.INTRA.REPUL>
0

>  <SCORE.INTRA.REPUL.0>
0

>  <SCORE.INTRA.SOLV>
-0.0391467

>  <SCORE.INTRA.SOLV.lig_0>
-110.958

>  <SCORE.INTRA.VDW>
0.56258

>  <SCORE.INTRA.VDW.0>
-2.34644

>  <SCORE.INTRA.norm>
0.0129401

>  <SCORE.RESTR>
1.2198

>  <SCORE.RESTR.CAVITY>
1.2198

>  <SCORE.RESTR.norm>
0.0290428

>  <SCORE.SYSTEM>
0

>  <SCORE.SYSTEM.CONST>
0

>  <SCORE.SYSTEM.DIHEDRAL>
0

>  <SCORE.SYSTEM.SOLV>
0

>  <SCORE.SYSTEM.norm>
0

>  <SCORE.heavy>
42

>  <SCORE.norm>
-0.242627

>  <RMSD>
28.193

$$$$
ligand
 OpenBabel11021811513D
libRbt.so/2013.1/901 2013/11/27
 42 48  0  0  0  0  0  0  0  0999 V2000
  -17.4257  -22.0279   -3.4253 P   0  0  2  0  0  0  0  0  0  0  0  0
  -18.3492  -26.2099   -0.7471 P   0  0  1  0  0  0  0  0  0  0  0  0
  -18.1265  -20.7469   -3.0369 O   0  5  0  0  0  0  0  0  0  0  0  0
  -17.6623  -26.7790   -1.9656 O   0  5  0  0  0  0  0  0  0  0  0  0
  -16.7497  -22.1382   -4.7710 O   0  0  0  0  0  0  0  0  0  0  0  0
  -18.5633  -27.0758    0.4710 O   0  0  0  0  0  0  0  0  0  0  0  0
  -19.8620  -23.0293   -3.5628 C   0  0  0  0  0  0  0  0  0  0  0  0
  -16.1780  -24.9611    0.0775 C   0  0  0  0  0  0  0  0  0  0  0  0
  -18.4777  -23.2386   -3.2888 O   0  0  0  0  0  0  0  0  0  0  0  0
  -17.5531  -24.8866   -0.2916 O   0  0  0  0  0  0  0  0  0  0  0  0
  -20.6975  -23.9704   -2.7032 C   0  0  1  0  0  0  0  0  0  0  0  0
  -15.3909  -23.8902   -0.6673 C   0  0  1  0  0  0  0  0  0  0  0  0
  -21.9803  -24.1625   -3.3058 O   0  0  0  0  0  0  0  0  0  0  0  0
  -14.0146  -24.2693   -0.7445 O   0  0  0  0  0  0  0  0  0  0  0  0
  -20.0357  -25.3319   -2.5740 C   0  0  1  0  0  0  0  0  0  0  0  0
  -15.9048  -23.7149   -2.0874 C   0  0  1  0  0  0  0  0  0  0  0  0
  -19.7773  -25.6215   -1.2035 O   0  0  0  0  0  0  0  0  0  0  0  0
  -16.3420  -22.3739   -2.2865 O   0  0  0  0  0  0  0  0  0  0  0  0
  -21.0155  -26.3413   -3.1429 C   0  0  0  0  0  0  0  0  0  0  0  0
  -14.7394  -24.0239   -3.0072 C   0  0  0  0  0  0  0  0  0  0  0  0
  -22.2285  -25.5412   -3.5937 C   0  0  2  0  0  0  0  0  0  0  0  0
  -13.5686  -24.3721   -2.0990 C   0  0  2  0  0  0  0  0  0  0  0  0
  -20.1067  -25.1333   -8.3802 N   0  0  0  0  0  0  0  0  0  0  0  0
  -19.5813  -24.8592   -7.1719 C   0  0  0  0  0  0  0  0  0  0  0  0
  -20.2496  -25.0125   -6.0139 N   0  0  0  0  0  0  0  0  0  0  0  0
  -21.5261  -25.4656   -6.0026 C   0  0  0  0  0  0  0  0  0  0  0  0
  -22.1711  -25.7880   -7.2851 C   0  0  0  0  0  0  0  0  0  0  0  0
  -21.3708  -25.5925   -8.5173 C   0  0  0  0  0  0  0  0  0  0  0  0
  -21.8883  -25.8656   -9.7393 N   0  0  0  0  0  0  0  0  0  0  0  0
  -23.4159  -26.2094   -6.9935 N   0  0  0  0  0  0  0  0  0  0  0  0
  -23.5569  -26.1615   -5.6441 C   0  0  0  0  0  0  0  0  0  0  0  0
  -22.4305  -25.7184   -5.0532 N   0  0  0  0  0  0  0  0  0  0  0  0
  -11.5215  -28.7775   -0.1055 N   0  0  0  0  0  0  0  0  0  0  0  0
  -11.8207  -27.6107    0.4950 C   0  0  0  0  0  0  0  0  0  0  0  0
  -12.3475  -26.5529   -0.1476 N   0  0  0  0  0  0  0  0  0  0  0  0
  -12.6130  -26.6087   -1.4752 C   0  0  0  0  0  0  0  0  0  0  0  0
  -12.3135  -27.8516   -2.2029 C   0  0  0  0  0  0  0  0  0  0  0  0
  -11.7347  -28.9722   -1.4247 C   0  0  0  0  0  0  0  0  0  0  0  0
  -11.4298  -30.1525   -2.0179 N   0  0  0  0  0  0  0  0  0  0  0  0
  -12.6679  -27.6408   -3.4846 N   0  0  0  0  0  0  0  0  0  0  0  0
  -13.1511  -26.3746   -3.5700 C   0  0  0  0  0  0  0  0  0  0  0  0
  -13.1183  -25.7599   -2.3734 N   0  0  0  0  0  0  0  0  0  0  0  0
  1  3  1  1  0  0  0
  1  5  2  0  0  0  0
  1  9  1  0  0  0  0
  1 18  1  0  0  0  0
  2  4  1  6  0  0  0
  2  6  2  0  0  0  0
  2 10  1  0  0  0  0
  2 17  1  0  0  0  0
  7  9  1  0  0  0  0
  8 10  1  0  0  0  0
 11  7  1  6  0  0  0
 11 13  1  0  0  0  0
 11 15  1  0  0  0  0
 12  8  1  6  0  0  0
 12 14  1  0  0  0  0
 12 16  1  0  0  0  0
 13 21  1  0  0  0  0
 14 22  1  0  0  0  0
 15 17  1  1  0  0  0
 15 19  1  0  0  0  0
 16 18  1  1  0  0  0
 16 20  1  0  0  0  0
 19 21  1  0  0  0  0
 20 22  1  0  0  0  0
 21 32  1  6  0  0  0
 22 42  1  6  0  0  0
 23 24  2  0  0  0  0
 23 28  1  0  0  0  0
 24 25  1  0  0  0  0
 25 26  2  0  0  0  0
 26 27  1  0  0  0  0
 26 32  1  0  0  0  0
 27 28  2  0  0  0  0
 27 30  1  0  0  0  0
 28 29  1  0  0  0  0
 30 31  2  0  0  0  0
 31 32  1  0  0  0  0
 33 34  2  0  0  0  0
 33 38  1  0  0  0  0
 34 35  1  0  0  0  0
 35 36  2  0  0  0  0
 36 37  1  0  0  0  0
 36 42  1  0  0  0  0
 37 38  2  0  0  0  0
 37 40  1  0  0  0  0
 38 39  1  0  0  0  0
 40 41  2  0  0  0  0
 41 42  1  0  0  0  0
M  CHG  2   3  -1   4  -1
M  END
>  <CHROM.1>
62.42685760,-28.59848004,-17.51679723,-25.26099074,-3.09001664,2.96376196
0.50352377,-2.43256278

>  <Name>
ligand

>  <RI>
0

>  <Rbt.Current_Directory>
/home/itssahil/PROJECTS/Mol_Feturizer/New_Systems/rnas/4QLN

>  <Rbt.Executable>
rbdock ($Id: //depot/dev/client3/rdock/2013.1/src/exe/rbdock.cxx#4 $)

>  <Rbt.Library>
libRbt.so (2013.1, Build901 2013/11/27)

>  <Rbt.Parameter_File>
/export/apps/rDock/src/rDock_2013.1_src/data/scripts/dock_solv.prm

>  <Rbt.Receptor>
prm/blind_docking_100.prm

>  <SCORE>
-10.3607

>  <SCORE.INTER>
-12.137

>  <SCORE.INTER.CONST>
1

>  <SCORE.INTER.POLAR>
0

>  <SCORE.INTER.ROT>
2

>  <SCORE.INTER.SOLV>
28.8779

>  <SCORE.INTER.VDW>
-22.6507

>  <SCORE.INTER.norm>
-0.288977

>  <SCORE.INTRA>
0.5163

>  <SCORE.INTRA.DIHEDRAL>
0.000933021

>  <SCORE.INTRA.DIHEDRAL.0>
2.39985

>  <SCORE.INTRA.POLAR>
0

>  <SCORE.INTRA.POLAR.0>
0

>  <SCORE.INTRA.REPUL>
0

>  <SCORE.INTRA.REPUL.0>
0

>  <SCORE.INTRA.SOLV>
-0.0375845

>  <SCORE.INTRA.SOLV.lig_0>
-110.958

>  <SCORE.INTRA.VDW>
0.534626

>  <SCORE.INTRA.VDW.0>
-2.34644

>  <SCORE.INTRA.norm>
0.0122929

>  <SCORE.RESTR>
1.26002

>  <SCORE.RESTR.CAVITY>
1.26002

>  <SCORE.RESTR.norm>
0.0300005

>  <SCORE.SYSTEM>
0

>  <SCORE.SYSTEM.CONST>
0

>  <SCORE.SYSTEM.DIHEDRAL>
0

>  <SCORE.SYSTEM.SOLV>
0

>  <SCORE.SYSTEM.norm>
0

>  <SCORE.heavy>
42

>  <SCORE.norm>
-0.246684

>  <RMSD>
28.199

$$$$
ligand
 OpenBabel11021811513D
libRbt.so/2013.1/901 2013/11/27
 42 48  0  0  0  0  0  0  0  0999 V2000
  -17.4846  -22.0025   -3.4022 P   0  0  2  0  0  0  0  0  0  0  0  0
  -18.3163  -26.2175   -0.7458 P   0  0  1  0  0  0  0  0  0  0  0  0
  -18.1724  -20.7269   -2.9749 O   0  5  0  0  0  0  0  0  0  0  0  0
  -17.6704  -26.7712   -1.9934 O   0  5  0  0  0  0  0  0  0  0  0  0
  -16.8541  -22.0959   -4.7710 O   0  0  0  0  0  0  0  0  0  0  0  0
  -18.4892  -27.0983    0.4682 O   0  0  0  0  0  0  0  0  0  0  0  0
  -19.9237  -23.0040   -3.4702 C   0  0  0  0  0  0  0  0  0  0  0  0
  -16.1191  -24.9772    0.0207 C   0  0  0  0  0  0  0  0  0  0  0  0
  -18.5310  -23.2155   -3.2453 O   0  0  0  0  0  0  0  0  0  0  0  0
  -17.5059  -24.8992   -0.3011 O   0  0  0  0  0  0  0  0  0  0  0  0
  -20.7297  -23.9561   -2.5946 C   0  0  1  0  0  0  0  0  0  0  0  0
  -15.3578  -23.8967   -0.7369 C   0  0  1  0  0  0  0  0  0  0  0  0
  -22.0319  -24.1418   -3.1561 O   0  0  0  0  0  0  0  0  0  0  0  0
  -13.9847  -24.2737   -0.8648 O   0  0  0  0  0  0  0  0  0  0  0  0
  -20.0634  -25.3186   -2.5042 C   0  0  1  0  0  0  0  0  0  0  0  0
  -15.9191  -23.7045   -2.1368 C   0  0  1  0  0  0  0  0  0  0  0  0
  -19.7591  -25.6247   -1.1468 O   0  0  0  0  0  0  0  0  0  0  0  0
  -16.3632  -22.3615   -2.3047 O   0  0  0  0  0  0  0  0  0  0  0  0
  -21.0614  -26.3218   -3.0522 C   0  0  0  0  0  0  0  0  0  0  0  0
  -14.7850  -24.0014   -3.0987 C   0  0  0  0  0  0  0  0  0  0  0  0
  -22.2891  -25.5171   -3.4523 C   0  0  2  0  0  0  0  0  0  0  0  0
  -13.5843  -24.3597   -2.2346 C   0  0  2  0  0  0  0  0  0  0  0  0
  -20.2722  -25.2258   -8.2924 N   0  0  0  0  0  0  0  0  0  0  0  0
  -19.6993  -24.9887   -7.0979 C   0  0  0  0  0  0  0  0  0  0  0  0
  -20.3453  -25.1040   -5.9229 N   0  0  0  0  0  0  0  0  0  0  0  0
  -21.6467  -25.4773   -5.8787 C   0  0  0  0  0  0  0  0  0  0  0  0
  -22.3438  -25.7549   -7.1443 C   0  0  0  0  0  0  0  0  0  0  0  0
  -21.5655  -25.6053   -8.3969 C   0  0  0  0  0  0  0  0  0  0  0  0
  -22.1308  -25.8419   -9.6052 N   0  0  0  0  0  0  0  0  0  0  0  0
  -23.6043  -26.0994   -6.8207 N   0  0  0  0  0  0  0  0  0  0  0  0
  -23.7067  -26.0472   -5.4680 C   0  0  0  0  0  0  0  0  0  0  0  0
  -22.5398  -25.6767   -4.9063 N   0  0  0  0  0  0  0  0  0  0  0  0
  -11.1153  -28.6489   -0.4800 N   0  0  0  0  0  0  0  0  0  0  0  0
  -11.3488  -27.4718    0.1296 C   0  0  0  0  0  0  0  0  0  0  0  0
  -12.0027  -26.4478   -0.4479 N   0  0  0  0  0  0  0  0  0  0  0  0
  -12.4755  -26.5515   -1.7134 C   0  0  0  0  0  0  0  0  0  0  0  0
  -12.2599  -27.8085   -2.4465 C   0  0  0  0  0  0  0  0  0  0  0  0
  -11.5311  -28.8897   -1.7420 C   0  0  0  0  0  0  0  0  0  0  0  0
  -11.2904  -30.0799   -2.3449 N   0  0  0  0  0  0  0  0  0  0  0  0
  -12.8210  -27.6464   -3.6596 N   0  0  0  0  0  0  0  0  0  0  0  0
  -13.3488  -26.3959   -3.6998 C   0  0  0  0  0  0  0  0  0  0  0  0
  -13.1430  -25.7437   -2.5409 N   0  0  0  0  0  0  0  0  0  0  0  0
  1  3  1  1  0  0  0
  1  5  2  0  0  0  0
  1  9  1  0  0  0  0
  1 18  1  0  0  0  0
  2  4  1  6  0  0  0
  2  6  2  0  0  0  0
  2 10  1  0  0  0  0
  2 17  1  0  0  0  0
  7  9  1  0  0  0  0
  8 10  1  0  0  0  0
 11  7  1  6  0  0  0
 11 13  1  0  0  0  0
 11 15  1  0  0  0  0
 12  8  1  6  0  0  0
 12 14  1  0  0  0  0
 12 16  1  0  0  0  0
 13 21  1  0  0  0  0
 14 22  1  0  0  0  0
 15 17  1  1  0  0  0
 15 19  1  0  0  0  0
 16 18  1  1  0  0  0
 16 20  1  0  0  0  0
 19 21  1  0  0  0  0
 20 22  1  0  0  0  0
 21 32  1  6  0  0  0
 22 42  1  6  0  0  0
 23 24  2  0  0  0  0
 23 28  1  0  0  0  0
 24 25  1  0  0  0  0
 25 26  2  0  0  0  0
 26 27  1  0  0  0  0
 26 32  1  0  0  0  0
 27 28  2  0  0  0  0
 27 30  1  0  0  0  0
 28 29  1  0  0  0  0
 30 31  2  0  0  0  0
 31 32  1  0  0  0  0
 33 34  2  0  0  0  0
 33 38  1  0  0  0  0
 34 35  1  0  0  0  0
 35 36  2  0  0  0  0
 36 37  1  0  0  0  0
 36 42  1  0  0  0  0
 37 38  2  0  0  0  0
 37 40  1  0  0  0  0
 38 39  1  0  0  0  0
 40 41  2  0  0  0  0
 41 42  1  0  0  0  0
M  CHG  2   3  -1   4  -1
M  END
>  <CHROM.1>
66.07776750,-36.43873458,-17.52943617,-25.24258735,-3.11217865,2.96114323
0.45244188,-2.37136458

>  <Name>
ligand

>  <RI>
0

>  <Rbt.Current_Directory>
/home/itssahil/PROJECTS/Mol_Feturizer/New_Systems/rnas/4QLN

>  <Rbt.Executable>
rbdock ($Id: //depot/dev/client3/rdock/2013.1/src/exe/rbdock.cxx#4 $)

>  <Rbt.Library>
libRbt.so (2013.1, Build901 2013/11/27)

>  <Rbt.Parameter_File>
/export/apps/rDock/src/rDock_2013.1_src/data/scripts/dock_solv.prm

>  <Rbt.Receptor>
prm/blind_docking_100.prm

>  <SCORE>
-11.4741

>  <SCORE.INTER>
-13.7747

>  <SCORE.INTER.CONST>
1

>  <SCORE.INTER.POLAR>
0

>  <SCORE.INTER.ROT>
2

>  <SCORE.INTER.SOLV>
30.0718

>  <SCORE.INTER.VDW>
-24.1404

>  <SCORE.INTER.norm>
-0.327968

>  <SCORE.INTRA>
0.772345

>  <SCORE.INTRA.DIHEDRAL>
0.000941201

>  <SCORE.INTRA.DIHEDRAL.0>
2.39985

>  <SCORE.INTRA.POLAR>
0

>  <SCORE.INTRA.POLAR.0>
0

>  <SCORE.INTRA.REPUL>
0

>  <SCORE.INTRA.REPUL.0>
0

>  <SCORE.INTRA.SOLV>
-0.0488958

>  <SCORE.INTRA.SOLV.lig_0>
-110.958

>  <SCORE.INTRA.VDW>
0.796322

>  <SCORE.INTRA.VDW.0>
-2.34644

>  <SCORE.INTRA.norm>
0.0183892

>  <SCORE.RESTR>
1.52826

>  <SCORE.RESTR.CAVITY>
1.52826

>  <SCORE.RESTR.norm>
0.0363871

>  <SCORE.SYSTEM>
0

>  <SCORE.SYSTEM.CONST>
0

>  <SCORE.SYSTEM.DIHEDRAL>
0

>  <SCORE.SYSTEM.SOLV>
0

>  <SCORE.SYSTEM.norm>
0

>  <SCORE.heavy>
42

>  <SCORE.norm>
-0.273192

>  <RMSD>
28.201

$$$$
ligand
 OpenBabel11021811513D
libRbt.so/2013.1/901 2013/11/27
 42 48  0  0  0  0  0  0  0  0999 V2000
  -17.4152  -21.9932   -3.4312 P   0  0  2  0  0  0  0  0  0  0  0  0
  -18.3643  -26.1755   -0.7625 P   0  0  1  0  0  0  0  0  0  0  0  0
  -18.1116  -20.7098   -3.0427 O   0  5  0  0  0  0  0  0  0  0  0  0
  -17.6763  -26.7456   -1.9799 O   0  5  0  0  0  0  0  0  0  0  0  0
  -16.7358  -22.1042   -4.7751 O   0  0  0  0  0  0  0  0  0  0  0  0
  -18.5856  -27.0424    0.4536 O   0  0  0  0  0  0  0  0  0  0  0  0
  -19.8553  -22.9839   -3.5773 C   0  0  0  0  0  0  0  0  0  0  0  0
  -16.1901  -24.9374    0.0703 C   0  0  0  0  0  0  0  0  0  0  0  0
  -18.4727  -23.1996   -3.2997 O   0  0  0  0  0  0  0  0  0  0  0  0
  -17.5638  -24.8563   -0.3025 O   0  0  0  0  0  0  0  0  0  0  0  0
  -20.6974  -23.9228   -2.7216 C   0  0  1  0  0  0  0  0  0  0  0  0
  -15.3963  -23.8687   -0.6704 C   0  0  1  0  0  0  0  0  0  0  0  0
  -21.9792  -24.1084   -3.3282 O   0  0  0  0  0  0  0  0  0  0  0  0
  -14.0214  -24.2535   -0.7443 O   0  0  0  0  0  0  0  0  0  0  0  0
  -20.0418  -25.2873   -2.5927 C   0  0  1  0  0  0  0  0  0  0  0  0
  -15.9054  -23.6889   -2.0917 C   0  0  1  0  0  0  0  0  0  0  0  0
  -19.7885  -25.5802   -1.2219 O   0  0  0  0  0  0  0  0  0  0  0  0
  -16.3362  -22.3456   -2.2899 O   0  0  0  0  0  0  0  0  0  0  0  0
  -21.0242  -26.2916   -3.1660 C   0  0  0  0  0  0  0  0  0  0  0  0
  -14.7386  -24.0014   -3.0086 C   0  0  0  0  0  0  0  0  0  0  0  0
  -22.2325  -25.4855   -3.6191 C   0  0  2  0  0  0  0  0  0  0  0  0
  -13.5720  -24.3560   -2.0977 C   0  0  2  0  0  0  0  0  0  0  0  0
  -20.0763  -25.1350   -8.3947 N   0  0  0  0  0  0  0  0  0  0  0  0
  -19.5507  -24.8724   -7.1839 C   0  0  0  0  0  0  0  0  0  0  0  0
  -20.2286  -25.0079   -6.0293 N   0  0  0  0  0  0  0  0  0  0  0  0
  -21.5158  -25.4299   -6.0242 C   0  0  0  0  0  0  0  0  0  0  0  0
  -22.1617  -25.7380   -7.3098 C   0  0  0  0  0  0  0  0  0  0  0  0
  -21.3504  -25.5635   -8.5379 C   0  0  0  0  0  0  0  0  0  0  0  0
  -21.8680  -25.8254   -9.7623 N   0  0  0  0  0  0  0  0  0  0  0  0
  -23.4180  -26.1287   -7.0243 N   0  0  0  0  0  0  0  0  0  0  0  0
  -23.5648  -26.0758   -5.6757 C   0  0  0  0  0  0  0  0  0  0  0  0
  -22.4311  -25.6595   -5.0794 N   0  0  0  0  0  0  0  0  0  0  0  0
  -11.5206  -28.7629   -0.1118 N   0  0  0  0  0  0  0  0  0  0  0  0
  -11.8128  -27.5945    0.4889 C   0  0  0  0  0  0  0  0  0  0  0  0
  -12.3418  -26.5365   -0.1516 N   0  0  0  0  0  0  0  0  0  0  0  0
  -12.6170  -26.5939   -1.4771 C   0  0  0  0  0  0  0  0  0  0  0  0
  -12.3256  -27.8386   -2.2050 C   0  0  0  0  0  0  0  0  0  0  0  0
  -11.7438  -28.9593   -1.4291 C   0  0  0  0  0  0  0  0  0  0  0  0
  -11.4459  -30.1413   -2.0226 N   0  0  0  0  0  0  0  0  0  0  0  0
  -12.6888  -27.6291   -3.4844 N   0  0  0  0  0  0  0  0  0  0  0  0
  -13.1697  -26.3620   -3.5684 C   0  0  0  0  0  0  0  0  0  0  0  0
  -13.1268  -25.7453   -2.3731 N   0  0  0  0  0  0  0  0  0  0  0  0
  1  3  1  1  0  0  0
  1  5  2  0  0  0  0
  1  9  1  0  0  0  0
  1 18  1  0  0  0  0
  2  4  1  6  0  0  0
  2  6  2  0  0  0  0
  2 10  1  0  0  0  0
  2 17  1  0  0  0  0
  7  9  1  0  0  0  0
  8 10  1  0  0  0  0
 11  7  1  6  0  0  0
 11 13  1  0  0  0  0
 11 15  1  0  0  0  0
 12  8  1  6  0  0  0
 12 14  1  0  0  0  0
 12 16  1  0  0  0  0
 13 21  1  0  0  0  0
 14 22  1  0  0  0  0
 15 17  1  1  0  0  0
 15 19  1  0  0  0  0
 16 18  1  1  0  0  0
 16 20  1  0  0  0  0
 19 21  1  0  0  0  0
 20 22  1  0  0  0  0
 21 32  1  6  0  0  0
 22 42  1  6  0  0  0
 23 24  2  0  0  0  0
 23 28  1  0  0  0  0
 24 25  1  0  0  0  0
 25 26  2  0  0  0  0
 26 27  1  0  0  0  0
 26 32  1  0  0  0  0
 27 28  2  0  0  0  0
 27 30  1  0  0  0  0
 28 29  1  0  0  0  0
 30 31  2  0  0  0  0
 31 32  1  0  0  0  0
 33 34  2  0  0  0  0
 33 38  1  0  0  0  0
 34 35  1  0  0  0  0
 35 36  2  0  0  0  0
 36 37  1  0  0  0  0
 36 42  1  0  0  0  0
 37 38  2  0  0  0  0
 37 40  1  0  0  0  0
 38 39  1  0  0  0  0
 40 41  2  0  0  0  0
 41 42  1  0  0  0  0
M  CHG  2   3  -1   4  -1
M  END
>  <CHROM.1>
63.59255264,-29.21634268,-17.51717145,-25.23011704,-3.10160957,2.96031143
0.50506935,-2.42282640

>  <Name>
ligand

>  <RI>
0

>  <Rbt.Current_Directory>
/home/itssahil/PROJECTS/Mol_Feturizer/New_Systems/rnas/4QLN

>  <Rbt.Executable>
rbdock ($Id: //depot/dev/client3/rdock/2013.1/src/exe/rbdock.cxx#4 $)

>  <Rbt.Library>
libRbt.so (2013.1, Build901 2013/11/27)

>  <Rbt.Parameter_File>
/export/apps/rDock/src/rDock_2013.1_src/data/scripts/dock_solv.prm

>  <Rbt.Receptor>
prm/blind_docking_100.prm

>  <SCORE>
-10.0989

>  <SCORE.INTER>
-11.8329

>  <SCORE.INTER.CONST>
1

>  <SCORE.INTER.POLAR>
0

>  <SCORE.INTER.ROT>
2

>  <SCORE.INTER.SOLV>
29.0809

>  <SCORE.INTER.VDW>
-22.5155

>  <SCORE.INTER.norm>
-0.281735

>  <SCORE.INTRA>
0.546975

>  <SCORE.INTRA.DIHEDRAL>
0.000950166

>  <SCORE.INTRA.DIHEDRAL.0>
2.39985

>  <SCORE.INTRA.POLAR>
0

>  <SCORE.INTRA.POLAR.0>
0

>  <SCORE.INTRA.REPUL>
0

>  <SCORE.INTRA.REPUL.0>
0

>  <SCORE.INTRA.SOLV>
-0.0393404

>  <SCORE.INTRA.SOLV.lig_0>
-110.958

>  <SCORE.INTRA.VDW>
0.56617

>  <SCORE.INTRA.VDW.0>
-2.34644

>  <SCORE.INTRA.norm>
0.0130232

>  <SCORE.RESTR>
1.18698

>  <SCORE.RESTR.CAVITY>
1.18698

>  <SCORE.RESTR.norm>
0.0282614

>  <SCORE.SYSTEM>
0

>  <SCORE.SYSTEM.CONST>
0

>  <SCORE.SYSTEM.DIHEDRAL>
0

>  <SCORE.SYSTEM.SOLV>
0

>  <SCORE.SYSTEM.norm>
0

>  <SCORE.heavy>
42

>  <SCORE.norm>
-0.24045

>  <RMSD>
28.205

$$$$
ligand
 OpenBabel11021811513D
libRbt.so/2013.1/901 2013/11/27
 42 48  0  0  0  0  0  0  0  0999 V2000
  -15.7507  -22.2576   -3.5256 P   0  0  2  0  0  0  0  0  0  0  0  0
  -18.2830  -25.8905   -1.0958 P   0  0  1  0  0  0  0  0  0  0  0  0
  -16.0556  -20.8148   -3.1964 O   0  5  0  0  0  0  0  0  0  0  0  0
  -17.6596  -26.6668   -2.2313 O   0  5  0  0  0  0  0  0  0  0  0  0
  -14.9765  -22.5971   -4.7767 O   0  0  0  0  0  0  0  0  0  0  0  0
  -18.9144  -26.6250    0.0624 O   0  0  0  0  0  0  0  0  0  0  0  0
  -18.3393  -22.4398   -3.9978 C   0  0  0  0  0  0  0  0  0  0  0  0
  -15.9541  -25.3791    0.0304 C   0  0  0  0  0  0  0  0  0  0  0  0
  -17.1391  -23.0714   -3.5554 O   0  0  0  0  0  0  0  0  0  0  0  0
  -17.1758  -24.8796   -0.5086 O   0  0  0  0  0  0  0  0  0  0  0  0
  -19.5324  -23.0548   -3.2762 C   0  0  1  0  0  0  0  0  0  0  0  0
  -14.7803  -24.6238   -0.5802 C   0  0  1  0  0  0  0  0  0  0  0  0
  -20.7214  -22.8411   -4.0418 O   0  0  0  0  0  0  0  0  0  0  0  0
  -13.5960  -25.4195   -0.4915 O   0  0  0  0  0  0  0  0  0  0  0  0
  -19.3563  -24.5535   -3.0990 C   0  0  1  0  0  0  0  0  0  0  0  0
  -15.0252  -24.3175   -2.0492 C   0  0  1  0  0  0  0  0  0  0  0  0
  -19.3812  -24.8882   -1.7148 O   0  0  0  0  0  0  0  0  0  0  0  0
  -14.9876  -22.9103   -2.2675 O   0  0  0  0  0  0  0  0  0  0  0  0
  -20.5225  -25.2104   -3.8139 C   0  0  0  0  0  0  0  0  0  0  0  0
  -13.9084  -24.9934   -2.8209 C   0  0  0  0  0  0  0  0  0  0  0  0
  -21.3524  -24.0751   -4.3946 C   0  0  2  0  0  0  0  0  0  0  0  0
  -13.0345  -25.6794   -1.7804 C   0  0  2  0  0  0  0  0  0  0  0  0
  -22.0182  -21.5889   -8.9721 N   0  0  0  0  0  0  0  0  0  0  0  0
  -22.0319  -21.1099   -7.7145 C   0  0  0  0  0  0  0  0  0  0  0  0
  -21.8448  -21.8729   -6.6218 N   0  0  0  0  0  0  0  0  0  0  0  0
  -21.6251  -23.2049   -6.7334 C   0  0  0  0  0  0  0  0  0  0  0  0
  -21.5952  -23.8044   -8.0767 C   0  0  0  0  0  0  0  0  0  0  0  0
  -21.8103  -22.8994   -9.2306 C   0  0  0  0  0  0  0  0  0  0  0  0
  -21.7980  -23.3695  -10.5013 N   0  0  0  0  0  0  0  0  0  0  0  0
  -21.3633  -25.1194   -7.9051 N   0  0  0  0  0  0  0  0  0  0  0  0
  -21.2544  -25.3434   -6.5706 C   0  0  0  0  0  0  0  0  0  0  0  0
  -21.4101  -24.2024   -5.8720 N   0  0  0  0  0  0  0  0  0  0  0  0
  -15.7849  -29.8998   -3.2624 N   0  0  0  0  0  0  0  0  0  0  0  0
  -16.1660  -28.6147   -3.1405 C   0  0  0  0  0  0  0  0  0  0  0  0
  -15.3444  -27.6256   -2.7453 N   0  0  0  0  0  0  0  0  0  0  0  0
  -14.0490  -27.8796   -2.4398 C   0  0  0  0  0  0  0  0  0  0  0  0
  -13.5562  -29.2614   -2.5488 C   0  0  0  0  0  0  0  0  0  0  0  0
  -14.5222  -30.2946   -2.9910 C   0  0  0  0  0  0  0  0  0  0  0  0
  -14.1503  -31.5921   -3.1184 N   0  0  0  0  0  0  0  0  0  0  0  0
  -12.2576  -29.2348   -2.1942 N   0  0  0  0  0  0  0  0  0  0  0  0
  -11.9466  -27.9497   -1.8850 C   0  0  0  0  0  0  0  0  0  0  0  0
  -13.0135  -27.1425   -2.0311 N   0  0  0  0  0  0  0  0  0  0  0  0
  1  3  1  1  0  0  0
  1  5  2  0  0  0  0
  1  9  1  0  0  0  0
  1 18  1  0  0  0  0
  2  4  1  6  0  0  0
  2  6  2  0  0  0  0
  2 10  1  0  0  0  0
  2 17  1  0  0  0  0
  7  9  1  0  0  0  0
  8 10  1  0  0  0  0
 11  7  1  6  0  0  0
 11 13  1  0  0  0  0
 11 15  1  0  0  0  0
 12  8  1  6  0  0  0
 12 14  1  0  0  0  0
 12 16  1  0  0  0  0
 13 21  1  0  0  0  0
 14 22  1  0  0  0  0
 15 17  1  1  0  0  0
 15 19  1  0  0  0  0
 16 18  1  1  0  0  0
 16 20  1  0  0  0  0
 19 21  1  0  0  0  0
 20 22  1  0  0  0  0
 21 32  1  6  0  0  0
 22 42  1  6  0  0  0
 23 24  2  0  0  0  0
 23 28  1  0  0  0  0
 24 25  1  0  0  0  0
 25 26  2  0  0  0  0
 26 27  1  0  0  0  0
 26 32  1  0  0  0  0
 27 28  2  0  0  0  0
 27 30  1  0  0  0  0
 28 29  1  0  0  0  0
 30 31  2  0  0  0  0
 31 32  1  0  0  0  0
 33 34  2  0  0  0  0
 33 38  1  0  0  0  0
 34 35  1  0  0  0  0
 35 36  2  0  0  0  0
 36 37  1  0  0  0  0
 36 42  1  0  0  0  0
 37 38  2  0  0  0  0
 37 40  1  0  0  0  0
 38 39  1  0  0  0  0
 40 41  2  0  0  0  0
 41 42  1  0  0  0  0
M  CHG  2   3  -1   4  -1
M  END
>  <CHROM.1>
-36.88435334,80.55761562,-17.42770517,-25.00944683,-3.59384747,-0.37149692
-0.68701341,0.15916858

>  <Name>
ligand

>  <RI>
0

>  <Rbt.Current_Directory>
/home/itssahil/PROJECTS/Mol_Feturizer/New_Systems/rnas/4QLN

>  <Rbt.Executable>
rbdock ($Id: //depot/dev/client3/rdock/2013.1/src/exe/rbdock.cxx#4 $)

>  <Rbt.Library>
libRbt.so (2013.1, Build901 2013/11/27)

>  <Rbt.Parameter_File>
/export/apps/rDock/src/rDock_2013.1_src/data/scripts/dock_solv.prm

>  <Rbt.Receptor>
prm/blind_docking_100.prm

>  <SCORE>
1.69363

>  <SCORE.INTER>
-6.69474

>  <SCORE.INTER.CONST>
1

>  <SCORE.INTER.POLAR>
0

>  <SCORE.INTER.ROT>
2

>  <SCORE.INTER.SOLV>
22.6389

>  <SCORE.INTER.VDW>
-16.9428

>  <SCORE.INTER.norm>
-0.159398

>  <SCORE.INTRA>
2.36087

>  <SCORE.INTRA.DIHEDRAL>
0.00105637

>  <SCORE.INTRA.DIHEDRAL.0>
2.39985

>  <SCORE.INTRA.POLAR>
0

>  <SCORE.INTRA.POLAR.0>
0

>  <SCORE.INTRA.REPUL>
0

>  <SCORE.INTRA.REPUL.0>
0

>  <SCORE.INTRA.SOLV>
1.01848

>  <SCORE.INTRA.SOLV.lig_0>
-110.958

>  <SCORE.INTRA.VDW>
1.8511

>  <SCORE.INTRA.VDW.0>
-2.34644

>  <SCORE.INTRA.norm>
0.0562112

>  <SCORE.RESTR>
6.0275

>  <SCORE.RESTR.CAVITY>
6.0275

>  <SCORE.RESTR.norm>
0.143512

>  <SCORE.SYSTEM>
0

>  <SCORE.SYSTEM.CONST>
0

>  <SCORE.SYSTEM.DIHEDRAL>
0

>  <SCORE.SYSTEM.SOLV>
0

>  <SCORE.SYSTEM.norm>
0

>  <SCORE.heavy>
42

>  <SCORE.norm>
0.0403246

>  <RMSD>
28.214

$$$$
ligand
 OpenBabel11021811513D
libRbt.so/2013.1/901 2013/11/27
 42 48  0  0  0  0  0  0  0  0999 V2000
  -17.4853  -22.0003   -3.4012 P   0  0  2  0  0  0  0  0  0  0  0  0
  -18.3281  -26.2092   -0.7386 P   0  0  1  0  0  0  0  0  0  0  0  0
  -18.1692  -20.7221   -2.9753 O   0  5  0  0  0  0  0  0  0  0  0  0
  -17.6844  -26.7665   -1.9858 O   0  5  0  0  0  0  0  0  0  0  0  0
  -16.8557  -22.0974   -4.7701 O   0  0  0  0  0  0  0  0  0  0  0  0
  -18.5030  -27.0878    0.4767 O   0  0  0  0  0  0  0  0  0  0  0  0
  -19.9274  -22.9948   -3.4667 C   0  0  0  0  0  0  0  0  0  0  0  0
  -16.1270  -24.9742    0.0252 C   0  0  0  0  0  0  0  0  0  0  0  0
  -18.5352  -23.2101   -3.2422 O   0  0  0  0  0  0  0  0  0  0  0  0
  -17.5136  -24.8926   -0.2961 O   0  0  0  0  0  0  0  0  0  0  0  0
  -20.7357  -23.9433   -2.5894 C   0  0  1  0  0  0  0  0  0  0  0  0
  -15.3628  -23.8970   -0.7342 C   0  0  1  0  0  0  0  0  0  0  0  0
  -22.0387  -24.1260   -3.1501 O   0  0  0  0  0  0  0  0  0  0  0  0
  -13.9909  -24.2782   -0.8623 O   0  0  0  0  0  0  0  0  0  0  0  0
  -20.0734  -25.3076   -2.4975 C   0  0  1  0  0  0  0  0  0  0  0  0
  -15.9242  -23.7051   -2.1341 C   0  0  1  0  0  0  0  0  0  0  0  0
  -19.7693  -25.6127   -1.1398 O   0  0  0  0  0  0  0  0  0  0  0  0
  -16.3644  -22.3610   -2.3037 O   0  0  0  0  0  0  0  0  0  0  0  0
  -21.0745  -26.3086   -3.0436 C   0  0  0  0  0  0  0  0  0  0  0  0
  -14.7915  -24.0066   -3.0962 C   0  0  0  0  0  0  0  0  0  0  0  0
  -22.3000  -25.5009   -3.4444 C   0  0  2  0  0  0  0  0  0  0  0  0
  -13.5914  -24.3672   -2.2321 C   0  0  2  0  0  0  0  0  0  0  0  0
  -20.2855  -25.2189   -8.2859 N   0  0  0  0  0  0  0  0  0  0  0  0
  -19.7115  -24.9815   -7.0920 C   0  0  0  0  0  0  0  0  0  0  0  0
  -20.3569  -25.0943   -5.9165 N   0  0  0  0  0  0  0  0  0  0  0  0
  -21.6590  -25.4651   -5.8711 C   0  0  0  0  0  0  0  0  0  0  0  0
  -22.3573  -25.7430   -7.1360 C   0  0  0  0  0  0  0  0  0  0  0  0
  -21.5795  -25.5963   -8.3892 C   0  0  0  0  0  0  0  0  0  0  0  0
  -22.1459  -25.8332   -9.5969 N   0  0  0  0  0  0  0  0  0  0  0  0
  -23.6183  -26.0848   -6.8113 N   0  0  0  0  0  0  0  0  0  0  0  0
  -23.7198  -26.0309   -5.4585 C   0  0  0  0  0  0  0  0  0  0  0  0
  -22.5519  -25.6618   -4.8980 N   0  0  0  0  0  0  0  0  0  0  0  0
  -11.1338  -28.6611   -0.4728 N   0  0  0  0  0  0  0  0  0  0  0  0
  -11.3636  -27.4825    0.1352 C   0  0  0  0  0  0  0  0  0  0  0  0
  -12.0148  -26.4574   -0.4433 N   0  0  0  0  0  0  0  0  0  0  0  0
  -12.4887  -26.5615   -1.7085 C   0  0  0  0  0  0  0  0  0  0  0  0
  -12.2771  -27.8202   -2.4399 C   0  0  0  0  0  0  0  0  0  0  0  0
  -11.5510  -28.9024   -1.7343 C   0  0  0  0  0  0  0  0  0  0  0  0
  -11.3141  -30.0942   -2.3357 N   0  0  0  0  0  0  0  0  0  0  0  0
  -12.8384  -27.6581   -3.6530 N   0  0  0  0  0  0  0  0  0  0  0  0
  -13.3626  -26.4062   -3.6946 C   0  0  0  0  0  0  0  0  0  0  0  0
  -13.1543  -25.7529   -2.5367 N   0  0  0  0  0  0  0  0  0  0  0  0
  1  3  1  1  0  0  0
  1  5  2  0  0  0  0
  1  9  1  0  0  0  0
  1 18  1  0  0  0  0
  2  4  1  6  0  0  0
  2  6  2  0  0  0  0
  2 10  1  0  0  0  0
  2 17  1  0  0  0  0
  7  9  1  0  0  0  0
  8 10  1  0  0  0  0
 11  7  1  6  0  0  0
 11 13  1  0  0  0  0
 11 15  1  0  0  0  0
 12  8  1  6  0  0  0
 12 14  1  0  0  0  0
 12 16  1  0  0  0  0
 13 21  1  0  0  0  0
 14 22  1  0  0  0  0
 15 17  1  1  0  0  0
 15 19  1  0  0  0  0
 16 18  1  1  0  0  0
 16 20  1  0  0  0  0
 19 21  1  0  0  0  0
 20 22  1  0  0  0  0
 21 32  1  6  0  0  0
 22 42  1  6  0  0  0
 23 24  2  0  0  0  0
 23 28  1  0  0  0  0
 24 25  1  0  0  0  0
 25 26  2  0  0  0  0
 26 27  1  0  0  0  0
 26 32  1  0  0  0  0
 27 28  2  0  0  0  0
 27 30  1  0  0  0  0
 28 29  1  0  0  0  0
 30 31  2  0  0  0  0
 31 32  1  0  0  0  0
 33 34  2  0  0  0  0
 33 38  1  0  0  0  0
 34 35  1  0  0  0  0
 35 36  2  0  0  0  0
 36 37  1  0  0  0  0
 36 42  1  0  0  0  0
 37 38  2  0  0  0  0
 37 40  1  0  0  0  0
 38 39  1  0  0  0  0
 40 41  2  0  0  0  0
 41 42  1  0  0  0  0
M  CHG  2   3  -1   4  -1
M  END
>  <CHROM.1>
66.01281121,-36.44531002,-17.53952844,-25.23955158,-3.10672587,2.96386508
0.45419426,-2.37389560

>  <Name>
ligand

>  <RI>
0

>  <Rbt.Current_Directory>
/home/itssahil/PROJECTS/Mol_Feturizer/New_Systems/rnas/4QLN

>  <Rbt.Executable>
rbdock ($Id: //depot/dev/client3/rdock/2013.1/src/exe/rbdock.cxx#4 $)

>  <Rbt.Library>
libRbt.so (2013.1, Build901 2013/11/27)

>  <Rbt.Parameter_File>
/export/apps/rDock/src/rDock_2013.1_src/data/scripts/dock_solv.prm

>  <Rbt.Receptor>
prm/blind_docking_100.prm

>  <SCORE>
-11.5217

>  <SCORE.INTER>
-13.8289

>  <SCORE.INTER.CONST>
1

>  <SCORE.INTER.POLAR>
0

>  <SCORE.INTER.ROT>
2

>  <SCORE.INTER.SOLV>
29.8591

>  <SCORE.INTER.VDW>
-24.1056

>  <SCORE.INTER.norm>
-0.32926

>  <SCORE.INTRA>
0.77099

>  <SCORE.INTRA.DIHEDRAL>
0.000940269

>  <SCORE.INTRA.DIHEDRAL.0>
2.39985

>  <SCORE.INTRA.POLAR>
0

>  <SCORE.INTRA.POLAR.0>
0

>  <SCORE.INTRA.REPUL>
0

>  <SCORE.INTRA.REPUL.0>
0

>  <SCORE.INTRA.SOLV>
-0.0488398

>  <SCORE.INTRA.SOLV.lig_0>
-110.958

>  <SCORE.INTRA.VDW>
0.79494

>  <SCORE.INTRA.VDW.0>
-2.34644

>  <SCORE.INTRA.norm>
0.0183569

>  <SCORE.RESTR>
1.53625

>  <SCORE.RESTR.CAVITY>
1.53625

>  <SCORE.RESTR.norm>
0.0365775

>  <SCORE.SYSTEM>
0

>  <SCORE.SYSTEM.CONST>
0

>  <SCORE.SYSTEM.DIHEDRAL>
0

>  <SCORE.SYSTEM.SOLV>
0

>  <SCORE.SYSTEM.norm>
0

>  <SCORE.heavy>
42

>  <SCORE.norm>
-0.274326

>  <RMSD>
28.214

$$$$
ligand
 OpenBabel11021811513D
libRbt.so/2013.1/901 2013/11/27
 42 48  0  0  0  0  0  0  0  0999 V2000
  -17.3582  -21.9335   -3.5111 P   0  0  2  0  0  0  0  0  0  0  0  0
  -17.9774  -26.0002   -0.5797 P   0  0  1  0  0  0  0  0  0  0  0  0
  -18.1143  -20.6705   -3.1705 O   0  5  0  0  0  0  0  0  0  0  0  0
  -17.2977  -26.6008   -1.7871 O   0  5  0  0  0  0  0  0  0  0  0  0
  -16.7177  -22.0843   -4.8701 O   0  0  0  0  0  0  0  0  0  0  0  0
  -18.1087  -26.8061    0.6902 O   0  0  0  0  0  0  0  0  0  0  0  0
  -19.7406  -23.0653   -3.5140 C   0  0  0  0  0  0  0  0  0  0  0  0
  -15.8522  -24.5968    0.1039 C   0  0  0  0  0  0  0  0  0  0  0  0
  -18.3396  -23.1872   -3.2744 O   0  0  0  0  0  0  0  0  0  0  0  0
  -17.2397  -24.6141   -0.2235 O   0  0  0  0  0  0  0  0  0  0  0  0
  -20.4989  -23.9983   -2.5774 C   0  0  1  0  0  0  0  0  0  0  0  0
  -15.1458  -23.5304   -0.7235 C   0  0  1  0  0  0  0  0  0  0  0  0
  -21.7870  -24.2898   -3.1263 O   0  0  0  0  0  0  0  0  0  0  0  0
  -13.7541  -23.8417   -0.8249 O   0  0  0  0  0  0  0  0  0  0  0  0
  -19.7620  -25.3145   -2.3957 C   0  0  1  0  0  0  0  0  0  0  0  0
  -15.7104  -23.4619   -2.1336 C   0  0  1  0  0  0  0  0  0  0  0  0
  -19.4477  -25.5128   -1.0206 O   0  0  0  0  0  0  0  0  0  0  0  0
  -16.2241  -22.1585   -2.3912 O   0  0  0  0  0  0  0  0  0  0  0  0
  -20.7031  -26.4034   -2.8762 C   0  0  0  0  0  0  0  0  0  0  0  0
  -14.5580  -23.7617   -3.0727 C   0  0  0  0  0  0  0  0  0  0  0  0
  -21.9699  -25.6935   -3.3302 C   0  0  2  0  0  0  0  0  0  0  0  0
  -13.3439  -23.9974   -2.1856 C   0  0  2  0  0  0  0  0  0  0  0  0
  -20.2913  -24.9385   -8.2487 N   0  0  0  0  0  0  0  0  0  0  0  0
  -19.7808  -24.5048   -7.0814 C   0  0  0  0  0  0  0  0  0  0  0  0
  -20.3235  -24.7781   -5.8806 N   0  0  0  0  0  0  0  0  0  0  0  0
  -21.4469  -25.5284   -5.7799 C   0  0  0  0  0  0  0  0  0  0  0  0
  -22.0654  -26.0405   -7.0127 C   0  0  0  0  0  0  0  0  0  0  0  0
  -21.4097  -25.6965   -8.2967 C   0  0  0  0  0  0  0  0  0  0  0  0
  -21.9135  -26.1278   -9.4781 N   0  0  0  0  0  0  0  0  0  0  0  0
  -23.1498  -26.7431   -6.6349 N   0  0  0  0  0  0  0  0  0  0  0  0
  -23.2207  -26.6865   -5.2803 C   0  0  0  0  0  0  0  0  0  0  0  0
  -22.2055  -25.9627   -4.7705 N   0  0  0  0  0  0  0  0  0  0  0  0
  -14.5555  -29.0339   -3.0450 N   0  0  0  0  0  0  0  0  0  0  0  0
  -15.3562  -27.9631   -2.8901 C   0  0  0  0  0  0  0  0  0  0  0  0
  -14.9023  -26.7155   -2.6732 N   0  0  0  0  0  0  0  0  0  0  0  0
  -13.5731  -26.4638   -2.5970 C   0  0  0  0  0  0  0  0  0  0  0  0
  -12.6326  -27.5837   -2.7565 C   0  0  0  0  0  0  0  0  0  0  0  0
  -13.2102  -28.9279   -2.9928 C   0  0  0  0  0  0  0  0  0  0  0  0
  -12.4143  -30.0140   -3.1510 N   0  0  0  0  0  0  0  0  0  0  0  0
  -11.3954  -27.0655   -2.6397 N   0  0  0  0  0  0  0  0  0  0  0  0
  -11.5318  -25.7318   -2.4240 C   0  0  0  0  0  0  0  0  0  0  0  0
  -12.8286  -25.3734   -2.3984 N   0  0  0  0  0  0  0  0  0  0  0  0
  1  3  1  1  0  0  0
  1  5  2  0  0  0  0
  1  9  1  0  0  0  0
  1 18  1  0  0  0  0
  2  4  1  6  0  0  0
  2  6  2  0  0  0  0
  2 10  1  0  0  0  0
  2 17  1  0  0  0  0
  7  9  1  0  0  0  0
  8 10  1  0  0  0  0
 11  7  1  6  0  0  0
 11 13  1  0  0  0  0
 11 15  1  0  0  0  0
 12  8  1  1  0  0  0
 12 14  1  0  0  0  0
 12 16  1  0  0  0  0
 13 21  1  0  0  0  0
 14 22  1  0  0  0  0
 15 17  1  1  0  0  0
 15 19  1  0  0  0  0
 16 18  1  6  0  0  0
 16 20  1  0  0  0  0
 19 21  1  0  0  0  0
 20 22  1  0  0  0  0
 21 32  1  6  0  0  0
 22 42  1  1  0  0  0
 23 24  2  0  0  0  0
 23 28  1  0  0  0  0
 24 25  1  0  0  0  0
 25 26  2  0  0  0  0
 26 27  1  0  0  0  0
 26 32  1  0  0  0  0
 27 28  2  0  0  0  0
 27 30  1  0  0  0  0
 28 29  1  0  0  0  0
 30 31  2  0  0  0  0
 31 32  1  0  0  0  0
 33 34  2  0  0  0  0
 33 38  1  0  0  0  0
 34 35  1  0  0  0  0
 35 36  2  0  0  0  0
 36 37  1  0  0  0  0
 36 42  1  0  0  0  0
 37 38  2  0  0  0  0
 37 40  1  0  0  0  0
 38 39  1  0  0  0  0
 40 41  2  0  0  0  0
 41 42  1  0  0  0  0
M  CHG  2   3  -1   4  -1
M  END
>  <CHROM.1>
50.99844066,80.46416362,-17.58098915,-25.17196501,-3.24944022,2.99342176
0.44248639,-2.61151444

>  <Name>
ligand

>  <RI>
0

>  <Rbt.Current_Directory>
/home/itssahil/PROJECTS/Mol_Feturizer/New_Systems/rnas/4QLN

>  <Rbt.Executable>
rbdock ($Id: //depot/dev/client3/rdock/2013.1/src/exe/rbdock.cxx#4 $)

>  <Rbt.Library>
libRbt.so (2013.1, Build901 2013/11/27)

>  <Rbt.Parameter_File>
/export/apps/rDock/src/rDock_2013.1_src/data/scripts/dock_solv.prm

>  <Rbt.Receptor>
prm/blind_docking_60.prm

>  <SCORE>
-1.46803

>  <SCORE.INTER>
-11.6963

>  <SCORE.INTER.CONST>
1

>  <SCORE.INTER.POLAR>
0

>  <SCORE.INTER.ROT>
2

>  <SCORE.INTER.SOLV>
32.2915

>  <SCORE.INTER.VDW>
-23.4947

>  <SCORE.INTER.norm>
-0.278483

>  <SCORE.INTRA>
0.91459

>  <SCORE.INTRA.DIHEDRAL>
0.00069098

>  <SCORE.INTRA.DIHEDRAL.0>
2.39985

>  <SCORE.INTRA.POLAR>
0

>  <SCORE.INTRA.POLAR.0>
0

>  <SCORE.INTRA.REPUL>
0

>  <SCORE.INTRA.REPUL.0>
0

>  <SCORE.INTRA.SOLV>
1.03739

>  <SCORE.INTRA.SOLV.lig_0>
-110.958

>  <SCORE.INTRA.VDW>
0.395551

>  <SCORE.INTRA.VDW.0>
-2.34644

>  <SCORE.INTRA.norm>
0.021776

>  <SCORE.RESTR>
9.31366

>  <SCORE.RESTR.CAVITY>
9.31366

>  <SCORE.RESTR.norm>
0.221754

>  <SCORE.SYSTEM>
0

>  <SCORE.SYSTEM.CONST>
0

>  <SCORE.SYSTEM.DIHEDRAL>
0

>  <SCORE.SYSTEM.SOLV>
0

>  <SCORE.SYSTEM.norm>
0

>  <SCORE.heavy>
42

>  <SCORE.norm>
-0.034953

>  <RMSD>
28.216

$$$$
ligand
 OpenBabel11021811513D
libRbt.so/2013.1/901 2013/11/27
 42 48  0  0  0  0  0  0  0  0999 V2000
  -17.4381  -21.9864   -3.3881 P   0  0  2  0  0  0  0  0  0  0  0  0
  -18.2604  -26.1802   -0.6955 P   0  0  1  0  0  0  0  0  0  0  0  0
  -18.1859  -20.7268   -3.0176 O   0  5  0  0  0  0  0  0  0  0  0  0
  -17.5385  -26.7337   -1.9008 O   0  5  0  0  0  0  0  0  0  0  0  0
  -16.7404  -22.0825   -4.7238 O   0  0  0  0  0  0  0  0  0  0  0  0
  -18.4627  -27.0452    0.5252 O   0  0  0  0  0  0  0  0  0  0  0  0
  -19.8380  -23.0683   -3.5521 C   0  0  0  0  0  0  0  0  0  0  0  0
  -16.1430  -24.8555    0.1503 C   0  0  0  0  0  0  0  0  0  0  0  0
  -18.4515  -23.2302   -3.2580 O   0  0  0  0  0  0  0  0  0  0  0  0
  -17.5146  -24.8286   -0.2379 O   0  0  0  0  0  0  0  0  0  0  0  0
  -20.6539  -24.0311   -2.6978 C   0  0  1  0  0  0  0  0  0  0  0  0
  -15.3813  -23.7638   -0.5907 C   0  0  1  0  0  0  0  0  0  0  0  0
  -21.9213  -24.2690   -3.3164 O   0  0  0  0  0  0  0  0  0  0  0  0
  -13.9924  -24.0978   -0.6468 O   0  0  0  0  0  0  0  0  0  0  0  0
  -19.9496  -25.3693   -2.5507 C   0  0  1  0  0  0  0  0  0  0  0  0
  -15.8812  -23.6142   -2.0188 C   0  0  1  0  0  0  0  0  0  0  0  0
  -19.7007  -25.6419   -1.1750 O   0  0  0  0  0  0  0  0  0  0  0  0
  -16.3593  -22.2895   -2.2326 O   0  0  0  0  0  0  0  0  0  0  0  0
  -20.8878  -26.4139   -3.1262 C   0  0  0  0  0  0  0  0  0  0  0  0
  -14.6936  -23.8902   -2.9206 C   0  0  0  0  0  0  0  0  0  0  0  0
  -22.1201  -25.6569   -3.5987 C   0  0  2  0  0  0  0  0  0  0  0  0
  -13.5246  -24.1940   -1.9944 C   0  0  2  0  0  0  0  0  0  0  0  0
  -19.9941  -25.0956   -8.3678 N   0  0  0  0  0  0  0  0  0  0  0  0
  -19.5007  -24.7825   -7.1554 C   0  0  0  0  0  0  0  0  0  0  0  0
  -20.1655  -24.9842   -6.0029 N   0  0  0  0  0  0  0  0  0  0  0  0
  -21.4049  -25.5308   -6.0017 C   0  0  0  0  0  0  0  0  0  0  0  0
  -22.0134  -25.9010   -7.2891 C   0  0  0  0  0  0  0  0  0  0  0  0
  -21.2194  -25.6474   -8.5148 C   0  0  0  0  0  0  0  0  0  0  0  0
  -21.7049  -25.9590   -9.7408 N   0  0  0  0  0  0  0  0  0  0  0  0
  -23.2259  -26.4136   -7.0075 N   0  0  0  0  0  0  0  0  0  0  0  0
  -23.3814  -26.3754   -5.6593 C   0  0  0  0  0  0  0  0  0  0  0  0
  -22.2960  -25.8495   -5.0596 N   0  0  0  0  0  0  0  0  0  0  0  0
  -14.7951  -29.1980   -2.9529 N   0  0  0  0  0  0  0  0  0  0  0  0
  -15.5836  -28.1257   -2.7528 C   0  0  0  0  0  0  0  0  0  0  0  0
  -15.1151  -26.8874   -2.5148 N   0  0  0  0  0  0  0  0  0  0  0  0
  -13.7825  -26.6475   -2.4627 C   0  0  0  0  0  0  0  0  0  0  0  0
  -12.8548  -27.7698   -2.6719 C   0  0  0  0  0  0  0  0  0  0  0  0
  -13.4482  -29.1032   -2.9289 C   0  0  0  0  0  0  0  0  0  0  0  0
  -12.6647  -30.1907   -3.1327 N   0  0  0  0  0  0  0  0  0  0  0  0
  -11.6112  -27.2637   -2.5704 N   0  0  0  0  0  0  0  0  0  0  0  0
  -11.7321  -25.9350   -2.3180 C   0  0  0  0  0  0  0  0  0  0  0  0
  -13.0252  -25.5679   -2.2536 N   0  0  0  0  0  0  0  0  0  0  0  0
  1  3  1  1  0  0  0
  1  5  2  0  0  0  0
  1  9  1  0  0  0  0
  1 18  1  0  0  0  0
  2  4  1  6  0  0  0
  2  6  2  0  0  0  0
  2 10  1  0  0  0  0
  2 17  1  0  0  0  0
  7  9  1  0  0  0  0
  8 10  1  0  0  0  0
 11  7  1  6  0  0  0
 11 13  1  0  0  0  0
 11 15  1  0  0  0  0
 12  8  1  6  0  0  0
 12 14  1  0  0  0  0
 12 16  1  0  0  0  0
 13 21  1  0  0  0  0
 14 22  1  0  0  0  0
 15 17  1  1  0  0  0
 15 19  1  0  0  0  0
 16 18  1  1  0  0  0
 16 20  1  0  0  0  0
 19 21  1  0  0  0  0
 20 22  1  0  0  0  0
 21 32  1  6  0  0  0
 22 42  1  6  0  0  0
 23 24  2  0  0  0  0
 23 28  1  0  0  0  0
 24 25  1  0  0  0  0
 25 26  2  0  0  0  0
 26 27  1  0  0  0  0
 26 32  1  0  0  0  0
 27 28  2  0  0  0  0
 27 30  1  0  0  0  0
 28 29  1  0  0  0  0
 30 31  2  0  0  0  0
 31 32  1  0  0  0  0
 33 34  2  0  0  0  0
 33 38  1  0  0  0  0
 34 35  1  0  0  0  0
 35 36  2  0  0  0  0
 36 37  1  0  0  0  0
 36 42  1  0  0  0  0
 37 38  2  0  0  0  0
 37 40  1  0  0  0  0
 38 39  1  0  0  0  0
 40 41  2  0  0  0  0
 41 42  1  0  0  0  0
M  CHG  2   3  -1   4  -1
M  END
>  <CHROM.1>
60.01554531,76.32329194,-17.71341121,-25.26517731,-3.28101484,2.96866125
0.48365547,-2.54386822

>  <Name>
ligand

>  <RI>
0

>  <Rbt.Current_Directory>
/home/itssahil/PROJECTS/Mol_Feturizer/New_Systems/rnas/4QLN

>  <Rbt.Executable>
rbdock ($Id: //depot/dev/client3/rdock/2013.1/src/exe/rbdock.cxx#4 $)

>  <Rbt.Library>
libRbt.so (2013.1, Build901 2013/11/27)

>  <Rbt.Parameter_File>
/export/apps/rDock/src/rDock_2013.1_src/data/scripts/dock_solv.prm

>  <Rbt.Receptor>
prm/blind_docking_100.prm

>  <SCORE>
-9.10464

>  <SCORE.INTER>
-12.8905

>  <SCORE.INTER.CONST>
1

>  <SCORE.INTER.POLAR>
0

>  <SCORE.INTER.ROT>
2

>  <SCORE.INTER.SOLV>
30.2452

>  <SCORE.INTER.VDW>
-23.6087

>  <SCORE.INTER.norm>
-0.306916

>  <SCORE.INTRA>
1.26736

>  <SCORE.INTRA.DIHEDRAL>
0.00071692

>  <SCORE.INTRA.DIHEDRAL.0>
2.39985

>  <SCORE.INTRA.POLAR>
0

>  <SCORE.INTRA.POLAR.0>
0

>  <SCORE.INTRA.REPUL>
0

>  <SCORE.INTRA.REPUL.0>
0

>  <SCORE.INTRA.SOLV>
1.13161

>  <SCORE.INTRA.SOLV.lig_0>
-110.958

>  <SCORE.INTRA.VDW>
0.701196

>  <SCORE.INTRA.VDW.0>
-2.34644

>  <SCORE.INTRA.norm>
0.0301752

>  <SCORE.RESTR>
2.51847

>  <SCORE.RESTR.CAVITY>
2.51847

>  <SCORE.RESTR.norm>
0.0599636

>  <SCORE.SYSTEM>
0

>  <SCORE.SYSTEM.CONST>
0

>  <SCORE.SYSTEM.DIHEDRAL>
0

>  <SCORE.SYSTEM.SOLV>
0

>  <SCORE.SYSTEM.norm>
0

>  <SCORE.heavy>
42

>  <SCORE.norm>
-0.216777

>  <RMSD>
28.287

$$$$
ligand
 OpenBabel11021811513D
libRbt.so/2013.1/901 2013/11/27
 42 48  0  0  0  0  0  0  0  0999 V2000
  -17.4625  -21.9792   -3.4033 P   0  0  2  0  0  0  0  0  0  0  0  0
  -18.2601  -26.1724   -0.7022 P   0  0  1  0  0  0  0  0  0  0  0  0
  -18.2201  -20.7242   -3.0373 O   0  5  0  0  0  0  0  0  0  0  0  0
  -17.5317  -26.7236   -1.9047 O   0  5  0  0  0  0  0  0  0  0  0  0
  -16.7614  -22.0735   -4.7373 O   0  0  0  0  0  0  0  0  0  0  0  0
  -18.4587  -27.0359    0.5202 O   0  0  0  0  0  0  0  0  0  0  0  0
  -19.8542  -23.0788   -3.5695 C   0  0  0  0  0  0  0  0  0  0  0  0
  -16.1541  -24.8305    0.1447 C   0  0  0  0  0  0  0  0  0  0  0  0
  -18.4672  -23.2300   -3.2723 O   0  0  0  0  0  0  0  0  0  0  0  0
  -17.5250  -24.8143   -0.2463 O   0  0  0  0  0  0  0  0  0  0  0  0
  -20.6650  -24.0455   -2.7146 C   0  0  1  0  0  0  0  0  0  0  0  0
  -15.3987  -23.7351   -0.5974 C   0  0  1  0  0  0  0  0  0  0  0  0
  -21.9293  -24.2940   -3.3352 O   0  0  0  0  0  0  0  0  0  0  0  0
  -14.0073  -24.0592   -0.6499 O   0  0  0  0  0  0  0  0  0  0  0  0
  -19.9513  -25.3782   -2.5628 C   0  0  1  0  0  0  0  0  0  0  0  0
  -15.8967  -23.5925   -2.0269 C   0  0  1  0  0  0  0  0  0  0  0  0
  -19.7032  -25.6457   -1.1859 O   0  0  0  0  0  0  0  0  0  0  0  0
  -16.3840  -22.2718   -2.2448 O   0  0  0  0  0  0  0  0  0  0  0  0
  -20.8807  -26.4309   -3.1377 C   0  0  0  0  0  0  0  0  0  0  0  0
  -14.7054  -23.8621   -2.9256 C   0  0  0  0  0  0  0  0  0  0  0  0
  -22.1175  -25.6839   -3.6145 C   0  0  2  0  0  0  0  0  0  0  0  0
  -13.5361  -24.1553   -1.9963 C   0  0  2  0  0  0  0  0  0  0  0  0
  -20.0152  -25.0555   -8.3857 N   0  0  0  0  0  0  0  0  0  0  0  0
  -19.5303  -24.7278   -7.1738 C   0  0  0  0  0  0  0  0  0  0  0  0
  -20.1873  -24.9504   -6.0205 N   0  0  0  0  0  0  0  0  0  0  0  0
  -21.4093  -25.5350   -6.0182 C   0  0  0  0  0  0  0  0  0  0  0  0
  -22.0074  -25.9232   -7.3051 C   0  0  0  0  0  0  0  0  0  0  0  0
  -21.2231  -25.6448   -8.5316 C   0  0  0  0  0  0  0  0  0  0  0  0
  -21.7001  -25.9707   -9.7571 N   0  0  0  0  0  0  0  0  0  0  0  0
  -23.2033  -26.4730   -7.0223 N   0  0  0  0  0  0  0  0  0  0  0  0
  -23.3584  -26.4401   -5.6740 C   0  0  0  0  0  0  0  0  0  0  0  0
  -22.2891  -25.8813   -5.0753 N   0  0  0  0  0  0  0  0  0  0  0  0
  -14.7684  -29.1804   -2.8918 N   0  0  0  0  0  0  0  0  0  0  0  0
  -15.5650  -28.1147   -2.6890 C   0  0  0  0  0  0  0  0  0  0  0  0
  -15.1059  -26.8695   -2.4689 N   0  0  0  0  0  0  0  0  0  0  0  0
  -13.7753  -26.6153   -2.4392 C   0  0  0  0  0  0  0  0  0  0  0  0
  -12.8391  -27.7297   -2.6529 C   0  0  0  0  0  0  0  0  0  0  0  0
  -13.4223  -29.0715   -2.8892 C   0  0  0  0  0  0  0  0  0  0  0  0
  -12.6306  -30.1526   -3.0955 N   0  0  0  0  0  0  0  0  0  0  0  0
  -11.5995  -27.2100   -2.5748 N   0  0  0  0  0  0  0  0  0  0  0  0
  -11.7306  -25.8804   -2.3321 C   0  0  0  0  0  0  0  0  0  0  0  0
  -13.0263  -25.5262   -2.2512 N   0  0  0  0  0  0  0  0  0  0  0  0
  1  3  1  1  0  0  0
  1  5  2  0  0  0  0
  1  9  1  0  0  0  0
  1 18  1  0  0  0  0
  2  4  1  6  0  0  0
  2  6  2  0  0  0  0
  2 10  1  0  0  0  0
  2 17  1  0  0  0  0
  7  9  1  0  0  0  0
  8 10  1  0  0  0  0
 11  7  1  6  0  0  0
 11 13  1  0  0  0  0
 11 15  1  0  0  0  0
 12  8  1  6  0  0  0
 12 14  1  0  0  0  0
 12 16  1  0  0  0  0
 13 21  1  0  0  0  0
 14 22  1  0  0  0  0
 15 17  1  1  0  0  0
 15 19  1  0  0  0  0
 16 18  1  1  0  0  0
 16 20  1  0  0  0  0
 19 21  1  0  0  0  0
 20 22  1  0  0  0  0
 21 32  1  6  0  0  0
 22 42  1  6  0  0  0
 23 24  2  0  0  0  0
 23 28  1  0  0  0  0
 24 25  1  0  0  0  0
 25 26  2  0  0  0  0
 26 27  1  0  0  0  0
 26 32  1  0  0  0  0
 27 28  2  0  0  0  0
 27 30  1  0  0  0  0
 28 29  1  0  0  0  0
 30 31  2  0  0  0  0
 31 32  1  0  0  0  0
 33 34  2  0  0  0  0
 33 38  1  0  0  0  0
 34 35  1  0  0  0  0
 35 36  2  0  0  0  0
 36 37  1  0  0  0  0
 36 42  1  0  0  0  0
 37 38  2  0  0  0  0
 37 40  1  0  0  0  0
 38 39  1  0  0  0  0
 40 41  2  0  0  0  0
 41 42  1  0  0  0  0
M  CHG  2   3  -1   4  -1
M  END
>  <CHROM.1>
58.64131235,75.25314451,-17.71682328,-25.25530156,-3.28482451,2.97010645
0.48656534,-2.55855723

>  <Name>
ligand

>  <RI>
0

>  <Rbt.Current_Directory>
/home/itssahil/PROJECTS/Mol_Feturizer/New_Systems/rnas/4QLN

>  <Rbt.Executable>
rbdock ($Id: //depot/dev/client3/rdock/2013.1/src/exe/rbdock.cxx#4 $)

>  <Rbt.Library>
libRbt.so (2013.1, Build901 2013/11/27)

>  <Rbt.Parameter_File>
/export/apps/rDock/src/rDock_2013.1_src/data/scripts/dock_solv.prm

>  <Rbt.Receptor>
prm/blind_docking_100.prm

>  <SCORE>
-9.04619

>  <SCORE.INTER>
-12.9043

>  <SCORE.INTER.CONST>
1

>  <SCORE.INTER.POLAR>
0

>  <SCORE.INTER.ROT>
2

>  <SCORE.INTER.SOLV>
30.2664

>  <SCORE.INTER.VDW>
-23.625

>  <SCORE.INTER.norm>
-0.307245

>  <SCORE.INTRA>
1.34829

>  <SCORE.INTRA.DIHEDRAL>
0.000669537

>  <SCORE.INTRA.DIHEDRAL.0>
2.39985

>  <SCORE.INTRA.POLAR>
0

>  <SCORE.INTRA.POLAR.0>
0

>  <SCORE.INTRA.REPUL>
0

>  <SCORE.INTRA.REPUL.0>
0

>  <SCORE.INTRA.SOLV>
1.15425

>  <SCORE.INTRA.SOLV.lig_0>
-110.958

>  <SCORE.INTRA.VDW>
0.770834

>  <SCORE.INTRA.VDW.0>
-2.34644

>  <SCORE.INTRA.norm>
0.0321022

>  <SCORE.RESTR>
2.5098

>  <SCORE.RESTR.CAVITY>
2.5098

>  <SCORE.RESTR.norm>
0.0597572

>  <SCORE.SYSTEM>
0

>  <SCORE.SYSTEM.CONST>
0

>  <SCORE.SYSTEM.DIHEDRAL>
0

>  <SCORE.SYSTEM.SOLV>
0

>  <SCORE.SYSTEM.norm>
0

>  <SCORE.heavy>
42

>  <SCORE.norm>
-0.215385

>  <RMSD>
28.288

$$$$
ligand
 OpenBabel11021811513D
libRbt.so/2013.1/901 2013/11/27
 42 48  0  0  0  0  0  0  0  0999 V2000
  -17.4347  -21.9696   -3.4164 P   0  0  2  0  0  0  0  0  0  0  0  0
  -18.2422  -26.1450   -0.6909 P   0  0  1  0  0  0  0  0  0  0  0  0
  -18.1800  -20.7074   -3.0500 O   0  5  0  0  0  0  0  0  0  0  0  0
  -17.5273  -26.7068   -1.8966 O   0  5  0  0  0  0  0  0  0  0  0  0
  -16.7448  -22.0749   -4.7554 O   0  0  0  0  0  0  0  0  0  0  0  0
  -18.4376  -27.0018    0.5368 O   0  0  0  0  0  0  0  0  0  0  0  0
  -19.8357  -23.0521   -3.5591 C   0  0  0  0  0  0  0  0  0  0  0  0
  -16.1196  -24.8152    0.1337 C   0  0  0  0  0  0  0  0  0  0  0  0
  -18.4476  -23.2123   -3.2721 O   0  0  0  0  0  0  0  0  0  0  0  0
  -17.4935  -24.7905   -0.2467 O   0  0  0  0  0  0  0  0  0  0  0  0
  -20.6469  -24.0089   -2.6937 C   0  0  1  0  0  0  0  0  0  0  0  0
  -15.3620  -23.7287   -0.6191 C   0  0  1  0  0  0  0  0  0  0  0  0
  -21.9179  -24.2507   -3.3033 O   0  0  0  0  0  0  0  0  0  0  0  0
  -13.9735  -24.0633   -0.6810 O   0  0  0  0  0  0  0  0  0  0  0  0
  -19.9420  -25.3463   -2.5416 C   0  0  1  0  0  0  0  0  0  0  0  0
  -15.8701  -23.5885   -2.0452 C   0  0  1  0  0  0  0  0  0  0  0  0
  -19.6851  -25.6096   -1.1656 O   0  0  0  0  0  0  0  0  0  0  0  0
  -16.3493  -22.2652   -2.2651 O   0  0  0  0  0  0  0  0  0  0  0  0
  -20.8836  -26.3945   -3.1047 C   0  0  0  0  0  0  0  0  0  0  0  0
  -14.6879  -23.8709   -2.9520 C   0  0  0  0  0  0  0  0  0  0  0  0
  -22.1185  -25.6404   -3.5751 C   0  0  2  0  0  0  0  0  0  0  0  0
  -13.5136  -24.1688   -2.0306 C   0  0  2  0  0  0  0  0  0  0  0  0
  -20.0323  -25.0847   -8.3623 N   0  0  0  0  0  0  0  0  0  0  0  0
  -19.5333  -24.7601   -7.1552 C   0  0  0  0  0  0  0  0  0  0  0  0
  -20.1879  -24.9619   -5.9968 N   0  0  0  0  0  0  0  0  0  0  0  0
  -21.4218  -25.5206   -5.9838 C   0  0  0  0  0  0  0  0  0  0  0  0
  -22.0358  -25.9038   -7.2648 C   0  0  0  0  0  0  0  0  0  0  0  0
  -21.2531  -25.6493   -8.4975 C   0  0  0  0  0  0  0  0  0  0  0  0
  -21.7442  -25.9724   -9.7182 N   0  0  0  0  0  0  0  0  0  0  0  0
  -23.2412  -26.4267   -6.9716 N   0  0  0  0  0  0  0  0  0  0  0  0
  -23.3875  -26.3825   -5.6226 C   0  0  0  0  0  0  0  0  0  0  0  0
  -22.3030  -25.8428   -5.0336 N   0  0  0  0  0  0  0  0  0  0  0  0
  -14.7907  -29.1780   -2.9521 N   0  0  0  0  0  0  0  0  0  0  0  0
  -15.5777  -28.1042   -2.7551 C   0  0  0  0  0  0  0  0  0  0  0  0
  -15.1076  -26.8646   -2.5270 N   0  0  0  0  0  0  0  0  0  0  0  0
  -13.7747  -26.6250   -2.4823 C   0  0  0  0  0  0  0  0  0  0  0  0
  -12.8484  -27.7490   -2.6887 C   0  0  0  0  0  0  0  0  0  0  0  0
  -13.4436  -29.0838   -2.9347 C   0  0  0  0  0  0  0  0  0  0  0  0
  -12.6615  -30.1729   -3.1352 N   0  0  0  0  0  0  0  0  0  0  0  0
  -11.6042  -27.2430   -2.5959 N   0  0  0  0  0  0  0  0  0  0  0  0
  -11.7234  -25.9126   -2.3513 C   0  0  0  0  0  0  0  0  0  0  0  0
  -13.0160  -25.5445   -2.2835 N   0  0  0  0  0  0  0  0  0  0  0  0
  1  3  1  1  0  0  0
  1  5  2  0  0  0  0
  1  9  1  0  0  0  0
  1 18  1  0  0  0  0
  2  4  1  6  0  0  0
  2  6  2  0  0  0  0
  2 10  1  0  0  0  0
  2 17  1  0  0  0  0
  7  9  1  0  0  0  0
  8 10  1  0  0  0  0
 11  7  1  6  0  0  0
 11 13  1  0  0  0  0
 11 15  1  0  0  0  0
 12  8  1  6  0  0  0
 12 14  1  0  0  0  0
 12 16  1  0  0  0  0
 13 21  1  0  0  0  0
 14 22  1  0  0  0  0
 15 17  1  1  0  0  0
 15 19  1  0  0  0  0
 16 18  1  1  0  0  0
 16 20  1  0  0  0  0
 19 21  1  0  0  0  0
 20 22  1  0  0  0  0
 21 32  1  6  0  0  0
 22 42  1  6  0  0  0
 23 24  2  0  0  0  0
 23 28  1  0  0  0  0
 24 25  1  0  0  0  0
 25 26  2  0  0  0  0
 26 27  1  0  0  0  0
 26 32  1  0  0  0  0
 27 28  2  0  0  0  0
 27 30  1  0  0  0  0
 28 29  1  0  0  0  0
 30 31  2  0  0  0  0
 31 32  1  0  0  0  0
 33 34  2  0  0  0  0
 33 38  1  0  0  0  0
 34 35  1  0  0  0  0
 35 36  2  0  0  0  0
 36 37  1  0  0  0  0
 36 42  1  0  0  0  0
 37 38  2  0  0  0  0
 37 40  1  0  0  0  0
 38 39  1  0  0  0  0
 40 41  2  0  0  0  0
 41 42  1  0  0  0  0
M  CHG  2   3  -1   4  -1
M  END
>  <CHROM.1>
59.43285219,76.40486028,-17.71100539,-25.24530100,-3.28611765,2.97426085
0.47982476,-2.55461842

>  <Name>
ligand

>  <RI>
0

>  <Rbt.Current_Directory>
/home/itssahil/PROJECTS/Mol_Feturizer/New_Systems/rnas/4QLN

>  <Rbt.Executable>
rbdock ($Id: //depot/dev/client3/rdock/2013.1/src/exe/rbdock.cxx#4 $)

>  <Rbt.Library>
libRbt.so (2013.1, Build901 2013/11/27)

>  <Rbt.Parameter_File>
/export/apps/rDock/src/rDock_2013.1_src/data/scripts/dock_solv.prm

>  <Rbt.Receptor>
prm/blind_docking_100.prm

>  <SCORE>
-9.26845

>  <SCORE.INTER>
-13.0783

>  <SCORE.INTER.CONST>
1

>  <SCORE.INTER.POLAR>
0

>  <SCORE.INTER.ROT>
2

>  <SCORE.INTER.SOLV>
30.3528

>  <SCORE.INTER.VDW>
-23.7698

>  <SCORE.INTER.norm>
-0.311387

>  <SCORE.INTRA>
1.25559

>  <SCORE.INTRA.DIHEDRAL>
0.000711046

>  <SCORE.INTRA.DIHEDRAL.0>
2.39985

>  <SCORE.INTRA.POLAR>
0

>  <SCORE.INTRA.POLAR.0>
0

>  <SCORE.INTRA.REPUL>
0

>  <SCORE.INTRA.REPUL.0>
0

>  <SCORE.INTRA.SOLV>
1.13045

>  <SCORE.INTRA.SOLV.lig_0>
-110.958

>  <SCORE.INTRA.VDW>
0.690014

>  <SCORE.INTRA.VDW.0>
-2.34644

>  <SCORE.INTRA.norm>
0.0298951

>  <SCORE.RESTR>
2.55421

>  <SCORE.RESTR.CAVITY>
2.55421

>  <SCORE.RESTR.norm>
0.0608145

>  <SCORE.SYSTEM>
0

>  <SCORE.SYSTEM.CONST>
0

>  <SCORE.SYSTEM.DIHEDRAL>
0

>  <SCORE.SYSTEM.SOLV>
0

>  <SCORE.SYSTEM.norm>
0

>  <SCORE.heavy>
42

>  <SCORE.norm>
-0.220677

>  <RMSD>
28.290

$$$$
ligand
 OpenBabel11021811513D
libRbt.so/2013.1/901 2013/11/27
 42 48  0  0  0  0  0  0  0  0999 V2000
  -17.3914  -22.0471   -3.4607 P   0  0  2  0  0  0  0  0  0  0  0  0
  -18.2442  -26.2076   -0.7262 P   0  0  1  0  0  0  0  0  0  0  0  0
  -18.0727  -20.7602   -3.0572 O   0  5  0  0  0  0  0  0  0  0  0  0
  -17.6013  -26.7877   -1.9633 O   0  5  0  0  0  0  0  0  0  0  0  0
  -16.7616  -22.1692   -4.8276 O   0  0  0  0  0  0  0  0  0  0  0  0
  -18.4214  -27.0647    0.5040 O   0  0  0  0  0  0  0  0  0  0  0  0
  -19.8356  -23.0372   -3.5099 C   0  0  0  0  0  0  0  0  0  0  0  0
  -16.0406  -24.9644    0.0170 C   0  0  0  0  0  0  0  0  0  0  0  0
  -18.4439  -23.2516   -3.2812 O   0  0  0  0  0  0  0  0  0  0  0  0
  -17.4270  -24.8853   -0.3062 O   0  0  0  0  0  0  0  0  0  0  0  0
  -20.6463  -23.9687   -2.6167 C   0  0  1  0  0  0  0  0  0  0  0  0
  -15.2739  -23.9021   -0.7607 C   0  0  1  0  0  0  0  0  0  0  0  0
  -21.9495  -24.1583   -3.1746 O   0  0  0  0  0  0  0  0  0  0  0  0
  -13.9028  -24.2884   -0.8816 O   0  0  0  0  0  0  0  0  0  0  0  0
  -19.9870  -25.3327   -2.5010 C   0  0  1  0  0  0  0  0  0  0  0  0
  -15.8344  -23.7332   -2.1639 C   0  0  1  0  0  0  0  0  0  0  0  0
  -19.6840  -25.6150   -1.1381 O   0  0  0  0  0  0  0  0  0  0  0  0
  -16.2717  -22.3912   -2.3568 O   0  0  0  0  0  0  0  0  0  0  0  0
  -20.9901  -26.3408   -3.0301 C   0  0  0  0  0  0  0  0  0  0  0  0
  -14.7020  -24.0537   -3.1202 C   0  0  0  0  0  0  0  0  0  0  0  0
  -22.2137  -25.5375   -3.4452 C   0  0  2  0  0  0  0  0  0  0  0  0
  -13.5030  -24.4019   -2.2496 C   0  0  2  0  0  0  0  0  0  0  0  0
  -21.5952  -23.5687   -8.2742 N   0  0  0  0  0  0  0  0  0  0  0  0
  -21.2010  -23.0836   -7.0823 C   0  0  0  0  0  0  0  0  0  0  0  0
  -21.4314  -23.7030   -5.9100 N   0  0  0  0  0  0  0  0  0  0  0  0
  -22.0921  -24.8847   -5.8660 C   0  0  0  0  0  0  0  0  0  0  0  0
  -22.5554  -25.4807   -7.1289 C   0  0  0  0  0  0  0  0  0  0  0  0
  -22.2645  -24.7386   -8.3786 C   0  0  0  0  0  0  0  0  0  0  0  0
  -22.6554  -25.2169   -9.5844 N   0  0  0  0  0  0  0  0  0  0  0  0
  -23.1716  -26.6333   -6.8062 N   0  0  0  0  0  0  0  0  0  0  0  0
  -23.1091  -26.7649   -5.4564 C   0  0  0  0  0  0  0  0  0  0  0  0
  -22.4655  -25.7228   -4.8959 N   0  0  0  0  0  0  0  0  0  0  0  0
  -11.1641  -28.7126   -0.3733 N   0  0  0  0  0  0  0  0  0  0  0  0
  -11.4056  -27.5287    0.2196 C   0  0  0  0  0  0  0  0  0  0  0  0
  -12.0221  -26.4997   -0.3893 N   0  0  0  0  0  0  0  0  0  0  0  0
  -12.4457  -26.6050   -1.6720 C   0  0  0  0  0  0  0  0  0  0  0  0
  -12.2183  -27.8695   -2.3887 C   0  0  0  0  0  0  0  0  0  0  0  0
  -11.5329  -28.9558   -1.6495 C   0  0  0  0  0  0  0  0  0  0  0  0
  -11.2846  -30.1529   -2.2354 N   0  0  0  0  0  0  0  0  0  0  0  0
  -12.7286  -27.7076   -3.6241 N   0  0  0  0  0  0  0  0  0  0  0  0
  -13.2374  -26.4504   -3.6925 C   0  0  0  0  0  0  0  0  0  0  0  0
  -13.0688  -25.7936   -2.5300 N   0  0  0  0  0  0  0  0  0  0  0  0
  1  3  1  1  0  0  0
  1  5  2  0  0  0  0
  1  9  1  0  0  0  0
  1 18  1  0  0  0  0
  2  4  1  6  0  0  0
  2  6  2  0  0  0  0
  2 10  1  0  0  0  0
  2 17  1  0  0  0  0
  7  9  1  0  0  0  0
  8 10  1  0  0  0  0
 11  7  1  6  0  0  0
 11 13  1  0  0  0  0
 11 15  1  0  0  0  0
 12  8  1  6  0  0  0
 12 14  1  0  0  0  0
 12 16  1  0  0  0  0
 13 21  1  0  0  0  0
 14 22  1  0  0  0  0
 15 17  1  1  0  0  0
 15 19  1  0  0  0  0
 16 18  1  1  0  0  0
 16 20  1  0  0  0  0
 19 21  1  0  0  0  0
 20 22  1  0  0  0  0
 21 32  1  6  0  0  0
 22 42  1  6  0  0  0
 23 24  2  0  0  0  0
 23 28  1  0  0  0  0
 24 25  1  0  0  0  0
 25 26  2  0  0  0  0
 26 27  1  0  0  0  0
 26 32  1  0  0  0  0
 27 28  2  0  0  0  0
 27 30  1  0  0  0  0
 28 29  1  0  0  0  0
 30 31  2  0  0  0  0
 31 32  1  0  0  0  0
 33 34  2  0  0  0  0
 33 38  1  0  0  0  0
 34 35  1  0  0  0  0
 35 36  2  0  0  0  0
 36 37  1  0  0  0  0
 36 42  1  0  0  0  0
 37 38  2  0  0  0  0
 37 40  1  0  0  0  0
 38 39  1  0  0  0  0
 40 41  2  0  0  0  0
 41 42  1  0  0  0  0
M  CHG  2   3  -1   4  -1
M  END
>  <CHROM.1>
20.36833143,-33.99928432,-17.57653664,-25.13831256,-3.10564794,-2.98855858
0.48888828,-3.00910803

>  <Name>
ligand

>  <RI>
0

>  <Rbt.Current_Directory>
/home/itssahil/PROJECTS/Mol_Feturizer/New_Systems/rnas/4QLN

>  <Rbt.Executable>
rbdock ($Id: //depot/dev/client3/rdock/2013.1/src/exe/rbdock.cxx#4 $)

>  <Rbt.Library>
libRbt.so (2013.1, Build901 2013/11/27)

>  <Rbt.Parameter_File>
/export/apps/rDock/src/rDock_2013.1_src/data/scripts/dock_solv.prm

>  <Rbt.Receptor>
prm/blind_docking_100.prm

>  <SCORE>
-10.0623

>  <SCORE.INTER>
-12.6369

>  <SCORE.INTER.CONST>
1

>  <SCORE.INTER.POLAR>
0

>  <SCORE.INTER.ROT>
2

>  <SCORE.INTER.SOLV>
25.6698

>  <SCORE.INTER.VDW>
-21.9145

>  <SCORE.INTER.norm>
-0.300878

>  <SCORE.INTRA>
1.00708

>  <SCORE.INTRA.DIHEDRAL>
0.000656355

>  <SCORE.INTRA.DIHEDRAL.0>
2.39985

>  <SCORE.INTRA.POLAR>
0

>  <SCORE.INTRA.POLAR.0>
0

>  <SCORE.INTRA.REPUL>
0

>  <SCORE.INTRA.REPUL.0>
0

>  <SCORE.INTRA.SOLV>
-0.011124

>  <SCORE.INTRA.SOLV.lig_0>
-110.958

>  <SCORE.INTRA.VDW>
1.01232

>  <SCORE.INTRA.VDW.0>
-2.34644

>  <SCORE.INTRA.norm>
0.0239782

>  <SCORE.RESTR>
1.56754

>  <SCORE.RESTR.CAVITY>
1.56754

>  <SCORE.RESTR.norm>
0.0373223

>  <SCORE.SYSTEM>
0

>  <SCORE.SYSTEM.CONST>
0

>  <SCORE.SYSTEM.DIHEDRAL>
0

>  <SCORE.SYSTEM.SOLV>
0

>  <SCORE.SYSTEM.norm>
0

>  <SCORE.heavy>
42

>  <SCORE.norm>
-0.239577

>  <RMSD>
28.296

$$$$
ligand
 OpenBabel11021811513D
libRbt.so/2013.1/901 2013/11/27
 42 48  0  0  0  0  0  0  0  0999 V2000
  -17.5039  -22.0691   -3.4594 P   0  0  2  0  0  0  0  0  0  0  0  0
  -18.2623  -26.2244   -0.6896 P   0  0  1  0  0  0  0  0  0  0  0  0
  -18.1864  -20.7859   -3.0461 O   0  5  0  0  0  0  0  0  0  0  0  0
  -17.6424  -26.8047   -1.9383 O   0  5  0  0  0  0  0  0  0  0  0  0
  -16.9036  -22.1919   -4.8394 O   0  0  0  0  0  0  0  0  0  0  0  0
  -18.4053  -27.0777    0.5478 O   0  0  0  0  0  0  0  0  0  0  0  0
  -19.9406  -23.0788   -3.4502 C   0  0  0  0  0  0  0  0  0  0  0  0
  -16.0529  -24.9606   -0.0007 C   0  0  0  0  0  0  0  0  0  0  0  0
  -18.5425  -23.2811   -3.2516 O   0  0  0  0  0  0  0  0  0  0  0  0
  -17.4467  -24.8940   -0.2932 O   0  0  0  0  0  0  0  0  0  0  0  0
  -20.7237  -24.0129   -2.5354 C   0  0  1  0  0  0  0  0  0  0  0  0
  -15.3122  -23.8957   -0.7995 C   0  0  1  0  0  0  0  0  0  0  0  0
  -22.0374  -24.2151   -3.0634 O   0  0  0  0  0  0  0  0  0  0  0  0
  -13.9410  -24.2716   -0.9493 O   0  0  0  0  0  0  0  0  0  0  0  0
  -20.0511  -25.3710   -2.4287 C   0  0  1  0  0  0  0  0  0  0  0  0
  -15.9050  -23.7372   -2.1906 C   0  0  1  0  0  0  0  0  0  0  0  0
  -19.7156  -25.6451   -1.0718 O   0  0  0  0  0  0  0  0  0  0  0  0
  -16.3572  -22.3996   -2.3792 O   0  0  0  0  0  0  0  0  0  0  0  0
  -21.0576  -26.3893   -2.9314 C   0  0  0  0  0  0  0  0  0  0  0  0
  -14.7916  -24.0527   -3.1705 C   0  0  0  0  0  0  0  0  0  0  0  0
  -22.2965  -25.5975   -3.3224 C   0  0  2  0  0  0  0  0  0  0  0  0
  -13.5708  -24.3878   -2.3254 C   0  0  2  0  0  0  0  0  0  0  0  0
  -21.2574  -24.0324   -8.2263 N   0  0  0  0  0  0  0  0  0  0  0  0
  -20.7708  -23.5890   -7.0525 C   0  0  0  0  0  0  0  0  0  0  0  0
  -21.1318  -24.0897   -5.8566 N   0  0  0  0  0  0  0  0  0  0  0  0
  -22.0315  -25.0984   -5.7682 C   0  0  0  0  0  0  0  0  0  0  0  0
  -22.6094  -25.6384   -7.0089 C   0  0  0  0  0  0  0  0  0  0  0  0
  -22.1627  -25.0345   -8.2867 C   0  0  0  0  0  0  0  0  0  0  0  0
  -22.6445  -25.4728   -9.4747 N   0  0  0  0  0  0  0  0  0  0  0  0
  -23.4600  -26.6155   -6.6427 N   0  0  0  0  0  0  0  0  0  0  0  0
  -23.4305  -26.6950   -5.2878 C   0  0  0  0  0  0  0  0  0  0  0  0
  -22.5789  -25.7910   -4.7663 N   0  0  0  0  0  0  0  0  0  0  0  0
  -11.1891  -28.6846   -0.4714 N   0  0  0  0  0  0  0  0  0  0  0  0
  -11.4311  -27.5018    0.1235 C   0  0  0  0  0  0  0  0  0  0  0  0
  -12.0594  -26.4765   -0.4795 N   0  0  0  0  0  0  0  0  0  0  0  0
  -12.4955  -26.5847   -1.7578 C   0  0  0  0  0  0  0  0  0  0  0  0
  -12.2684  -27.8482   -2.4762 C   0  0  0  0  0  0  0  0  0  0  0  0
  -11.5695  -28.9304   -1.7437 C   0  0  0  0  0  0  0  0  0  0  0  0
  -11.3206  -30.1263   -2.3317 N   0  0  0  0  0  0  0  0  0  0  0  0
  -12.7922  -27.6896   -3.7064 N   0  0  0  0  0  0  0  0  0  0  0  0
  -13.3085  -26.4353   -3.7701 C   0  0  0  0  0  0  0  0  0  0  0  0
  -13.1317  -25.7772   -2.6097 N   0  0  0  0  0  0  0  0  0  0  0  0
  1  3  1  1  0  0  0
  1  5  2  0  0  0  0
  1  9  1  0  0  0  0
  1 18  1  0  0  0  0
  2  4  1  6  0  0  0
  2  6  2  0  0  0  0
  2 10  1  0  0  0  0
  2 17  1  0  0  0  0
  7  9  1  0  0  0  0
  8 10  1  0  0  0  0
 11  7  1  6  0  0  0
 11 13  1  0  0  0  0
 11 15  1  0  0  0  0
 12  8  1  1  0  0  0
 12 14  1  0  0  0  0
 12 16  1  0  0  0  0
 13 21  1  0  0  0  0
 14 22  1  0  0  0  0
 15 17  1  1  0  0  0
 15 19  1  0  0  0  0
 16 18  1  6  0  0  0
 16 20  1  0  0  0  0
 19 21  1  0  0  0  0
 20 22  1  0  0  0  0
 21 32  1  6  0  0  0
 22 42  1  1  0  0  0
 23 24  2  0  0  0  0
 23 28  1  0  0  0  0
 24 25  1  0  0  0  0
 25 26  2  0  0  0  0
 26 27  1  0  0  0  0
 26 32  1  0  0  0  0
 27 28  2  0  0  0  0
 27 30  1  0  0  0  0
 28 29  1  0  0  0  0
 30 31  2  0  0  0  0
 31 32  1  0  0  0  0
 33 34  2  0  0  0  0
 33 38  1  0  0  0  0
 34 35  1  0  0  0  0
 35 36  2  0  0  0  0
 36 37  1  0  0  0  0
 36 42  1  0  0  0  0
 37 38  2  0  0  0  0
 37 40  1  0  0  0  0
 38 39  1  0  0  0  0
 40 41  2  0  0  0  0
 41 42  1  0  0  0  0
M  CHG  2   3  -1   4  -1
M  END
>  <CHROM.1>
33.58032660,-33.26310444,-17.61430187,-25.19303356,-3.09108165,-3.08762362
0.48294773,-2.82864200

>  <Name>
ligand

>  <RI>
0

>  <Rbt.Current_Directory>
/home/itssahil/PROJECTS/Mol_Feturizer/New_Systems/rnas/4QLN

>  <Rbt.Executable>
rbdock ($Id: //depot/dev/client3/rdock/2013.1/src/exe/rbdock.cxx#4 $)

>  <Rbt.Library>
libRbt.so (2013.1, Build901 2013/11/27)

>  <Rbt.Parameter_File>
/export/apps/rDock/src/rDock_2013.1_src/data/scripts/dock_solv.prm

>  <Rbt.Receptor>
prm/blind_docking_100.prm

>  <SCORE>
-10.2539

>  <SCORE.INTER>
-12.8901

>  <SCORE.INTER.CONST>
1

>  <SCORE.INTER.POLAR>
0

>  <SCORE.INTER.ROT>
2

>  <SCORE.INTER.SOLV>
26.6208

>  <SCORE.INTER.VDW>
-22.4003

>  <SCORE.INTER.norm>
-0.306907

>  <SCORE.INTRA>
0.88914

>  <SCORE.INTRA.DIHEDRAL>
0.00063383

>  <SCORE.INTRA.DIHEDRAL.0>
2.39985

>  <SCORE.INTRA.POLAR>
0

>  <SCORE.INTRA.POLAR.0>
0

>  <SCORE.INTRA.REPUL>
0

>  <SCORE.INTRA.REPUL.0>
0

>  <SCORE.INTRA.SOLV>
-0.0169484

>  <SCORE.INTRA.SOLV.lig_0>
-110.958

>  <SCORE.INTRA.VDW>
0.897297

>  <SCORE.INTRA.VDW.0>
-2.34644

>  <SCORE.INTRA.norm>
0.02117

>  <SCORE.RESTR>
1.74709

>  <SCORE.RESTR.CAVITY>
1.74709

>  <SCORE.RESTR.norm>
0.0415975

>  <SCORE.SYSTEM>
0

>  <SCORE.SYSTEM.CONST>
0

>  <SCORE.SYSTEM.DIHEDRAL>
0

>  <SCORE.SYSTEM.SOLV>
0

>  <SCORE.SYSTEM.norm>
0

>  <SCORE.heavy>
42

>  <SCORE.norm>
-0.244139

>  <RMSD>
28.309

$$$$
ligand
 OpenBabel11021811513D
libRbt.so/2013.1/901 2013/11/27
 42 48  0  0  0  0  0  0  0  0999 V2000
  -19.2645  -26.3108   -0.5075 P   0  0  2  0  0  0  0  0  0  0  0  0
  -17.1227  -22.5068   -3.0485 P   0  0  1  0  0  0  0  0  0  0  0  0
  -19.3301  -26.2316    0.9999 O   0  5  0  0  0  0  0  0  0  0  0  0
  -17.1943  -23.5761   -4.1124 O   0  5  0  0  0  0  0  0  0  0  0  0
  -19.5097  -27.6281   -1.2037 O   0  0  0  0  0  0  0  0  0  0  0  0
  -16.8012  -21.0823   -3.4317 O   0  0  0  0  0  0  0  0  0  0  0  0
  -16.6743  -25.9467   -0.1677 C   0  0  0  0  0  0  0  0  0  0  0  0
  -19.7444  -22.2585   -2.9113 C   0  0  0  0  0  0  0  0  0  0  0  0
  -17.8311  -25.7505   -0.9791 O   0  0  0  0  0  0  0  0  0  0  0  0
  -18.5134  -22.5092   -2.2370 O   0  0  0  0  0  0  0  0  0  0  0  0
  -15.7057  -24.7887   -0.3762 C   0  0  1  0  0  0  0  0  0  0  0  0
  -20.7553  -23.3383   -2.5464 C   0  0  1  0  0  0  0  0  0  0  0  0
  -14.3823  -25.1971   -0.0193 O   0  0  0  0  0  0  0  0  0  0  0  0
  -21.7524  -23.4303   -3.5667 O   0  0  0  0  0  0  0  0  0  0  0  0
  -15.6801  -24.3468   -1.8297 C   0  0  1  0  0  0  0  0  0  0  0  0
  -20.0890  -24.6995   -2.4239 C   0  0  1  0  0  0  0  0  0  0  0  0
  -16.0630  -22.9787   -1.9313 O   0  0  0  0  0  0  0  0  0  0  0  0
  -20.2841  -25.2226   -1.1134 O   0  0  0  0  0  0  0  0  0  0  0  0
  -14.2506  -24.5235   -2.3071 C   0  0  0  0  0  0  0  0  0  0  0  0
  -20.7564  -25.5980   -3.4471 C   0  0  0  0  0  0  0  0  0  0  0  0
  -13.4747  -25.0681   -1.1170 C   0  0  2  0  0  0  0  0  0  0  0  0
  -21.8008  -24.7375   -4.1439 C   0  0  2  0  0  0  0  0  0  0  0  0
  -10.1242  -28.8691    0.2633 N   0  0  0  0  0  0  0  0  0  0  0  0
  -10.4019  -27.6970    0.8636 C   0  0  0  0  0  0  0  0  0  0  0  0
  -11.2951  -26.8082    0.3909 N   0  0  0  0  0  0  0  0  0  0  0  0
  -11.9840  -27.0541   -0.7491 C   0  0  0  0  0  0  0  0  0  0  0  0
  -11.7364  -28.3158   -1.4643 C   0  0  0  0  0  0  0  0  0  0  0  0
  -10.7376  -29.2434   -0.8818 C   0  0  0  0  0  0  0  0  0  0  0  0
  -10.4501  -30.4264   -1.4763 N   0  0  0  0  0  0  0  0  0  0  0  0
  -12.5379  -28.3079   -2.5458 N   0  0  0  0  0  0  0  0  0  0  0  0
  -13.2373  -27.1444   -2.5262 C   0  0  0  0  0  0  0  0  0  0  0  0
  -12.9075  -26.3971   -1.4553 N   0  0  0  0  0  0  0  0  0  0  0  0
  -23.3789  -25.8953   -9.0164 N   0  0  0  0  0  0  0  0  0  0  0  0
  -23.9658  -26.1469   -7.8316 C   0  0  0  0  0  0  0  0  0  0  0  0
  -23.4408  -25.7878   -6.6462 N   0  0  0  0  0  0  0  0  0  0  0  0
  -22.2563  -25.1331   -6.5813 C   0  0  0  0  0  0  0  0  0  0  0  0
  -21.5528  -24.8213   -7.8351 C   0  0  0  0  0  0  0  0  0  0  0  0
  -22.1957  -25.2497   -9.0998 C   0  0  0  0  0  0  0  0  0  0  0  0
  -21.6150  -25.0015  -10.2995 N   0  0  0  0  0  0  0  0  0  0  0  0
  -20.4213  -24.1781   -7.4905 N   0  0  0  0  0  0  0  0  0  0  0  0
  -20.4018  -24.0866   -6.1358 C   0  0  0  0  0  0  0  0  0  0  0  0
  -21.4945  -24.6555   -5.5943 N   0  0  0  0  0  0  0  0  0  0  0  0
  1  3  1  1  0  0  0
  1  5  2  0  0  0  0
  1  9  1  0  0  0  0
  1 18  1  0  0  0  0
  2  4  1  6  0  0  0
  2  6  2  0  0  0  0
  2 10  1  0  0  0  0
  2 17  1  0  0  0  0
  7  9  1  0  0  0  0
  8 10  1  0  0  0  0
 11  7  1  6  0  0  0
 11 13  1  0  0  0  0
 11 15  1  0  0  0  0
 12  8  1  6  0  0  0
 12 14  1  0  0  0  0
 12 16  1  0  0  0  0
 13 21  1  0  0  0  0
 14 22  1  0  0  0  0
 15 17  1  1  0  0  0
 15 19  1  0  0  0  0
 16 18  1  1  0  0  0
 16 20  1  0  0  0  0
 19 21  1  0  0  0  0
 20 22  1  0  0  0  0
 21 32  1  6  0  0  0
 22 42  1  6  0  0  0
 23 24  2  0  0  0  0
 23 28  1  0  0  0  0
 24 25  1  0  0  0  0
 25 26  2  0  0  0  0
 26 27  1  0  0  0  0
 26 32  1  0  0  0  0
 27 28  2  0  0  0  0
 27 30  1  0  0  0  0
 28 29  1  0  0  0  0
 30 31  2  0  0  0  0
 31 32  1  0  0  0  0
 33 34  2  0  0  0  0
 33 38  1  0  0  0  0
 34 35  1  0  0  0  0
 35 36  2  0  0  0  0
 36 37  1  0  0  0  0
 36 42  1  0  0  0  0
 37 38  2  0  0  0  0
 37 40  1  0  0  0  0
 38 39  1  0  0  0  0
 40 41  2  0  0  0  0
 41 42  1  0  0  0  0
M  CHG  2   3  -1   4  -1
M  END
>  <CHROM.1>
-74.19106375,-125.88946845,-17.53406784,-25.33396693,-2.91933428,2.77914428
0.46493914,-2.01739349

>  <Name>
ligand

>  <RI>
0

>  <Rbt.Current_Directory>
/home/itssahil/PROJECTS/Mol_Feturizer/New_Systems/rnas/4QLN

>  <Rbt.Executable>
rbdock ($Id: //depot/dev/client3/rdock/2013.1/src/exe/rbdock.cxx#4 $)

>  <Rbt.Library>
libRbt.so (2013.1, Build901 2013/11/27)

>  <Rbt.Parameter_File>
/export/apps/rDock/src/rDock_2013.1_src/data/scripts/dock_solv.prm

>  <Rbt.Receptor>
prm/blind_docking_100.prm

>  <SCORE>
-6.49552

>  <SCORE.INTER>
-9.2857

>  <SCORE.INTER.CONST>
1

>  <SCORE.INTER.POLAR>
0

>  <SCORE.INTER.ROT>
2

>  <SCORE.INTER.SOLV>
29.9949

>  <SCORE.INTER.VDW>
-21.1221

>  <SCORE.INTER.norm>
-0.221088

>  <SCORE.INTRA>
1.52879

>  <SCORE.INTRA.DIHEDRAL>
0.000201223

>  <SCORE.INTRA.DIHEDRAL.0>
2.39985

>  <SCORE.INTRA.POLAR>
0

>  <SCORE.INTRA.POLAR.0>
0

>  <SCORE.INTRA.REPUL>
0

>  <SCORE.INTRA.REPUL.0>
0

>  <SCORE.INTRA.SOLV>
-0.0450946

>  <SCORE.INTRA.SOLV.lig_0>
-110.958

>  <SCORE.INTRA.VDW>
1.55123

>  <SCORE.INTRA.VDW.0>
-2.34644

>  <SCORE.INTRA.norm>
0.0363997

>  <SCORE.RESTR>
1.2614

>  <SCORE.RESTR.CAVITY>
1.2614

>  <SCORE.RESTR.norm>
0.0300333

>  <SCORE.SYSTEM>
0

>  <SCORE.SYSTEM.CONST>
0

>  <SCORE.SYSTEM.DIHEDRAL>
0

>  <SCORE.SYSTEM.SOLV>
0

>  <SCORE.SYSTEM.norm>
0

>  <SCORE.heavy>
42

>  <SCORE.norm>
-0.154655

>  <RMSD>
28.321

$$$$
ligand
 OpenBabel11021811513D
libRbt.so/2013.1/901 2013/11/27
 42 48  0  0  0  0  0  0  0  0999 V2000
  -17.4679  -22.0431   -3.4426 P   0  0  2  0  0  0  0  0  0  0  0  0
  -18.3025  -26.2271   -0.7385 P   0  0  1  0  0  0  0  0  0  0  0  0
  -18.1557  -20.7625   -3.0306 O   0  5  0  0  0  0  0  0  0  0  0  0
  -17.6558  -26.7952   -1.9792 O   0  5  0  0  0  0  0  0  0  0  0  0
  -16.8364  -22.1523   -4.8098 O   0  0  0  0  0  0  0  0  0  0  0  0
  -18.4765  -27.0938    0.4854 O   0  0  0  0  0  0  0  0  0  0  0  0
  -19.9072  -23.0448   -3.5009 C   0  0  0  0  0  0  0  0  0  0  0  0
  -16.1056  -24.9785    0.0153 C   0  0  0  0  0  0  0  0  0  0  0  0
  -18.5147  -23.2540   -3.2726 O   0  0  0  0  0  0  0  0  0  0  0  0
  -17.4921  -24.9039   -0.3084 O   0  0  0  0  0  0  0  0  0  0  0  0
  -20.7140  -23.9865   -2.6150 C   0  0  1  0  0  0  0  0  0  0  0  0
  -15.3435  -23.9070   -0.7542 C   0  0  1  0  0  0  0  0  0  0  0  0
  -22.0159  -24.1784   -3.1753 O   0  0  0  0  0  0  0  0  0  0  0  0
  -13.9704  -24.2857   -0.8768 O   0  0  0  0  0  0  0  0  0  0  0  0
  -20.0482  -25.3481   -2.5084 C   0  0  1  0  0  0  0  0  0  0  0  0
  -15.9037  -23.7308   -2.1566 C   0  0  1  0  0  0  0  0  0  0  0  0
  -19.7449  -25.6385   -1.1474 O   0  0  0  0  0  0  0  0  0  0  0  0
  -16.3473  -22.3897   -2.3403 O   0  0  0  0  0  0  0  0  0  0  0  0
  -21.0460  -26.3572   -3.0456 C   0  0  0  0  0  0  0  0  0  0  0  0
  -14.7690  -24.0389   -3.1143 C   0  0  0  0  0  0  0  0  0  0  0  0
  -22.2732  -25.5569   -3.4559 C   0  0  2  0  0  0  0  0  0  0  0  0
  -13.5690  -24.3876   -2.2452 C   0  0  2  0  0  0  0  0  0  0  0  0
  -21.5497  -23.6156   -8.2814 N   0  0  0  0  0  0  0  0  0  0  0  0
  -21.1445  -23.1455   -7.0873 C   0  0  0  0  0  0  0  0  0  0  0  0
  -21.4057  -23.7550   -5.9162 N   0  0  0  0  0  0  0  0  0  0  0  0
  -22.1116  -24.9105   -5.8761 C   0  0  0  0  0  0  0  0  0  0  0  0
  -22.5897  -25.4888   -7.1417 C   0  0  0  0  0  0  0  0  0  0  0  0
  -22.2628  -24.7590   -8.3897 C   0  0  0  0  0  0  0  0  0  0  0  0
  -22.6643  -25.2225   -9.5978 N   0  0  0  0  0  0  0  0  0  0  0  0
  -23.2516  -26.6168   -6.8225 N   0  0  0  0  0  0  0  0  0  0  0  0
  -23.2026  -26.7500   -5.4723 C   0  0  0  0  0  0  0  0  0  0  0  0
  -22.5229  -25.7331   -4.9080 N   0  0  0  0  0  0  0  0  0  0  0  0
  -11.1247  -28.6659   -0.4304 N   0  0  0  0  0  0  0  0  0  0  0  0
  -11.3613  -27.4830    0.1665 C   0  0  0  0  0  0  0  0  0  0  0  0
  -12.0079  -26.4629   -0.4258 N   0  0  0  0  0  0  0  0  0  0  0  0
  -12.4695  -26.5768   -1.6946 C   0  0  0  0  0  0  0  0  0  0  0  0
  -12.2498  -27.8407   -2.4146 C   0  0  0  0  0  0  0  0  0  0  0  0
  -11.5297  -28.9171   -1.6940 C   0  0  0  0  0  0  0  0  0  0  0  0
  -11.2860  -30.1130   -2.2842 N   0  0  0  0  0  0  0  0  0  0  0  0
  -12.7997  -27.6883   -3.6341 N   0  0  0  0  0  0  0  0  0  0  0  0
  -13.3245  -26.4372   -3.6902 C   0  0  0  0  0  0  0  0  0  0  0  0
  -13.1278  -25.7751   -2.5352 N   0  0  0  0  0  0  0  0  0  0  0  0
  1  3  1  1  0  0  0
  1  5  2  0  0  0  0
  1  9  1  0  0  0  0
  1 18  1  0  0  0  0
  2  4  1  6  0  0  0
  2  6  2  0  0  0  0
  2 10  1  0  0  0  0
  2 17  1  0  0  0  0
  7  9  1  0  0  0  0
  8 10  1  0  0  0  0
 11  7  1  6  0  0  0
 11 13  1  0  0  0  0
 11 15  1  0  0  0  0
 12  8  1  6  0  0  0
 12 14  1  0  0  0  0
 12 16  1  0  0  0  0
 13 21  1  0  0  0  0
 14 22  1  0  0  0  0
 15 17  1  1  0  0  0
 15 19  1  0  0  0  0
 16 18  1  1  0  0  0
 16 20  1  0  0  0  0
 19 21  1  0  0  0  0
 20 22  1  0  0  0  0
 21 32  1  6  0  0  0
 22 42  1  6  0  0  0
 23 24  2  0  0  0  0
 23 28  1  0  0  0  0
 24 25  1  0  0  0  0
 25 26  2  0  0  0  0
 26 27  1  0  0  0  0
 26 32  1  0  0  0  0
 27 28  2  0  0  0  0
 27 30  1  0  0  0  0
 28 29  1  0  0  0  0
 30 31  2  0  0  0  0
 31 32  1  0  0  0  0
 33 34  2  0  0  0  0
 33 38  1  0  0  0  0
 34 35  1  0  0  0  0
 35 36  2  0  0  0  0
 36 37  1  0  0  0  0
 36 42  1  0  0  0  0
 37 38  2  0  0  0  0
 37 40  1  0  0  0  0
 38 39  1  0  0  0  0
 40 41  2  0  0  0  0
 41 42  1  0  0  0  0
M  CHG  2   3  -1   4  -1
M  END
>  <CHROM.1>
22.90422941,-35.92944017,-17.62208269,-25.14015757,-3.11336087,-3.01968526
0.49197927,-2.95109299

>  <Name>
ligand

>  <RI>
0

>  <Rbt.Current_Directory>
/home/itssahil/PROJECTS/Mol_Feturizer/New_Systems/rnas/4QLN

>  <Rbt.Executable>
rbdock ($Id: //depot/dev/client3/rdock/2013.1/src/exe/rbdock.cxx#4 $)

>  <Rbt.Library>
libRbt.so (2013.1, Build901 2013/11/27)

>  <Rbt.Parameter_File>
/export/apps/rDock/src/rDock_2013.1_src/data/scripts/dock_solv.prm

>  <Rbt.Receptor>
prm/blind_docking_100.prm

>  <SCORE>
-9.9701

>  <SCORE.INTER>
-12.5985

>  <SCORE.INTER.CONST>
1

>  <SCORE.INTER.POLAR>
0

>  <SCORE.INTER.ROT>
2

>  <SCORE.INTER.SOLV>
25.8684

>  <SCORE.INTER.VDW>
-21.9552

>  <SCORE.INTER.norm>
-0.299965

>  <SCORE.INTRA>
1.04468

>  <SCORE.INTRA.DIHEDRAL>
0.000622045

>  <SCORE.INTRA.DIHEDRAL.0>
2.39985

>  <SCORE.INTRA.POLAR>
0

>  <SCORE.INTRA.POLAR.0>
0

>  <SCORE.INTRA.REPUL>
0

>  <SCORE.INTRA.REPUL.0>
0

>  <SCORE.INTRA.SOLV>
-0.0125533

>  <SCORE.INTRA.SOLV.lig_0>
-110.958

>  <SCORE.INTRA.VDW>
1.05064

>  <SCORE.INTRA.VDW.0>
-2.34644

>  <SCORE.INTRA.norm>
0.0248732

>  <SCORE.RESTR>
1.58377

>  <SCORE.RESTR.CAVITY>
1.58377

>  <SCORE.RESTR.norm>
0.0377087

>  <SCORE.SYSTEM>
0

>  <SCORE.SYSTEM.CONST>
0

>  <SCORE.SYSTEM.DIHEDRAL>
0

>  <SCORE.SYSTEM.SOLV>
0

>  <SCORE.SYSTEM.norm>
0

>  <SCORE.heavy>
42

>  <SCORE.norm>
-0.237383

>  <RMSD>
28.324

$$$$
ligand
 OpenBabel11021811513D
libRbt.so/2013.1/901 2013/11/27
 42 48  0  0  0  0  0  0  0  0999 V2000
  -17.4611  -22.0380   -3.4387 P   0  0  2  0  0  0  0  0  0  0  0  0
  -18.2949  -26.2227   -0.7354 P   0  0  1  0  0  0  0  0  0  0  0  0
  -18.1486  -20.7575   -3.0259 O   0  5  0  0  0  0  0  0  0  0  0  0
  -17.6489  -26.7906   -1.9766 O   0  5  0  0  0  0  0  0  0  0  0  0
  -16.8302  -22.1469   -4.8062 O   0  0  0  0  0  0  0  0  0  0  0  0
  -18.4684  -27.0898    0.4883 O   0  0  0  0  0  0  0  0  0  0  0  0
  -19.9005  -23.0394   -3.4961 C   0  0  0  0  0  0  0  0  0  0  0  0
  -16.0976  -24.9746    0.0177 C   0  0  0  0  0  0  0  0  0  0  0  0
  -18.5079  -23.2489   -3.2685 O   0  0  0  0  0  0  0  0  0  0  0  0
  -17.4842  -24.8998   -0.3053 O   0  0  0  0  0  0  0  0  0  0  0  0
  -20.7071  -23.9814   -2.6101 C   0  0  1  0  0  0  0  0  0  0  0  0
  -15.3356  -23.9030   -0.7517 C   0  0  1  0  0  0  0  0  0  0  0  0
  -22.0092  -24.1729   -3.1699 O   0  0  0  0  0  0  0  0  0  0  0  0
  -13.9627  -24.2818   -0.8751 O   0  0  0  0  0  0  0  0  0  0  0  0
  -20.0413  -25.3430   -2.5043 C   0  0  1  0  0  0  0  0  0  0  0  0
  -15.8965  -23.7263   -2.1538 C   0  0  1  0  0  0  0  0  0  0  0  0
  -19.7374  -25.6339   -1.1435 O   0  0  0  0  0  0  0  0  0  0  0  0
  -16.3401  -22.3850   -2.3369 O   0  0  0  0  0  0  0  0  0  0  0  0
  -21.0394  -26.3519   -3.0413 C   0  0  0  0  0  0  0  0  0  0  0  0
  -14.7623  -24.0343   -3.1121 C   0  0  0  0  0  0  0  0  0  0  0  0
  -22.2667  -25.5513   -3.4508 C   0  0  2  0  0  0  0  0  0  0  0  0
  -13.5619  -24.3833   -2.2437 C   0  0  2  0  0  0  0  0  0  0  0  0
  -21.5540  -23.6032   -8.2752 N   0  0  0  0  0  0  0  0  0  0  0  0
  -21.1494  -23.1328   -7.0810 C   0  0  0  0  0  0  0  0  0  0  0  0
  -21.4076  -23.7443   -5.9102 N   0  0  0  0  0  0  0  0  0  0  0  0
  -22.1095  -24.9021   -5.8706 C   0  0  0  0  0  0  0  0  0  0  0  0
  -22.5867  -25.4809   -7.1363 C   0  0  0  0  0  0  0  0  0  0  0  0
  -22.2634  -24.7489   -8.3839 C   0  0  0  0  0  0  0  0  0  0  0  0
  -22.6643  -25.2127   -9.5921 N   0  0  0  0  0  0  0  0  0  0  0  0
  -23.2445  -26.6114   -6.8175 N   0  0  0  0  0  0  0  0  0  0  0  0
  -23.1939  -26.7457   -5.4675 C   0  0  0  0  0  0  0  0  0  0  0  0
  -22.5172  -25.7271   -4.9029 N   0  0  0  0  0  0  0  0  0  0  0  0
  -11.1610  -28.6799   -0.4143 N   0  0  0  0  0  0  0  0  0  0  0  0
  -11.4029  -27.4995    0.1854 C   0  0  0  0  0  0  0  0  0  0  0  0
  -12.0366  -26.4739   -0.4115 N   0  0  0  0  0  0  0  0  0  0  0  0
  -12.4787  -26.5793   -1.6879 C   0  0  0  0  0  0  0  0  0  0  0  0
  -12.2521  -27.8401   -2.4112 C   0  0  0  0  0  0  0  0  0  0  0  0
  -11.5470  -28.9228   -1.6854 C   0  0  0  0  0  0  0  0  0  0  0  0
  -11.2982  -30.1165   -2.2782 N   0  0  0  0  0  0  0  0  0  0  0  0
  -12.7823  -27.6792   -3.6384 N   0  0  0  0  0  0  0  0  0  0  0  0
  -13.3019  -26.4259   -3.6958 C   0  0  0  0  0  0  0  0  0  0  0  0
  -13.1210  -25.7708   -2.5343 N   0  0  0  0  0  0  0  0  0  0  0  0
  1  3  1  1  0  0  0
  1  5  2  0  0  0  0
  1  9  1  0  0  0  0
  1 18  1  0  0  0  0
  2  4  1  6  0  0  0
  2  6  2  0  0  0  0
  2 10  1  0  0  0  0
  2 17  1  0  0  0  0
  7  9  1  0  0  0  0
  8 10  1  0  0  0  0
 11  7  1  6  0  0  0
 11 13  1  0  0  0  0
 11 15  1  0  0  0  0
 12  8  1  6  0  0  0
 12 14  1  0  0  0  0
 12 16  1  0  0  0  0
 13 21  1  0  0  0  0
 14 22  1  0  0  0  0
 15 17  1  1  0  0  0
 15 19  1  0  0  0  0
 16 18  1  1  0  0  0
 16 20  1  0  0  0  0
 19 21  1  0  0  0  0
 20 22  1  0  0  0  0
 21 32  1  6  0  0  0
 22 42  1  6  0  0  0
 23 24  2  0  0  0  0
 23 28  1  0  0  0  0
 24 25  1  0  0  0  0
 25 26  2  0  0  0  0
 26 27  1  0  0  0  0
 26 32  1  0  0  0  0
 27 28  2  0  0  0  0
 27 30  1  0  0  0  0
 28 29  1  0  0  0  0
 30 31  2  0  0  0  0
 31 32  1  0  0  0  0
 33 34  2  0  0  0  0
 33 38  1  0  0  0  0
 34 35  1  0  0  0  0
 35 36  2  0  0  0  0
 36 37  1  0  0  0  0
 36 42  1  0  0  0  0
 37 38  2  0  0  0  0
 37 40  1  0  0  0  0
 38 39  1  0  0  0  0
 40 41  2  0  0  0  0
 41 42  1  0  0  0  0
M  CHG  2   3  -1   4  -1
M  END
>  <CHROM.1>
22.69980959,-34.94284049,-17.61977159,-25.13616532,-3.10878773,-3.01192068
0.49151099,-2.96548547

>  <Name>
ligand

>  <RI>
0

>  <Rbt.Current_Directory>
/home/itssahil/PROJECTS/Mol_Feturizer/New_Systems/rnas/4QLN

>  <Rbt.Executable>
rbdock ($Id: //depot/dev/client3/rdock/2013.1/src/exe/rbdock.cxx#4 $)

>  <Rbt.Library>
libRbt.so (2013.1, Build901 2013/11/27)

>  <Rbt.Parameter_File>
/export/apps/rDock/src/rDock_2013.1_src/data/scripts/dock_solv.prm

>  <Rbt.Receptor>
prm/blind_docking_100.prm

>  <SCORE>
-9.95619

>  <SCORE.INTER>
-12.5555

>  <SCORE.INTER.CONST>
1

>  <SCORE.INTER.POLAR>
0

>  <SCORE.INTER.ROT>
2

>  <SCORE.INTER.SOLV>
25.8313

>  <SCORE.INTER.VDW>
-21.9141

>  <SCORE.INTER.norm>
-0.298939

>  <SCORE.INTRA>
1.02573

>  <SCORE.INTRA.DIHEDRAL>
0.000634014

>  <SCORE.INTRA.DIHEDRAL.0>
2.39985

>  <SCORE.INTRA.POLAR>
0

>  <SCORE.INTRA.POLAR.0>
0

>  <SCORE.INTRA.REPUL>
0

>  <SCORE.INTRA.REPUL.0>
0

>  <SCORE.INTRA.SOLV>
-0.0118391

>  <SCORE.INTRA.SOLV.lig_0>
-110.958

>  <SCORE.INTRA.VDW>
1.03133

>  <SCORE.INTRA.VDW.0>
-2.34644

>  <SCORE.INTRA.norm>
0.0244222

>  <SCORE.RESTR>
1.57353

>  <SCORE.RESTR.CAVITY>
1.57353

>  <SCORE.RESTR.norm>
0.0374651

>  <SCORE.SYSTEM>
0

>  <SCORE.SYSTEM.CONST>
0

>  <SCORE.SYSTEM.DIHEDRAL>
0

>  <SCORE.SYSTEM.SOLV>
0

>  <SCORE.SYSTEM.norm>
0

>  <SCORE.heavy>
42

>  <SCORE.norm>
-0.237052

>  <RMSD>
28.327

$$$$
ligand
 OpenBabel11021811513D
libRbt.so/2013.1/901 2013/11/27
 42 48  0  0  0  0  0  0  0  0999 V2000
  -17.4751  -21.9905   -3.5514 P   0  0  2  0  0  0  0  0  0  0  0  0
  -17.9389  -25.9794   -0.4874 P   0  0  1  0  0  0  0  0  0  0  0  0
  -18.2511  -20.7342   -3.2311 O   0  5  0  0  0  0  0  0  0  0  0  0
  -17.2733  -26.6014   -1.6918 O   0  5  0  0  0  0  0  0  0  0  0  0
  -16.8619  -22.1684   -4.9198 O   0  0  0  0  0  0  0  0  0  0  0  0
  -18.0240  -26.7493    0.8085 O   0  0  0  0  0  0  0  0  0  0  0  0
  -19.8315  -23.1724   -3.4660 C   0  0  0  0  0  0  0  0  0  0  0  0
  -15.8304  -24.5109    0.1053 C   0  0  0  0  0  0  0  0  0  0  0  0
  -18.4232  -23.2571   -3.2552 O   0  0  0  0  0  0  0  0  0  0  0  0
  -17.2242  -24.5677   -0.1894 O   0  0  0  0  0  0  0  0  0  0  0  0
  -20.5479  -24.0928   -2.4850 C   0  0  1  0  0  0  0  0  0  0  0  0
  -15.1663  -23.4551   -0.7694 C   0  0  1  0  0  0  0  0  0  0  0  0
  -21.8412  -24.4282   -2.9953 O   0  0  0  0  0  0  0  0  0  0  0  0
  -13.7708  -23.7395   -0.8935 O   0  0  0  0  0  0  0  0  0  0  0  0
  -19.7783  -25.3869   -2.2814 C   0  0  1  0  0  0  0  0  0  0  0  0
  -15.7637  -23.4412   -2.1675 C   0  0  1  0  0  0  0  0  0  0  0  0
  -19.4291  -25.5370   -0.9086 O   0  0  0  0  0  0  0  0  0  0  0  0
  -16.3116  -22.1574   -2.4517 O   0  0  0  0  0  0  0  0  0  0  0  0
  -20.7057  -26.5097   -2.7077 C   0  0  0  0  0  0  0  0  0  0  0  0
  -14.6263  -23.7444   -3.1235 C   0  0  0  0  0  0  0  0  0  0  0  0
  -21.9976  -25.8409   -3.1533 C   0  0  2  0  0  0  0  0  0  0  0  0
  -13.3877  -23.9274   -2.2580 C   0  0  2  0  0  0  0  0  0  0  0  0
  -21.2170  -24.4454   -8.1554 N   0  0  0  0  0  0  0  0  0  0  0  0
  -20.7894  -23.8690   -7.0169 C   0  0  0  0  0  0  0  0  0  0  0  0
  -21.0698  -24.3418   -5.7885 N   0  0  0  0  0  0  0  0  0  0  0  0
  -21.8200  -25.4583   -5.6279 C   0  0  0  0  0  0  0  0  0  0  0  0
  -22.3249  -26.1468   -6.8261 C   0  0  0  0  0  0  0  0  0  0  0  0
  -21.9745  -25.5650   -8.1436 C   0  0  0  0  0  0  0  0  0  0  0  0
  -22.3982  -26.1365   -9.2966 N   0  0  0  0  0  0  0  0  0  0  0  0
  -23.0291  -27.2084   -6.3908 N   0  0  0  0  0  0  0  0  0  0  0  0
  -22.9803  -27.2013   -5.0340 C   0  0  0  0  0  0  0  0  0  0  0  0
  -22.2594  -26.1583   -4.5791 N   0  0  0  0  0  0  0  0  0  0  0  0
  -14.5054  -28.9984   -3.0373 N   0  0  0  0  0  0  0  0  0  0  0  0
  -15.3256  -27.9391   -2.9085 C   0  0  0  0  0  0  0  0  0  0  0  0
  -14.8950  -26.6802   -2.7100 N   0  0  0  0  0  0  0  0  0  0  0  0
  -13.5710  -26.4043   -2.6271 C   0  0  0  0  0  0  0  0  0  0  0  0
  -12.6102  -27.5105   -2.7585 C   0  0  0  0  0  0  0  0  0  0  0  0
  -13.1627  -28.8684   -2.9756 C   0  0  0  0  0  0  0  0  0  0  0  0
  -12.3469  -29.9432   -3.1076 N   0  0  0  0  0  0  0  0  0  0  0  0
  -11.3831  -26.9690   -2.6406 N   0  0  0  0  0  0  0  0  0  0  0  0
  -11.5441  -25.6342   -2.4500 C   0  0  0  0  0  0  0  0  0  0  0  0
  -12.8471  -25.2978   -2.4417 N   0  0  0  0  0  0  0  0  0  0  0  0
  1  3  1  1  0  0  0
  1  5  2  0  0  0  0
  1  9  1  0  0  0  0
  1 18  1  0  0  0  0
  2  4  1  6  0  0  0
  2  6  2  0  0  0  0
  2 10  1  0  0  0  0
  2 17  1  0  0  0  0
  7  9  1  0  0  0  0
  8 10  1  0  0  0  0
 11  7  1  6  0  0  0
 11 13  1  0  0  0  0
 11 15  1  0  0  0  0
 12  8  1  1  0  0  0
 12 14  1  0  0  0  0
 12 16  1  0  0  0  0
 13 21  1  0  0  0  0
 14 22  1  0  0  0  0
 15 17  1  1  0  0  0
 15 19  1  0  0  0  0
 16 18  1  6  0  0  0
 16 20  1  0  0  0  0
 19 21  1  0  0  0  0
 20 22  1  0  0  0  0
 21 32  1  6  0  0  0
 22 42  1  1  0  0  0
 23 24  2  0  0  0  0
 23 28  1  0  0  0  0
 24 25  1  0  0  0  0
 25 26  2  0  0  0  0
 26 27  1  0  0  0  0
 26 32  1  0  0  0  0
 27 28  2  0  0  0  0
 27 30  1  0  0  0  0
 28 29  1  0  0  0  0
 30 31  2  0  0  0  0
 31 32  1  0  0  0  0
 33 34  2  0  0  0  0
 33 38  1  0  0  0  0
 34 35  1  0  0  0  0
 35 36  2  0  0  0  0
 36 37  1  0  0  0  0
 36 42  1  0  0  0  0
 37 38  2  0  0  0  0
 37 40  1  0  0  0  0
 38 39  1  0  0  0  0
 40 41  2  0  0  0  0
 41 42  1  0  0  0  0
M  CHG  2   3  -1   4  -1
M  END
>  <CHROM.1>
29.67020051,82.40327345,-17.68377533,-25.16057656,-3.19907705,3.06438773
0.43890821,-2.76686853

>  <Name>
ligand

>  <RI>
0

>  <Rbt.Current_Directory>
/home/itssahil/PROJECTS/Mol_Feturizer/New_Systems/rnas/4QLN

>  <Rbt.Executable>
rbdock ($Id: //depot/dev/client3/rdock/2013.1/src/exe/rbdock.cxx#4 $)

>  <Rbt.Library>
libRbt.so (2013.1, Build901 2013/11/27)

>  <Rbt.Parameter_File>
/export/apps/rDock/src/rDock_2013.1_src/data/scripts/dock_solv.prm

>  <Rbt.Receptor>
prm/blind_docking_60.prm

>  <SCORE>
-0.348478

>  <SCORE.INTER>
-10.5955

>  <SCORE.INTER.CONST>
1

>  <SCORE.INTER.POLAR>
0

>  <SCORE.INTER.ROT>
2

>  <SCORE.INTER.SOLV>
31.1584

>  <SCORE.INTER.VDW>
-22.3832

>  <SCORE.INTER.norm>
-0.252274

>  <SCORE.INTRA>
1.06473

>  <SCORE.INTRA.DIHEDRAL>
0.000581403

>  <SCORE.INTRA.DIHEDRAL.0>
2.39985

>  <SCORE.INTRA.POLAR>
0

>  <SCORE.INTRA.POLAR.0>
0

>  <SCORE.INTRA.REPUL>
0

>  <SCORE.INTRA.REPUL.0>
0

>  <SCORE.INTRA.SOLV>
0.99747

>  <SCORE.INTRA.SOLV.lig_0>
-110.958

>  <SCORE.INTRA.VDW>
0.565705

>  <SCORE.INTRA.VDW.0>
-2.34644

>  <SCORE.INTRA.norm>
0.0253507

>  <SCORE.RESTR>
9.1823

>  <SCORE.RESTR.CAVITY>
9.1823

>  <SCORE.RESTR.norm>
0.218626

>  <SCORE.SYSTEM>
0

>  <SCORE.SYSTEM.CONST>
0

>  <SCORE.SYSTEM.DIHEDRAL>
0

>  <SCORE.SYSTEM.SOLV>
0

>  <SCORE.SYSTEM.norm>
0

>  <SCORE.heavy>
42

>  <SCORE.norm>
-0.00829709

>  <RMSD>
28.327

$$$$
ligand
 OpenBabel11021811513D
libRbt.so/2013.1/901 2013/11/27
 42 48  0  0  0  0  0  0  0  0999 V2000
  -17.4379  -22.0781   -3.4886 P   0  0  2  0  0  0  0  0  0  0  0  0
  -18.2491  -26.2002   -0.6842 P   0  0  1  0  0  0  0  0  0  0  0  0
  -18.1161  -20.7866   -3.0950 O   0  5  0  0  0  0  0  0  0  0  0  0
  -17.6209  -26.7970   -1.9209 O   0  5  0  0  0  0  0  0  0  0  0  0
  -16.8251  -22.2188   -4.8614 O   0  0  0  0  0  0  0  0  0  0  0  0
  -18.4093  -27.0399    0.5603 O   0  0  0  0  0  0  0  0  0  0  0  0
  -19.8808  -23.0725   -3.4927 C   0  0  0  0  0  0  0  0  0  0  0  0
  -16.0385  -24.9432    0.0132 C   0  0  0  0  0  0  0  0  0  0  0  0
  -18.4860  -23.2815   -3.2786 O   0  0  0  0  0  0  0  0  0  0  0  0
  -17.4289  -24.8708   -0.2935 O   0  0  0  0  0  0  0  0  0  0  0  0
  -20.6786  -23.9923   -2.5761 C   0  0  1  0  0  0  0  0  0  0  0  0
  -15.2834  -23.8910   -0.7892 C   0  0  1  0  0  0  0  0  0  0  0  0
  -21.9884  -24.1917   -3.1148 O   0  0  0  0  0  0  0  0  0  0  0  0
  -13.9133  -24.2770   -0.9219 O   0  0  0  0  0  0  0  0  0  0  0  0
  -20.0156  -25.3535   -2.4492 C   0  0  1  0  0  0  0  0  0  0  0  0
  -15.8618  -23.7430   -2.1875 C   0  0  1  0  0  0  0  0  0  0  0  0
  -19.6950  -25.6157   -1.0864 O   0  0  0  0  0  0  0  0  0  0  0  0
  -16.3037  -22.4047   -2.3941 O   0  0  0  0  0  0  0  0  0  0  0  0
  -21.0236  -26.3705   -2.9512 C   0  0  0  0  0  0  0  0  0  0  0  0
  -14.7410  -24.0755   -3.1534 C   0  0  0  0  0  0  0  0  0  0  0  0
  -22.2537  -25.5751   -3.3622 C   0  0  2  0  0  0  0  0  0  0  0  0
  -13.5306  -24.4095   -2.2931 C   0  0  2  0  0  0  0  0  0  0  0  0
  -21.7869  -23.6275   -8.2168 N   0  0  0  0  0  0  0  0  0  0  0  0
  -21.3898  -23.1187   -7.0358 C   0  0  0  0  0  0  0  0  0  0  0  0
  -21.5783  -23.7356   -5.8547 N   0  0  0  0  0  0  0  0  0  0  0  0
  -22.1962  -24.9393   -5.7899 C   0  0  0  0  0  0  0  0  0  0  0  0
  -22.6598  -25.5620   -7.0398 C   0  0  0  0  0  0  0  0  0  0  0  0
  -22.4164  -24.8209   -8.3002 C   0  0  0  0  0  0  0  0  0  0  0  0
  -22.8106  -25.3230   -9.4953 N   0  0  0  0  0  0  0  0  0  0  0  0
  -23.2295  -26.7326   -6.6973 N   0  0  0  0  0  0  0  0  0  0  0  0
  -23.1395  -26.8503   -5.3478 C   0  0  0  0  0  0  0  0  0  0  0  0
  -22.5235  -25.7816   -4.8068 N   0  0  0  0  0  0  0  0  0  0  0  0
  -11.1829  -28.6976   -0.3767 N   0  0  0  0  0  0  0  0  0  0  0  0
  -11.4217  -27.5068    0.2033 C   0  0  0  0  0  0  0  0  0  0  0  0
  -12.0410  -26.4851   -0.4149 N   0  0  0  0  0  0  0  0  0  0  0  0
  -12.4705  -26.6056   -1.6943 C   0  0  0  0  0  0  0  0  0  0  0  0
  -12.2464  -27.8784   -2.3970 C   0  0  0  0  0  0  0  0  0  0  0  0
  -11.5575  -28.9559   -1.6482 C   0  0  0  0  0  0  0  0  0  0  0  0
  -11.3119  -30.1599   -2.2211 N   0  0  0  0  0  0  0  0  0  0  0  0
  -12.7624  -27.7312   -3.6319 N   0  0  0  0  0  0  0  0  0  0  0  0
  -13.2715  -26.4749   -3.7128 C   0  0  0  0  0  0  0  0  0  0  0  0
  -13.0976  -25.8044   -2.5590 N   0  0  0  0  0  0  0  0  0  0  0  0
  1  3  1  1  0  0  0
  1  5  2  0  0  0  0
  1  9  1  0  0  0  0
  1 18  1  0  0  0  0
  2  4  1  6  0  0  0
  2  6  2  0  0  0  0
  2 10  1  0  0  0  0
  2 17  1  0  0  0  0
  7  9  1  0  0  0  0
  8 10  1  0  0  0  0
 11  7  1  6  0  0  0
 11 13  1  0  0  0  0
 11 15  1  0  0  0  0
 12  8  1  1  0  0  0
 12 14  1  0  0  0  0
 12 16  1  0  0  0  0
 13 21  1  0  0  0  0
 14 22  1  0  0  0  0
 15 17  1  1  0  0  0
 15 19  1  0  0  0  0
 16 18  1  6  0  0  0
 16 20  1  0  0  0  0
 19 21  1  0  0  0  0
 20 22  1  0  0  0  0
 21 32  1  6  0  0  0
 22 42  1  1  0  0  0
 23 24  2  0  0  0  0
 23 28  1  0  0  0  0
 24 25  1  0  0  0  0
 25 26  2  0  0  0  0
 26 27  1  0  0  0  0
 26 32  1  0  0  0  0
 27 28  2  0  0  0  0
 27 30  1  0  0  0  0
 28 29  1  0  0  0  0
 30 31  2  0  0  0  0
 31 32  1  0  0  0  0
 33 34  2  0  0  0  0
 33 38  1  0  0  0  0
 34 35  1  0  0  0  0
 35 36  2  0  0  0  0
 36 37  1  0  0  0  0
 36 42  1  0  0  0  0
 37 38  2  0  0  0  0
 37 40  1  0  0  0  0
 38 39  1  0  0  0  0
 40 41  2  0  0  0  0
 41 42  1  0  0  0  0
M  CHG  2   3  -1   4  -1
M  END
>  <CHROM.1>
18.40201220,-33.51076575,-17.62229467,-25.16095548,-3.08552036,-2.97784484
0.47371559,-3.04347192

>  <Name>
ligand

>  <RI>
0

>  <Rbt.Current_Directory>
/home/itssahil/PROJECTS/Mol_Feturizer/New_Systems/rnas/4QLN

>  <Rbt.Executable>
rbdock ($Id: //depot/dev/client3/rdock/2013.1/src/exe/rbdock.cxx#4 $)

>  <Rbt.Library>
libRbt.so (2013.1, Build901 2013/11/27)

>  <Rbt.Parameter_File>
/export/apps/rDock/src/rDock_2013.1_src/data/scripts/dock_solv.prm

>  <Rbt.Receptor>
prm/blind_docking_100.prm

>  <SCORE>
-10.4087

>  <SCORE.INTER>
-13.1846

>  <SCORE.INTER.CONST>
1

>  <SCORE.INTER.POLAR>
0

>  <SCORE.INTER.ROT>
2

>  <SCORE.INTER.SOLV>
25.3307

>  <SCORE.INTER.VDW>
-22.1666

>  <SCORE.INTER.norm>
-0.313918

>  <SCORE.INTRA>
1.04481

>  <SCORE.INTRA.DIHEDRAL>
0.000674337

>  <SCORE.INTRA.DIHEDRAL.0>
2.39985

>  <SCORE.INTRA.POLAR>
0

>  <SCORE.INTRA.POLAR.0>
0

>  <SCORE.INTRA.REPUL>
0

>  <SCORE.INTRA.REPUL.0>
0

>  <SCORE.INTRA.SOLV>
-0.010944

>  <SCORE.INTRA.SOLV.lig_0>
-110.958

>  <SCORE.INTRA.VDW>
1.04994

>  <SCORE.INTRA.VDW.0>
-2.34644

>  <SCORE.INTRA.norm>
0.0248764

>  <SCORE.RESTR>
1.73107

>  <SCORE.RESTR.CAVITY>
1.73107

>  <SCORE.RESTR.norm>
0.0412161

>  <SCORE.SYSTEM>
0

>  <SCORE.SYSTEM.CONST>
0

>  <SCORE.SYSTEM.DIHEDRAL>
0

>  <SCORE.SYSTEM.SOLV>
0

>  <SCORE.SYSTEM.norm>
0

>  <SCORE.heavy>
42

>  <SCORE.norm>
-0.247826

>  <RMSD>
28.337

$$$$
ligand
 OpenBabel11021811513D
libRbt.so/2013.1/901 2013/11/27
 42 48  0  0  0  0  0  0  0  0999 V2000
  -17.4986  -22.0349   -3.6372 P   0  0  2  0  0  0  0  0  0  0  0  0
  -17.9526  -25.9623   -0.4933 P   0  0  1  0  0  0  0  0  0  0  0  0
  -18.2672  -20.7697   -3.3350 O   0  5  0  0  0  0  0  0  0  0  0  0
  -17.2992  -26.6100   -1.6908 O   0  5  0  0  0  0  0  0  0  0  0  0
  -16.8973  -22.2416   -5.0068 O   0  0  0  0  0  0  0  0  0  0  0  0
  -18.0300  -26.7067    0.8179 O   0  0  0  0  0  0  0  0  0  0  0  0
  -19.8587  -23.2057   -3.5100 C   0  0  0  0  0  0  0  0  0  0  0  0
  -15.8338  -24.4910    0.0540 C   0  0  0  0  0  0  0  0  0  0  0  0
  -18.4490  -23.2919   -3.3090 O   0  0  0  0  0  0  0  0  0  0  0  0
  -17.2301  -24.5479   -0.2284 O   0  0  0  0  0  0  0  0  0  0  0  0
  -20.5706  -24.1042   -2.5058 C   0  0  1  0  0  0  0  0  0  0  0  0
  -15.1728  -23.4548   -0.8463 C   0  0  1  0  0  0  0  0  0  0  0  0
  -21.8693  -24.4442   -2.9990 O   0  0  0  0  0  0  0  0  0  0  0  0
  -13.7794  -23.7471   -0.9761 O   0  0  0  0  0  0  0  0  0  0  0  0
  -19.8043  -25.3971   -2.2834 C   0  0  1  0  0  0  0  0  0  0  0  0
  -15.7815  -23.4655   -2.2395 C   0  0  1  0  0  0  0  0  0  0  0  0
  -19.4445  -25.5221   -0.9109 O   0  0  0  0  0  0  0  0  0  0  0  0
  -16.3268  -22.1853   -2.5440 O   0  0  0  0  0  0  0  0  0  0  0  0
  -20.7394  -26.5242   -2.6805 C   0  0  0  0  0  0  0  0  0  0  0  0
  -14.6531  -23.7916   -3.1987 C   0  0  0  0  0  0  0  0  0  0  0  0
  -22.0323  -25.8591   -3.1285 C   0  0  2  0  0  0  0  0  0  0  0  0
  -13.4081  -23.9627   -2.3398 C   0  0  2  0  0  0  0  0  0  0  0  0
  -21.3786  -24.5030   -8.1596 N   0  0  0  0  0  0  0  0  0  0  0  0
  -20.9514  -23.8988   -7.0355 C   0  0  0  0  0  0  0  0  0  0  0  0
  -21.1964  -24.3647   -5.7969 N   0  0  0  0  0  0  0  0  0  0  0  0
  -21.9074  -25.5024   -5.6101 C   0  0  0  0  0  0  0  0  0  0  0  0
  -22.4094  -26.2220   -6.7913 C   0  0  0  0  0  0  0  0  0  0  0  0
  -22.0994  -25.6461   -8.1214 C   0  0  0  0  0  0  0  0  0  0  0  0
  -22.5231  -26.2454   -9.2602 N   0  0  0  0  0  0  0  0  0  0  0  0
  -23.0718  -27.2999   -6.3313 N   0  0  0  0  0  0  0  0  0  0  0  0
  -23.0012  -27.2740   -4.9758 C   0  0  0  0  0  0  0  0  0  0  0  0
  -22.3070  -26.2028   -4.5457 N   0  0  0  0  0  0  0  0  0  0  0  0
  -14.5509  -29.0406   -3.0340 N   0  0  0  0  0  0  0  0  0  0  0  0
  -15.3659  -27.9754   -2.9218 C   0  0  0  0  0  0  0  0  0  0  0  0
  -14.9291  -26.7154   -2.7446 N   0  0  0  0  0  0  0  0  0  0  0  0
  -13.6037  -26.4445   -2.6677 C   0  0  0  0  0  0  0  0  0  0  0  0
  -12.6483  -27.5573   -2.7819 C   0  0  0  0  0  0  0  0  0  0  0  0
  -13.2074  -28.9159   -2.9759 C   0  0  0  0  0  0  0  0  0  0  0  0
  -12.3970  -29.9967   -3.0910 N   0  0  0  0  0  0  0  0  0  0  0  0
  -11.4185  -27.0198   -2.6742 N   0  0  0  0  0  0  0  0  0  0  0  0
  -11.5730  -25.6812   -2.5055 C   0  0  0  0  0  0  0  0  0  0  0  0
  -12.8743  -25.3386   -2.5015 N   0  0  0  0  0  0  0  0  0  0  0  0
  1  3  1  1  0  0  0
  1  5  2  0  0  0  0
  1  9  1  0  0  0  0
  1 18  1  0  0  0  0
  2  4  1  6  0  0  0
  2  6  2  0  0  0  0
  2 10  1  0  0  0  0
  2 17  1  0  0  0  0
  7  9  1  0  0  0  0
  8 10  1  0  0  0  0
 11  7  1  6  0  0  0
 11 13  1  0  0  0  0
 11 15  1  0  0  0  0
 12  8  1  1  0  0  0
 12 14  1  0  0  0  0
 12 16  1  0  0  0  0
 13 21  1  0  0  0  0
 14 22  1  0  0  0  0
 15 17  1  1  0  0  0
 15 19  1  0  0  0  0
 16 18  1  6  0  0  0
 16 20  1  0  0  0  0
 19 21  1  0  0  0  0
 20 22  1  0  0  0  0
 21 32  1  6  0  0  0
 22 42  1  1  0  0  0
 23 24  2  0  0  0  0
 23 28  1  0  0  0  0
 24 25  1  0  0  0  0
 25 26  2  0  0  0  0
 26 27  1  0  0  0  0
 26 32  1  0  0  0  0
 27 28  2  0  0  0  0
 27 30  1  0  0  0  0
 28 29  1  0  0  0  0
 30 31  2  0  0  0  0
 31 32  1  0  0  0  0
 33 34  2  0  0  0  0
 33 38  1  0  0  0  0
 34 35  1  0  0  0  0
 35 36  2  0  0  0  0
 36 37  1  0  0  0  0
 36 42  1  0  0  0  0
 37 38  2  0  0  0  0
 37 40  1  0  0  0  0
 38 39  1  0  0  0  0
 40 41  2  0  0  0  0
 41 42  1  0  0  0  0
M  CHG  2   3  -1   4  -1
M  END
>  <CHROM.1>
27.51645268,82.83658376,-17.72389903,-25.19163194,-3.22373897,3.07754141
0.43353042,-2.79772696

>  <Name>
ligand

>  <RI>
0

>  <Rbt.Current_Directory>
/home/itssahil/PROJECTS/Mol_Feturizer/New_Systems/rnas/4QLN

>  <Rbt.Executable>
rbdock ($Id: //depot/dev/client3/rdock/2013.1/src/exe/rbdock.cxx#4 $)

>  <Rbt.Library>
libRbt.so (2013.1, Build901 2013/11/27)

>  <Rbt.Parameter_File>
/export/apps/rDock/src/rDock_2013.1_src/data/scripts/dock_solv.prm

>  <Rbt.Receptor>
prm/blind_docking_60.prm

>  <SCORE>
0.118383

>  <SCORE.INTER>
-9.97519

>  <SCORE.INTER.CONST>
1

>  <SCORE.INTER.POLAR>
0

>  <SCORE.INTER.ROT>
2

>  <SCORE.INTER.SOLV>
30.8335

>  <SCORE.INTER.VDW>
-21.8613

>  <SCORE.INTER.norm>
-0.237504

>  <SCORE.INTRA>
1.0391

>  <SCORE.INTRA.DIHEDRAL>
0.000590024

>  <SCORE.INTRA.DIHEDRAL.0>
2.39985

>  <SCORE.INTRA.POLAR>
0

>  <SCORE.INTRA.POLAR.0>
0

>  <SCORE.INTRA.REPUL>
0

>  <SCORE.INTRA.REPUL.0>
0

>  <SCORE.INTRA.SOLV>
0.985233

>  <SCORE.INTRA.SOLV.lig_0>
-110.958

>  <SCORE.INTRA.VDW>
0.546193

>  <SCORE.INTRA.VDW.0>
-2.34644

>  <SCORE.INTRA.norm>
0.0247406

>  <SCORE.RESTR>
9.05446

>  <SCORE.RESTR.CAVITY>
9.05446

>  <SCORE.RESTR.norm>
0.215582

>  <SCORE.SYSTEM>
0

>  <SCORE.SYSTEM.CONST>
0

>  <SCORE.SYSTEM.DIHEDRAL>
0

>  <SCORE.SYSTEM.SOLV>
0

>  <SCORE.SYSTEM.norm>
0

>  <SCORE.heavy>
42

>  <SCORE.norm>
0.00281864

>  <RMSD>
28.345

$$$$
ligand
 OpenBabel11021811513D
libRbt.so/2013.1/901 2013/11/27
 42 48  0  0  0  0  0  0  0  0999 V2000
  -17.4665  -22.0158   -3.6224 P   0  0  2  0  0  0  0  0  0  0  0  0
  -17.9603  -25.9523   -0.4960 P   0  0  1  0  0  0  0  0  0  0  0  0
  -18.2273  -20.7463   -3.3180 O   0  5  0  0  0  0  0  0  0  0  0  0
  -17.3069  -26.5999   -1.6936 O   0  5  0  0  0  0  0  0  0  0  0  0
  -16.8614  -22.2212   -4.9905 O   0  0  0  0  0  0  0  0  0  0  0  0
  -18.0482  -26.7014    0.8119 O   0  0  0  0  0  0  0  0  0  0  0  0
  -19.8353  -23.1703   -3.5089 C   0  0  0  0  0  0  0  0  0  0  0  0
  -15.8333  -24.4983    0.0653 C   0  0  0  0  0  0  0  0  0  0  0  0
  -18.4270  -23.2672   -3.3029 O   0  0  0  0  0  0  0  0  0  0  0  0
  -17.2289  -24.5442   -0.2226 O   0  0  0  0  0  0  0  0  0  0  0  0
  -20.5574  -24.0677   -2.5110 C   0  0  1  0  0  0  0  0  0  0  0  0
  -15.1616  -23.4632   -0.8282 C   0  0  1  0  0  0  0  0  0  0  0  0
  -21.8566  -24.3965   -3.0105 O   0  0  0  0  0  0  0  0  0  0  0  0
  -13.7698  -23.7649   -0.9539 O   0  0  0  0  0  0  0  0  0  0  0  0
  -19.8011  -25.3669   -2.2909 C   0  0  1  0  0  0  0  0  0  0  0  0
  -15.7649  -23.4641   -2.2238 C   0  0  1  0  0  0  0  0  0  0  0  0
  -19.4475  -25.5000   -0.9176 O   0  0  0  0  0  0  0  0  0  0  0  0
  -16.3000  -22.1788   -2.5253 O   0  0  0  0  0  0  0  0  0  0  0  0
  -20.7426  -26.4858   -2.6961 C   0  0  0  0  0  0  0  0  0  0  0  0
  -14.6352  -23.7943   -3.1800 C   0  0  0  0  0  0  0  0  0  0  0  0
  -22.0291  -25.8097   -3.1463 C   0  0  2  0  0  0  0  0  0  0  0  0
  -13.3948  -23.9777   -2.3171 C   0  0  2  0  0  0  0  0  0  0  0  0
  -21.3311  -24.4481   -8.1700 N   0  0  0  0  0  0  0  0  0  0  0  0
  -20.9020  -23.8527   -7.0419 C   0  0  0  0  0  0  0  0  0  0  0  0
  -21.1596  -24.3188   -5.8060 N   0  0  0  0  0  0  0  0  0  0  0  0
  -21.8864  -25.4477   -5.6263 C   0  0  0  0  0  0  0  0  0  0  0  0
  -22.3914  -26.1573   -6.8121 C   0  0  0  0  0  0  0  0  0  0  0  0
  -22.0669  -25.5817   -8.1389 C   0  0  0  0  0  0  0  0  0  0  0  0
  -22.4924  -26.1723   -9.2817 N   0  0  0  0  0  0  0  0  0  0  0  0
  -23.0703  -27.2278   -6.3588 N   0  0  0  0  0  0  0  0  0  0  0  0
  -23.0065  -27.2066   -5.0028 C   0  0  0  0  0  0  0  0  0  0  0  0
  -22.3007  -26.1458   -4.5660 N   0  0  0  0  0  0  0  0  0  0  0  0
  -14.5706  -29.0439   -3.0403 N   0  0  0  0  0  0  0  0  0  0  0  0
  -15.3784  -27.9733   -2.9275 C   0  0  0  0  0  0  0  0  0  0  0  0
  -14.9335  -26.7174   -2.7424 N   0  0  0  0  0  0  0  0  0  0  0  0
  -13.6066  -26.4565   -2.6573 C   0  0  0  0  0  0  0  0  0  0  0  0
  -12.6586  -27.5756   -2.7716 C   0  0  0  0  0  0  0  0  0  0  0  0
  -13.2266  -28.9293   -2.9747 C   0  0  0  0  0  0  0  0  0  0  0  0
  -12.4234  -30.0153   -3.0905 N   0  0  0  0  0  0  0  0  0  0  0  0
  -11.4256  -27.0475   -2.6550 N   0  0  0  0  0  0  0  0  0  0  0  0
  -11.5713  -25.7087   -2.4810 C   0  0  0  0  0  0  0  0  0  0  0  0
  -12.8701  -25.3566   -2.4822 N   0  0  0  0  0  0  0  0  0  0  0  0
  1  3  1  1  0  0  0
  1  5  2  0  0  0  0
  1  9  1  0  0  0  0
  1 18  1  0  0  0  0
  2  4  1  6  0  0  0
  2  6  2  0  0  0  0
  2 10  1  0  0  0  0
  2 17  1  0  0  0  0
  7  9  1  0  0  0  0
  8 10  1  0  0  0  0
 11  7  1  6  0  0  0
 11 13  1  0  0  0  0
 11 15  1  0  0  0  0
 12  8  1  1  0  0  0
 12 14  1  0  0  0  0
 12 16  1  0  0  0  0
 13 21  1  0  0  0  0
 14 22  1  0  0  0  0
 15 17  1  1  0  0  0
 15 19  1  0  0  0  0
 16 18  1  6  0  0  0
 16 20  1  0  0  0  0
 19 21  1  0  0  0  0
 20 22  1  0  0  0  0
 21 32  1  6  0  0  0
 22 42  1  1  0  0  0
 23 24  2  0  0  0  0
 23 28  1  0  0  0  0
 24 25  1  0  0  0  0
 25 26  2  0  0  0  0
 26 27  1  0  0  0  0
 26 32  1  0  0  0  0
 27 28  2  0  0  0  0
 27 30  1  0  0  0  0
 28 29  1  0  0  0  0
 30 31  2  0  0  0  0
 31 32  1  0  0  0  0
 33 34  2  0  0  0  0
 33 38  1  0  0  0  0
 34 35  1  0  0  0  0
 35 36  2  0  0  0  0
 36 37  1  0  0  0  0
 36 42  1  0  0  0  0
 37 38  2  0  0  0  0
 37 40  1  0  0  0  0
 38 39  1  0  0  0  0
 40 41  2  0  0  0  0
 41 42  1  0  0  0  0
M  CHG  2   3  -1   4  -1
M  END
>  <CHROM.1>
27.87377309,82.92251059,-17.71443961,-25.17318745,-3.22284009,3.08162621
0.43914865,-2.79293875

>  <Name>
ligand

>  <RI>
0

>  <Rbt.Current_Directory>
/home/itssahil/PROJECTS/Mol_Feturizer/New_Systems/rnas/4QLN

>  <Rbt.Executable>
rbdock ($Id: //depot/dev/client3/rdock/2013.1/src/exe/rbdock.cxx#4 $)

>  <Rbt.Library>
libRbt.so (2013.1, Build901 2013/11/27)

>  <Rbt.Parameter_File>
/export/apps/rDock/src/rDock_2013.1_src/data/scripts/dock_solv.prm

>  <Rbt.Receptor>
prm/blind_docking_60.prm

>  <SCORE>
-0.214675

>  <SCORE.INTER>
-10.3924

>  <SCORE.INTER.CONST>
1

>  <SCORE.INTER.POLAR>
0

>  <SCORE.INTER.ROT>
2

>  <SCORE.INTER.SOLV>
30.572

>  <SCORE.INTER.VDW>
-22.0523

>  <SCORE.INTER.norm>
-0.247438

>  <SCORE.INTRA>
1.03165

>  <SCORE.INTRA.DIHEDRAL>
0.000590669

>  <SCORE.INTRA.DIHEDRAL.0>
2.39985

>  <SCORE.INTRA.POLAR>
0

>  <SCORE.INTRA.POLAR.0>
0

>  <SCORE.INTRA.REPUL>
0

>  <SCORE.INTRA.REPUL.0>
0

>  <SCORE.INTRA.SOLV>
0.982207

>  <SCORE.INTRA.SOLV.lig_0>
-110.958

>  <SCORE.INTRA.VDW>
0.540251

>  <SCORE.INTRA.VDW.0>
-2.34644

>  <SCORE.INTRA.norm>
0.0245631

>  <SCORE.RESTR>
9.14606

>  <SCORE.RESTR.CAVITY>
9.14606

>  <SCORE.RESTR.norm>
0.217763

>  <SCORE.SYSTEM>
0

>  <SCORE.SYSTEM.CONST>
0

>  <SCORE.SYSTEM.DIHEDRAL>
0

>  <SCORE.SYSTEM.SOLV>
0

>  <SCORE.SYSTEM.norm>
0

>  <SCORE.heavy>
42

>  <SCORE.norm>
-0.0051113

>  <RMSD>
28.346

$$$$
ligand
 OpenBabel11021811513D
libRbt.so/2013.1/901 2013/11/27
 42 48  0  0  0  0  0  0  0  0999 V2000
  -19.2171  -26.3280   -0.4841 P   0  0  2  0  0  0  0  0  0  0  0  0
  -17.1069  -22.5348   -3.0673 P   0  0  1  0  0  0  0  0  0  0  0  0
  -19.3090  -26.2200    1.0201 O   0  5  0  0  0  0  0  0  0  0  0  0
  -17.1405  -23.6265   -4.1102 O   0  5  0  0  0  0  0  0  0  0  0  0
  -19.4256  -27.6635   -1.1572 O   0  0  0  0  0  0  0  0  0  0  0  0
  -16.8064  -21.1123   -3.4742 O   0  0  0  0  0  0  0  0  0  0  0  0
  -16.6403  -25.9069   -0.1103 C   0  0  0  0  0  0  0  0  0  0  0  0
  -19.7347  -22.3348   -2.9773 C   0  0  0  0  0  0  0  0  0  0  0  0
  -17.7871  -25.7496   -0.9440 O   0  0  0  0  0  0  0  0  0  0  0  0
  -18.5104  -22.5480   -2.2784 O   0  0  0  0  0  0  0  0  0  0  0  0
  -15.6906  -24.7348   -0.3267 C   0  0  1  0  0  0  0  0  0  0  0  0
  -20.7306  -23.4265   -2.6067 C   0  0  1  0  0  0  0  0  0  0  0  0
  -14.3657  -25.1101    0.0596 O   0  0  0  0  0  0  0  0  0  0  0  0
  -21.7089  -23.5583   -3.6409 O   0  0  0  0  0  0  0  0  0  0  0  0
  -15.6496  -24.3217   -1.7882 C   0  0  1  0  0  0  0  0  0  0  0  0
  -20.0406  -24.7717   -2.4459 C   0  0  1  0  0  0  0  0  0  0  0  0
  -16.0568  -22.9635   -1.9238 O   0  0  0  0  0  0  0  0  0  0  0  0
  -20.2472  -25.2722   -1.1283 O   0  0  0  0  0  0  0  0  0  0  0  0
  -14.2093  -24.4801   -2.2389 C   0  0  0  0  0  0  0  0  0  0  0  0
  -20.6738  -25.7034   -3.4612 C   0  0  0  0  0  0  0  0  0  0  0  0
  -13.4428  -24.9856   -1.0257 C   0  0  2  0  0  0  0  0  0  0  0  0
  -21.7228  -24.8774   -4.1920 C   0  0  2  0  0  0  0  0  0  0  0  0
  -10.9261  -29.1813    0.8821 N   0  0  0  0  0  0  0  0  0  0  0  0
  -11.3495  -28.0660    1.5050 C   0  0  0  0  0  0  0  0  0  0  0  0
  -11.9889  -27.0588    0.8822 N   0  0  0  0  0  0  0  0  0  0  0  0
  -12.2491  -27.1164   -0.4459 C   0  0  0  0  0  0  0  0  0  0  0  0
  -11.8175  -28.3050   -1.1980 C   0  0  0  0  0  0  0  0  0  0  0  0
  -11.1187  -29.3716   -0.4424 C   0  0  0  0  0  0  0  0  0  0  0  0
  -10.6885  -30.4993   -1.0580 N   0  0  0  0  0  0  0  0  0  0  0  0
  -12.1938  -28.1085   -2.4756 N   0  0  0  0  0  0  0  0  0  0  0  0
  -12.8116  -26.9012   -2.5374 C   0  0  0  0  0  0  0  0  0  0  0  0
  -12.8449  -26.3098   -1.3277 N   0  0  0  0  0  0  0  0  0  0  0  0
  -23.3498  -25.8605   -9.0868 N   0  0  0  0  0  0  0  0  0  0  0  0
  -23.9707  -26.0606   -7.9095 C   0  0  0  0  0  0  0  0  0  0  0  0
  -23.4272  -25.7577   -6.7169 N   0  0  0  0  0  0  0  0  0  0  0  0
  -22.1869  -25.2180   -6.6361 C   0  0  0  0  0  0  0  0  0  0  0  0
  -21.4435  -24.9686   -7.8808 C   0  0  0  0  0  0  0  0  0  0  0  0
  -22.1102  -25.3290   -9.1544 C   0  0  0  0  0  0  0  0  0  0  0  0
  -21.4955  -25.1317  -10.3466 N   0  0  0  0  0  0  0  0  0  0  0  0
  -20.2602  -24.4366   -7.5210 N   0  0  0  0  0  0  0  0  0  0  0  0
  -20.2469  -24.3532   -6.1658 C   0  0  0  0  0  0  0  0  0  0  0  0
  -21.3943  -24.8187   -5.6387 N   0  0  0  0  0  0  0  0  0  0  0  0
  1  3  1  1  0  0  0
  1  5  2  0  0  0  0
  1  9  1  0  0  0  0
  1 18  1  0  0  0  0
  2  4  1  6  0  0  0
  2  6  2  0  0  0  0
  2 10  1  0  0  0  0
  2 17  1  0  0  0  0
  7  9  1  0  0  0  0
  8 10  1  0  0  0  0
 11  7  1  6  0  0  0
 11 13  1  0  0  0  0
 11 15  1  0  0  0  0
 12  8  1  6  0  0  0
 12 14  1  0  0  0  0
 12 16  1  0  0  0  0
 13 21  1  0  0  0  0
 14 22  1  0  0  0  0
 15 17  1  1  0  0  0
 15 19  1  0  0  0  0
 16 18  1  1  0  0  0
 16 20  1  0  0  0  0
 19 21  1  0  0  0  0
 20 22  1  0  0  0  0
 21 32  1  6  0  0  0
 22 42  1  6  0  0  0
 23 24  2  0  0  0  0
 23 28  1  0  0  0  0
 24 25  1  0  0  0  0
 25 26  2  0  0  0  0
 26 27  1  0  0  0  0
 26 32  1  0  0  0  0
 27 28  2  0  0  0  0
 27 30  1  0  0  0  0
 28 29  1  0  0  0  0
 30 31  2  0  0  0  0
 31 32  1  0  0  0  0
 33 34  2  0  0  0  0
 33 38  1  0  0  0  0
 34 35  1  0  0  0  0
 35 36  2  0  0  0  0
 36 37  1  0  0  0  0
 36 42  1  0  0  0  0
 37 38  2  0  0  0  0
 37 40  1  0  0  0  0
 38 39  1  0  0  0  0
 40 41  2  0  0  0  0
 41 42  1  0  0  0  0
M  CHG  2   3  -1   4  -1
M  END
>  <CHROM.1>
-52.73724819,-119.20761283,-17.55115864,-25.38159974,-2.85645762,0.39448717
-0.49927284,1.10786926

>  <Name>
ligand

>  <RI>
0

>  <Rbt.Current_Directory>
/home/itssahil/PROJECTS/Mol_Feturizer/New_Systems/rnas/4QLN

>  <Rbt.Executable>
rbdock ($Id: //depot/dev/client3/rdock/2013.1/src/exe/rbdock.cxx#4 $)

>  <Rbt.Library>
libRbt.so (2013.1, Build901 2013/11/27)

>  <Rbt.Parameter_File>
/export/apps/rDock/src/rDock_2013.1_src/data/scripts/dock_solv.prm

>  <Rbt.Receptor>
prm/blind_docking_100.prm

>  <SCORE>
-6.61317

>  <SCORE.INTER>
-9.47908

>  <SCORE.INTER.CONST>
1

>  <SCORE.INTER.POLAR>
0

>  <SCORE.INTER.ROT>
2

>  <SCORE.INTER.SOLV>
27.5651

>  <SCORE.INTER.VDW>
-20.4411

>  <SCORE.INTER.norm>
-0.225692

>  <SCORE.INTRA>
1.6495

>  <SCORE.INTRA.DIHEDRAL>
0.000215737

>  <SCORE.INTRA.DIHEDRAL.0>
2.39985

>  <SCORE.INTRA.POLAR>
0

>  <SCORE.INTRA.POLAR.0>
0

>  <SCORE.INTRA.REPUL>
0

>  <SCORE.INTRA.REPUL.0>
0

>  <SCORE.INTRA.SOLV>
-0.0216878

>  <SCORE.INTRA.SOLV.lig_0>
-110.958

>  <SCORE.INTRA.VDW>
1.66024

>  <SCORE.INTRA.VDW.0>
-2.34644

>  <SCORE.INTRA.norm>
0.0392738

>  <SCORE.RESTR>
1.21641

>  <SCORE.RESTR.CAVITY>
1.21641

>  <SCORE.RESTR.norm>
0.0289622

>  <SCORE.SYSTEM>
0

>  <SCORE.SYSTEM.CONST>
0

>  <SCORE.SYSTEM.DIHEDRAL>
0

>  <SCORE.SYSTEM.SOLV>
0

>  <SCORE.SYSTEM.norm>
0

>  <SCORE.heavy>
42

>  <SCORE.norm>
-0.157456

>  <RMSD>
28.355

$$$$
ligand
 OpenBabel11021811513D
libRbt.so/2013.1/901 2013/11/27
 42 48  0  0  0  0  0  0  0  0999 V2000
  -15.5333  -22.4801   -3.6736 P   0  0  2  0  0  0  0  0  0  0  0  0
  -18.4322  -25.8002   -1.2063 P   0  0  1  0  0  0  0  0  0  0  0  0
  -15.5907  -21.0251   -3.2705 O   0  5  0  0  0  0  0  0  0  0  0  0
  -18.0103  -26.6069   -2.4111 O   0  5  0  0  0  0  0  0  0  0  0  0
  -14.9029  -22.8728   -4.9883 O   0  0  0  0  0  0  0  0  0  0  0  0
  -19.0930  -26.4850   -0.0342 O   0  0  0  0  0  0  0  0  0  0  0  0
  -18.1441  -22.2467   -3.9672 C   0  0  0  0  0  0  0  0  0  0  0  0
  -15.9846  -25.7002   -0.2302 C   0  0  0  0  0  0  0  0  0  0  0  0
  -17.0294  -23.0726   -3.6349 O   0  0  0  0  0  0  0  0  0  0  0  0
  -17.1472  -24.9970   -0.6622 O   0  0  0  0  0  0  0  0  0  0  0  0
  -19.3686  -22.7081   -3.1859 C   0  0  1  0  0  0  0  0  0  0  0  0
  -14.7505  -25.1026   -0.8943 C   0  0  1  0  0  0  0  0  0  0  0  0
  -20.5574  -22.2813   -3.8567 O   0  0  0  0  0  0  0  0  0  0  0  0
  -13.6994  -26.0714   -0.9194 O   0  0  0  0  0  0  0  0  0  0  0  0
  -19.4140  -24.2229   -3.0773 C   0  0  1  0  0  0  0  0  0  0  0  0
  -15.0396  -24.6935   -2.3298 C   0  0  1  0  0  0  0  0  0  0  0  0
  -19.4008  -24.6154   -1.7081 O   0  0  0  0  0  0  0  0  0  0  0  0
  -14.8001  -23.2994   -2.4980 O   0  0  0  0  0  0  0  0  0  0  0  0
  -20.7111  -24.6615   -3.7314 C   0  0  0  0  0  0  0  0  0  0  0  0
  -14.0923  -25.4930   -3.2033 C   0  0  0  0  0  0  0  0  0  0  0  0
  -21.3922  -23.3877   -4.2092 C   0  0  2  0  0  0  0  0  0  0  0  0
  -13.2690  -26.3516   -2.2537 C   0  0  2  0  0  0  0  0  0  0  0  0
  -23.0815  -26.1779   -8.3250 N   0  0  0  0  0  0  0  0  0  0  0  0
  -23.0839  -26.4783   -7.0132 C   0  0  0  0  0  0  0  0  0  0  0  0
  -22.6122  -25.6569   -6.0572 N   0  0  0  0  0  0  0  0  0  0  0  0
  -22.0945  -24.4460   -6.3745 C   0  0  0  0  0  0  0  0  0  0  0  0
  -22.0570  -24.0441   -7.7893 C   0  0  0  0  0  0  0  0  0  0  0  0
  -22.5944  -25.0031   -8.7836 C   0  0  0  0  0  0  0  0  0  0  0  0
  -22.5982  -24.7118  -10.1067 N   0  0  0  0  0  0  0  0  0  0  0  0
  -21.5033  -22.8175   -7.8255 N   0  0  0  0  0  0  0  0  0  0  0  0
  -21.2115  -22.4642   -6.5475 C   0  0  0  0  0  0  0  0  0  0  0  0
  -21.5641  -23.4346   -5.6825 N   0  0  0  0  0  0  0  0  0  0  0  0
  -16.7960  -30.1467   -3.1081 N   0  0  0  0  0  0  0  0  0  0  0  0
  -16.9754  -28.8407   -2.8366 C   0  0  0  0  0  0  0  0  0  0  0  0
  -15.9667  -27.9731   -2.6380 N   0  0  0  0  0  0  0  0  0  0  0  0
  -14.6765  -28.3819   -2.7032 C   0  0  0  0  0  0  0  0  0  0  0  0
  -14.3984  -29.7964   -2.9962 C   0  0  0  0  0  0  0  0  0  0  0  0
  -15.5630  -30.6893   -3.2029 C   0  0  0  0  0  0  0  0  0  0  0  0
  -15.3953  -32.0063   -3.4777 N   0  0  0  0  0  0  0  0  0  0  0  0
  -13.0587  -29.9306   -3.0037 N   0  0  0  0  0  0  0  0  0  0  0  0
  -12.5262  -28.7099   -2.7384 C   0  0  0  0  0  0  0  0  0  0  0  0
  -13.4896  -27.7876   -2.5593 N   0  0  0  0  0  0  0  0  0  0  0  0
  1  3  1  1  0  0  0
  1  5  2  0  0  0  0
  1  9  1  0  0  0  0
  1 18  1  0  0  0  0
  2  4  1  6  0  0  0
  2  6  2  0  0  0  0
  2 10  1  0  0  0  0
  2 17  1  0  0  0  0
  7  9  1  0  0  0  0
  8 10  1  0  0  0  0
 11  7  1  6  0  0  0
 11 13  1  0  0  0  0
 11 15  1  0  0  0  0
 12  8  1  6  0  0  0
 12 14  1  0  0  0  0
 12 16  1  0  0  0  0
 13 21  1  0  0  0  0
 14 22  1  0  0  0  0
 15 17  1  1  0  0  0
 15 19  1  0  0  0  0
 16 18  1  1  0  0  0
 16 20  1  0  0  0  0
 19 21  1  0  0  0  0
 20 22  1  0  0  0  0
 21 32  1  6  0  0  0
 22 42  1  6  0  0  0
 23 24  2  0  0  0  0
 23 28  1  0  0  0  0
 24 25  1  0  0  0  0
 25 26  2  0  0  0  0
 26 27  1  0  0  0  0
 26 32  1  0  0  0  0
 27 28  2  0  0  0  0
 27 30  1  0  0  0  0
 28 29  1  0  0  0  0
 30 31  2  0  0  0  0
 31 32  1  0  0  0  0
 33 34  2  0  0  0  0
 33 38  1  0  0  0  0
 34 35  1  0  0  0  0
 35 36  2  0  0  0  0
 36 37  1  0  0  0  0
 36 42  1  0  0  0  0
 37 38  2  0  0  0  0
 37 40  1  0  0  0  0
 38 39  1  0  0  0  0
 40 41  2  0  0  0  0
 41 42  1  0  0  0  0
M  CHG  2   3  -1   4  -1
M  END
>  <CHROM.1>
168.51400234,68.74829182,-17.71247194,-25.40712495,-3.65119893,-0.32110172
-0.59065572,0.11354197

>  <Name>
ligand

>  <RI>
0

>  <Rbt.Current_Directory>
/home/itssahil/PROJECTS/Mol_Feturizer/New_Systems/rnas/4QLN

>  <Rbt.Executable>
rbdock ($Id: //depot/dev/client3/rdock/2013.1/src/exe/rbdock.cxx#4 $)

>  <Rbt.Library>
libRbt.so (2013.1, Build901 2013/11/27)

>  <Rbt.Parameter_File>
/export/apps/rDock/src/rDock_2013.1_src/data/scripts/dock_solv.prm

>  <Rbt.Receptor>
prm/blind_docking_100.prm

>  <SCORE>
-2.99183

>  <SCORE.INTER>
-10.4961

>  <SCORE.INTER.CONST>
1

>  <SCORE.INTER.POLAR>
0

>  <SCORE.INTER.ROT>
2

>  <SCORE.INTER.SOLV>
22.0182

>  <SCORE.INTER.VDW>
-19.2702

>  <SCORE.INTER.norm>
-0.249908

>  <SCORE.INTRA>
2.61568

>  <SCORE.INTRA.DIHEDRAL>
0.000333684

>  <SCORE.INTRA.DIHEDRAL.0>
2.39985

>  <SCORE.INTRA.POLAR>
0

>  <SCORE.INTRA.POLAR.0>
0

>  <SCORE.INTRA.REPUL>
0

>  <SCORE.INTRA.REPUL.0>
0

>  <SCORE.INTRA.SOLV>
1.18203

>  <SCORE.INTRA.SOLV.lig_0>
-110.958

>  <SCORE.INTRA.VDW>
2.0245

>  <SCORE.INTRA.VDW.0>
-2.34644

>  <SCORE.INTRA.norm>
0.062278

>  <SCORE.RESTR>
4.88864

>  <SCORE.RESTR.CAVITY>
4.88864

>  <SCORE.RESTR.norm>
0.116396

>  <SCORE.SYSTEM>
0

>  <SCORE.SYSTEM.CONST>
0

>  <SCORE.SYSTEM.DIHEDRAL>
0

>  <SCORE.SYSTEM.SOLV>
0

>  <SCORE.SYSTEM.norm>
0

>  <SCORE.heavy>
42

>  <SCORE.norm>
-0.071234

>  <RMSD>
28.371

$$$$
ligand
 OpenBabel11021811513D
libRbt.so/2013.1/901 2013/11/27
 42 48  0  0  0  0  0  0  0  0999 V2000
  -17.3562  -26.9322   -1.9108 P   0  0  2  0  0  0  0  0  0  0  0  0
  -19.9372  -22.6478   -2.6149 P   0  0  1  0  0  0  0  0  0  0  0  0
  -16.7905  -27.2227   -0.5401 O   0  5  0  0  0  0  0  0  0  0  0  0
  -19.6901  -23.0871   -4.0384 O   0  5  0  0  0  0  0  0  0  0  0  0
  -16.8718  -27.7162   -3.1069 O   0  0  0  0  0  0  0  0  0  0  0  0
  -20.9254  -21.5431   -2.3275 O   0  0  0  0  0  0  0  0  0  0  0  0
  -16.0096  -24.6726   -1.7167 C   0  0  0  0  0  0  0  0  0  0  0  0
  -21.5237  -24.6908   -2.1025 C   0  0  0  0  0  0  0  0  0  0  0  0
  -17.1512  -25.3656   -2.2182 O   0  0  0  0  0  0  0  0  0  0  0  0
  -20.3621  -23.9409   -1.7548 O   0  0  0  0  0  0  0  0  0  0  0  0
  -16.3708  -23.2132   -1.4671 C   0  0  1  0  0  0  0  0  0  0  0  0
  -21.1729  -26.1716   -2.1738 C   0  0  1  0  0  0  0  0  0  0  0  0
  -15.1849  -22.4138   -1.4814 O   0  0  0  0  0  0  0  0  0  0  0  0
  -22.1135  -26.8505   -3.0094 O   0  0  0  0  0  0  0  0  0  0  0  0
  -17.3016  -22.6839   -2.5450 C   0  0  1  0  0  0  0  0  0  0  0  0
  -19.7885  -26.3829   -2.7658 C   0  0  1  0  0  0  0  0  0  0  0  0
  -18.5228  -22.2401   -1.9614 O   0  0  0  0  0  0  0  0  0  0  0  0
  -18.9581  -27.0687   -1.8333 O   0  0  0  0  0  0  0  0  0  0  0  0
  -16.5833  -21.5177   -3.1979 C   0  0  0  0  0  0  0  0  0  0  0  0
  -19.9782  -27.2266   -4.0116 C   0  0  0  0  0  0  0  0  0  0  0  0
  -15.2453  -21.3957   -2.4840 C   0  0  2  0  0  0  0  0  0  0  0  0
  -21.4737  -27.4896   -4.1168 C   0  0  2  0  0  0  0  0  0  0  0  0
  -13.9350  -22.4351   -7.4620 N   0  0  0  0  0  0  0  0  0  0  0  0
  -15.1476  -22.3317   -6.8874 C   0  0  0  0  0  0  0  0  0  0  0  0
  -15.3359  -22.0575   -5.5834 N   0  0  0  0  0  0  0  0  0  0  0  0
  -14.2822  -21.8643   -4.7544 C   0  0  0  0  0  0  0  0  0  0  0  0
  -12.9225  -21.9606   -5.3082 C   0  0  0  0  0  0  0  0  0  0  0  0
  -12.7964  -22.2664   -6.7530 C   0  0  0  0  0  0  0  0  0  0  0  0
  -11.5814  -22.3723   -7.3431 N   0  0  0  0  0  0  0  0  0  0  0  0
  -12.0752  -21.7299   -4.2878 N   0  0  0  0  0  0  0  0  0  0  0  0
  -12.8247  -21.5058   -3.1782 C   0  0  0  0  0  0  0  0  0  0  0  0
  -14.1402  -21.5856   -3.4562 N   0  0  0  0  0  0  0  0  0  0  0  0
  -20.7063  -24.0434   -8.0036 N   0  0  0  0  0  0  0  0  0  0  0  0
  -19.9583  -24.3049   -6.9157 C   0  0  0  0  0  0  0  0  0  0  0  0
  -20.2808  -25.2269   -5.9908 N   0  0  0  0  0  0  0  0  0  0  0  0
  -21.4114  -25.9642   -6.1104 C   0  0  0  0  0  0  0  0  0  0  0  0
  -22.2823  -25.7368   -7.2739 C   0  0  0  0  0  0  0  0  0  0  0  0
  -21.8584  -24.7040   -8.2486 C   0  0  0  0  0  0  0  0  0  0  0  0
  -22.6028  -24.4320   -9.3486 N   0  0  0  0  0  0  0  0  0  0  0  0
  -23.3186  -26.5873   -7.1497 N   0  0  0  0  0  0  0  0  0  0  0  0
  -23.1283  -27.2962   -6.0072 C   0  0  0  0  0  0  0  0  0  0  0  0
  -21.9925  -26.9250   -5.3881 N   0  0  0  0  0  0  0  0  0  0  0  0
  1  3  1  1  0  0  0
  1  5  2  0  0  0  0
  1  9  1  0  0  0  0
  1 18  1  0  0  0  0
  2  4  1  6  0  0  0
  2  6  2  0  0  0  0
  2 10  1  0  0  0  0
  2 17  1  0  0  0  0
  7  9  1  0  0  0  0
  8 10  1  0  0  0  0
 11  7  1  6  0  0  0
 11 13  1  0  0  0  0
 11 15  1  0  0  0  0
 12  8  1  6  0  0  0
 12 14  1  0  0  0  0
 12 16  1  0  0  0  0
 13 21  1  0  0  0  0
 14 22  1  0  0  0  0
 15 17  1  1  0  0  0
 15 19  1  0  0  0  0
 16 18  1  1  0  0  0
 16 20  1  0  0  0  0
 19 21  1  0  0  0  0
 20 22  1  0  0  0  0
 21 32  1  6  0  0  0
 22 42  1  6  0  0  0
 23 24  2  0  0  0  0
 23 28  1  0  0  0  0
 24 25  1  0  0  0  0
 25 26  2  0  0  0  0
 26 27  1  0  0  0  0
 26 32  1  0  0  0  0
 27 28  2  0  0  0  0
 27 30  1  0  0  0  0
 28 29  1  0  0  0  0
 30 31  2  0  0  0  0
 31 32  1  0  0  0  0
 33 34  2  0  0  0  0
 33 38  1  0  0  0  0
 34 35  1  0  0  0  0
 35 36  2  0  0  0  0
 36 37  1  0  0  0  0
 36 42  1  0  0  0  0
 37 38  2  0  0  0  0
 37 40  1  0  0  0  0
 38 39  1  0  0  0  0
 40 41  2  0  0  0  0
 41 42  1  0  0  0  0
M  CHG  2   3  -1   4  -1
M  END
>  <CHROM.1>
116.47789794,97.15051170,-18.19642035,-24.29177162,-4.03708151,-3.10021074
-0.46164740,-1.28461047

>  <Name>
ligand

>  <RI>
0

>  <Rbt.Current_Directory>
/home/itssahil/PROJECTS/Mol_Feturizer/New_Systems/rnas/4QLN

>  <Rbt.Executable>
rbdock ($Id: //depot/dev/client3/rdock/2013.1/src/exe/rbdock.cxx#4 $)

>  <Rbt.Library>
libRbt.so (2013.1, Build901 2013/11/27)

>  <Rbt.Parameter_File>
/export/apps/rDock/src/rDock_2013.1_src/data/scripts/dock_solv.prm

>  <Rbt.Receptor>
prm/blind_docking_80.prm

>  <SCORE>
72.4812

>  <SCORE.INTER>
58.7928

>  <SCORE.INTER.CONST>
1

>  <SCORE.INTER.POLAR>
0

>  <SCORE.INTER.ROT>
2

>  <SCORE.INTER.SOLV>
38.1368

>  <SCORE.INTER.VDW>
21.5496

>  <SCORE.INTER.norm>
1.39983

>  <SCORE.INTRA>
3.02128

>  <SCORE.INTRA.DIHEDRAL>
0.00089799

>  <SCORE.INTRA.DIHEDRAL.0>
2.39985

>  <SCORE.INTRA.POLAR>
0

>  <SCORE.INTRA.POLAR.0>
0

>  <SCORE.INTRA.REPUL>
0

>  <SCORE.INTRA.REPUL.0>
0

>  <SCORE.INTRA.SOLV>
0.461018

>  <SCORE.INTRA.SOLV.lig_0>
-110.958

>  <SCORE.INTRA.VDW>
2.79032

>  <SCORE.INTRA.VDW.0>
-2.34644

>  <SCORE.INTRA.norm>
0.0719352

>  <SCORE.RESTR>
10.6671

>  <SCORE.RESTR.CAVITY>
10.6671

>  <SCORE.RESTR.norm>
0.253978

>  <SCORE.SYSTEM>
0

>  <SCORE.SYSTEM.CONST>
0

>  <SCORE.SYSTEM.DIHEDRAL>
0

>  <SCORE.SYSTEM.SOLV>
0

>  <SCORE.SYSTEM.norm>
0

>  <SCORE.heavy>
42

>  <SCORE.norm>
1.72574

>  <RMSD>
28.375

$$$$
ligand
 OpenBabel11021811513D
libRbt.so/2013.1/901 2013/11/27
 42 48  0  0  0  0  0  0  0  0999 V2000
  -17.4727  -22.0465   -3.4352 P   0  0  2  0  0  0  0  0  0  0  0  0
  -18.3292  -26.2051   -0.6991 P   0  0  1  0  0  0  0  0  0  0  0  0
  -18.1634  -20.7619   -3.0402 O   0  5  0  0  0  0  0  0  0  0  0  0
  -17.6732  -26.7849   -1.9295 O   0  5  0  0  0  0  0  0  0  0  0  0
  -16.8309  -22.1684   -4.7965 O   0  0  0  0  0  0  0  0  0  0  0  0
  -18.5128  -27.0605    0.5314 O   0  0  0  0  0  0  0  0  0  0  0  0
  -19.9118  -23.0481   -3.5028 C   0  0  0  0  0  0  0  0  0  0  0  0
  -16.1378  -24.9502    0.0599 C   0  0  0  0  0  0  0  0  0  0  0  0
  -18.5212  -23.2555   -3.2620 O   0  0  0  0  0  0  0  0  0  0  0  0
  -17.5217  -24.8782   -0.2750 O   0  0  0  0  0  0  0  0  0  0  0  0
  -20.7257  -23.9815   -2.6145 C   0  0  1  0  0  0  0  0  0  0  0  0
  -15.3695  -23.8859   -0.7135 C   0  0  1  0  0  0  0  0  0  0  0  0
  -22.0232  -24.1782   -3.1830 O   0  0  0  0  0  0  0  0  0  0  0  0
  -13.9956  -24.2661   -0.8221 O   0  0  0  0  0  0  0  0  0  0  0  0
  -20.0610  -25.3421   -2.4903 C   0  0  1  0  0  0  0  0  0  0  0  0
  -15.9189  -23.7225   -2.1217 C   0  0  1  0  0  0  0  0  0  0  0  0
  -19.7682  -25.6201   -1.1244 O   0  0  0  0  0  0  0  0  0  0  0  0
  -16.3608  -22.3831   -2.3212 O   0  0  0  0  0  0  0  0  0  0  0  0
  -21.0550  -26.3560   -3.0258 C   0  0  0  0  0  0  0  0  0  0  0  0
  -14.7770  -24.0398   -3.0678 C   0  0  0  0  0  0  0  0  0  0  0  0
  -22.2788  -25.5592   -3.4528 C   0  0  2  0  0  0  0  0  0  0  0  0
  -13.5838  -24.3806   -2.1864 C   0  0  2  0  0  0  0  0  0  0  0  0
  -21.6243  -23.6001   -8.2810 N   0  0  0  0  0  0  0  0  0  0  0  0
  -21.2419  -23.1111   -7.0870 C   0  0  0  0  0  0  0  0  0  0  0  0
  -21.4805  -23.7283   -5.9152 N   0  0  0  0  0  0  0  0  0  0  0  0
  -22.1381  -24.9119   -5.8741 C   0  0  0  0  0  0  0  0  0  0  0  0
  -22.5888  -25.5122   -7.1395 C   0  0  0  0  0  0  0  0  0  0  0  0
  -22.2893  -24.7722   -8.3884 C   0  0  0  0  0  0  0  0  0  0  0  0
  -22.6683  -25.2546   -9.5964 N   0  0  0  0  0  0  0  0  0  0  0  0
  -23.2043  -26.6659   -6.8194 N   0  0  0  0  0  0  0  0  0  0  0  0
  -23.1532  -26.7940   -5.4687 C   0  0  0  0  0  0  0  0  0  0  0  0
  -22.5175  -25.7488   -4.9052 N   0  0  0  0  0  0  0  0  0  0  0  0
  -11.4524  -28.7566   -0.2165 N   0  0  0  0  0  0  0  0  0  0  0  0
  -11.7317  -27.5830    0.3802 C   0  0  0  0  0  0  0  0  0  0  0  0
  -12.2849  -26.5343   -0.2553 N   0  0  0  0  0  0  0  0  0  0  0  0
  -12.6000  -26.6074   -1.5712 C   0  0  0  0  0  0  0  0  0  0  0  0
  -12.3251  -27.8588   -2.2941 C   0  0  0  0  0  0  0  0  0  0  0  0
  -11.7147  -28.9683   -1.5243 C   0  0  0  0  0  0  0  0  0  0  0  0
  -11.4294  -30.1554   -2.1137 N   0  0  0  0  0  0  0  0  0  0  0  0
  -12.7280  -27.6648   -3.5641 N   0  0  0  0  0  0  0  0  0  0  0  0
  -13.2171  -26.4007   -3.6470 C   0  0  0  0  0  0  0  0  0  0  0  0
  -13.1408  -25.7709   -2.4602 N   0  0  0  0  0  0  0  0  0  0  0  0
  1  3  1  1  0  0  0
  1  5  2  0  0  0  0
  1  9  1  0  0  0  0
  1 18  1  0  0  0  0
  2  4  1  6  0  0  0
  2  6  2  0  0  0  0
  2 10  1  0  0  0  0
  2 17  1  0  0  0  0
  7  9  1  0  0  0  0
  8 10  1  0  0  0  0
 11  7  1  6  0  0  0
 11 13  1  0  0  0  0
 11 15  1  0  0  0  0
 12  8  1  6  0  0  0
 12 14  1  0  0  0  0
 12 16  1  0  0  0  0
 13 21  1  0  0  0  0
 14 22  1  0  0  0  0
 15 17  1  1  0  0  0
 15 19  1  0  0  0  0
 16 18  1  1  0  0  0
 16 20  1  0  0  0  0
 19 21  1  0  0  0  0
 20 22  1  0  0  0  0
 21 32  1  6  0  0  0
 22 42  1  6  0  0  0
 23 24  2  0  0  0  0
 23 28  1  0  0  0  0
 24 25  1  0  0  0  0
 25 26  2  0  0  0  0
 26 27  1  0  0  0  0
 26 32  1  0  0  0  0
 27 28  2  0  0  0  0
 27 30  1  0  0  0  0
 28 29  1  0  0  0  0
 30 31  2  0  0  0  0
 31 32  1  0  0  0  0
 33 34  2  0  0  0  0
 33 38  1  0  0  0  0
 34 35  1  0  0  0  0
 35 36  2  0  0  0  0
 36 37  1  0  0  0  0
 36 42  1  0  0  0  0
 37 38  2  0  0  0  0
 37 40  1  0  0  0  0
 38 39  1  0  0  0  0
 40 41  2  0  0  0  0
 41 42  1  0  0  0  0
M  CHG  2   3  -1   4  -1
M  END
>  <CHROM.1>
20.46850874,-29.36397960,-17.66353988,-25.14454471,-3.06983769,-2.96908664
0.49660941,-3.05690430

>  <Name>
ligand

>  <RI>
0

>  <Rbt.Current_Directory>
/home/itssahil/PROJECTS/Mol_Feturizer/New_Systems/rnas/4QLN

>  <Rbt.Executable>
rbdock ($Id: //depot/dev/client3/rdock/2013.1/src/exe/rbdock.cxx#4 $)

>  <Rbt.Library>
libRbt.so (2013.1, Build901 2013/11/27)

>  <Rbt.Parameter_File>
/export/apps/rDock/src/rDock_2013.1_src/data/scripts/dock_solv.prm

>  <Rbt.Receptor>
prm/blind_docking_100.prm

>  <SCORE>
-9.67856

>  <SCORE.INTER>
-12.0844

>  <SCORE.INTER.CONST>
1

>  <SCORE.INTER.POLAR>
0

>  <SCORE.INTER.ROT>
2

>  <SCORE.INTER.SOLV>
24.7618

>  <SCORE.INTER.VDW>
-21.2436

>  <SCORE.INTER.norm>
-0.287724

>  <SCORE.INTRA>
0.880916

>  <SCORE.INTRA.DIHEDRAL>
0.00067183

>  <SCORE.INTRA.DIHEDRAL.0>
2.39985

>  <SCORE.INTRA.POLAR>
0

>  <SCORE.INTRA.POLAR.0>
0

>  <SCORE.INTRA.REPUL>
0

>  <SCORE.INTRA.REPUL.0>
0

>  <SCORE.INTRA.SOLV>
-0.00600072

>  <SCORE.INTRA.SOLV.lig_0>
-110.958

>  <SCORE.INTRA.VDW>
0.883581

>  <SCORE.INTRA.VDW.0>
-2.34644

>  <SCORE.INTRA.norm>
0.0209742

>  <SCORE.RESTR>
1.52494

>  <SCORE.RESTR.CAVITY>
1.52494

>  <SCORE.RESTR.norm>
0.0363082

>  <SCORE.SYSTEM>
0

>  <SCORE.SYSTEM.CONST>
0

>  <SCORE.SYSTEM.DIHEDRAL>
0

>  <SCORE.SYSTEM.SOLV>
0

>  <SCORE.SYSTEM.norm>
0

>  <SCORE.heavy>
42

>  <SCORE.norm>
-0.230442

>  <RMSD>
28.381

$$$$
ligand
 OpenBabel11021811513D
libRbt.so/2013.1/901 2013/11/27
 42 48  0  0  0  0  0  0  0  0999 V2000
  -18.0991  -21.8023   -3.1022 P   0  0  2  0  0  0  0  0  0  0  0  0
  -18.2123  -26.2644   -0.7378 P   0  0  1  0  0  0  0  0  0  0  0  0
  -19.0407  -20.7131   -2.6439 O   0  5  0  0  0  0  0  0  0  0  0  0
  -17.4156  -26.6005   -1.9758 O   0  5  0  0  0  0  0  0  0  0  0  0
  -17.4017  -21.6825   -4.4361 O   0  0  0  0  0  0  0  0  0  0  0  0
  -18.2647  -27.2402    0.4132 O   0  0  0  0  0  0  0  0  0  0  0  0
  -20.2909  -23.2459   -3.3647 C   0  0  0  0  0  0  0  0  0  0  0  0
  -16.3356  -24.6794    0.2207 C   0  0  0  0  0  0  0  0  0  0  0  0
  -18.8952  -23.2010   -3.0733 O   0  0  0  0  0  0  0  0  0  0  0  0
  -17.6950  -24.8475   -0.1746 O   0  0  0  0  0  0  0  0  0  0  0  0
  -20.9345  -24.3905   -2.5911 C   0  0  1  0  0  0  0  0  0  0  0  0
  -15.7660  -23.4254   -0.4307 C   0  0  1  0  0  0  0  0  0  0  0  0
  -22.1490  -24.7848   -3.2353 O   0  0  0  0  0  0  0  0  0  0  0  0
  -14.3415  -23.5230   -0.5013 O   0  0  0  0  0  0  0  0  0  0  0  0
  -20.0204  -25.6030   -2.5395 C   0  0  1  0  0  0  0  0  0  0  0  0
  -16.2906  -23.2524   -1.8472 C   0  0  1  0  0  0  0  0  0  0  0  0
  -19.7235  -25.9339   -1.1863 O   0  0  0  0  0  0  0  0  0  0  0  0
  -16.9797  -22.0113   -1.9646 O   0  0  0  0  0  0  0  0  0  0  0  0
  -20.7781  -26.7404   -3.1987 C   0  0  0  0  0  0  0  0  0  0  0  0
  -15.0783  -23.2623   -2.7583 C   0  0  0  0  0  0  0  0  0  0  0  0
  -22.1198  -26.1613   -3.6222 C   0  0  2  0  0  0  0  0  0  0  0  0
  -13.8709  -23.4401   -1.8488 C   0  0  2  0  0  0  0  0  0  0  0  0
  -20.2007  -24.8107   -8.3203 N   0  0  0  0  0  0  0  0  0  0  0  0
  -19.7673  -24.5013   -7.0843 C   0  0  0  0  0  0  0  0  0  0  0  0
  -20.3658  -24.9226   -5.9549 N   0  0  0  0  0  0  0  0  0  0  0  0
  -21.4702  -25.7054   -6.0038 C   0  0  0  0  0  0  0  0  0  0  0  0
  -22.0057  -26.0876   -7.3198 C   0  0  0  0  0  0  0  0  0  0  0  0
  -21.2919  -25.5840   -8.5172 C   0  0  0  0  0  0  0  0  0  0  0  0
  -21.7180  -25.8892   -9.7666 N   0  0  0  0  0  0  0  0  0  0  0  0
  -23.0877  -26.8539   -7.0862 N   0  0  0  0  0  0  0  0  0  0  0  0
  -23.2333  -26.9540   -5.7401 C   0  0  0  0  0  0  0  0  0  0  0  0
  -22.2691  -26.2697   -5.0947 N   0  0  0  0  0  0  0  0  0  0  0  0
  -14.3118  -28.4986   -3.1867 N   0  0  0  0  0  0  0  0  0  0  0  0
  -15.2638  -27.5876   -2.9123 C   0  0  0  0  0  0  0  0  0  0  0  0
  -15.0026  -26.3106   -2.5794 N   0  0  0  0  0  0  0  0  0  0  0  0
  -13.7270  -25.8607   -2.5006 C   0  0  0  0  0  0  0  0  0  0  0  0
  -12.6294  -26.7975   -2.7870 C   0  0  0  0  0  0  0  0  0  0  0  0
  -12.9984  -28.1870   -3.1467 C   0  0  0  0  0  0  0  0  0  0  0  0
  -12.0488  -29.1135   -3.4259 N   0  0  0  0  0  0  0  0  0  0  0  0
  -11.4847  -26.1041   -2.6397 N   0  0  0  0  0  0  0  0  0  0  0  0
  -11.8198  -24.8356   -2.2896 C   0  0  0  0  0  0  0  0  0  0  0  0
  -13.1551  -24.6906   -2.2066 N   0  0  0  0  0  0  0  0  0  0  0  0
  1  3  1  1  0  0  0
  1  5  2  0  0  0  0
  1  9  1  0  0  0  0
  1 18  1  0  0  0  0
  2  4  1  6  0  0  0
  2  6  2  0  0  0  0
  2 10  1  0  0  0  0
  2 17  1  0  0  0  0
  7  9  1  0  0  0  0
  8 10  1  0  0  0  0
 11  7  1  6  0  0  0
 11 13  1  0  0  0  0
 11 15  1  0  0  0  0
 12  8  1  6  0  0  0
 12 14  1  0  0  0  0
 12 16  1  0  0  0  0
 13 21  1  0  0  0  0
 14 22  1  0  0  0  0
 15 17  1  1  0  0  0
 15 19  1  0  0  0  0
 16 18  1  1  0  0  0
 16 20  1  0  0  0  0
 19 21  1  0  0  0  0
 20 22  1  0  0  0  0
 21 32  1  6  0  0  0
 22 42  1  6  0  0  0
 23 24  2  0  0  0  0
 23 28  1  0  0  0  0
 24 25  1  0  0  0  0
 25 26  2  0  0  0  0
 26 27  1  0  0  0  0
 26 32  1  0  0  0  0
 27 28  2  0  0  0  0
 27 30  1  0  0  0  0
 28 29  1  0  0  0  0
 30 31  2  0  0  0  0
 31 32  1  0  0  0  0
 33 34  2  0  0  0  0
 33 38  1  0  0  0  0
 34 35  1  0  0  0  0
 35 36  2  0  0  0  0
 36 37  1  0  0  0  0
 36 42  1  0  0  0  0
 37 38  2  0  0  0  0
 37 40  1  0  0  0  0
 38 39  1  0  0  0  0
 40 41  2  0  0  0  0
 41 42  1  0  0  0  0
M  CHG  2   3  -1   4  -1
M  END
>  <CHROM.1>
57.80351237,76.27141243,-17.83997377,-25.07310213,-3.24308910,2.83240238
0.38881567,-2.41864584

>  <Name>
ligand

>  <RI>
0

>  <Rbt.Current_Directory>
/home/itssahil/PROJECTS/Mol_Feturizer/New_Systems/rnas/4QLN

>  <Rbt.Executable>
rbdock ($Id: //depot/dev/client3/rdock/2013.1/src/exe/rbdock.cxx#4 $)

>  <Rbt.Library>
libRbt.so (2013.1, Build901 2013/11/27)

>  <Rbt.Parameter_File>
/export/apps/rDock/src/rDock_2013.1_src/data/scripts/dock_solv.prm

>  <Rbt.Receptor>
prm/blind_docking_60.prm

>  <SCORE>
3.55591

>  <SCORE.INTER>
-6.52878

>  <SCORE.INTER.CONST>
1

>  <SCORE.INTER.POLAR>
0

>  <SCORE.INTER.ROT>
2

>  <SCORE.INTER.SOLV>
38.6574

>  <SCORE.INTER.VDW>
-22.1717

>  <SCORE.INTER.norm>
-0.155447

>  <SCORE.INTRA>
1.25917

>  <SCORE.INTRA.DIHEDRAL>
0.000685341

>  <SCORE.INTRA.DIHEDRAL.0>
2.39985

>  <SCORE.INTRA.POLAR>
0

>  <SCORE.INTRA.POLAR.0>
0

>  <SCORE.INTRA.REPUL>
0

>  <SCORE.INTRA.REPUL.0>
0

>  <SCORE.INTRA.SOLV>
1.13476

>  <SCORE.INTRA.SOLV.lig_0>
-110.958

>  <SCORE.INTRA.VDW>
0.691447

>  <SCORE.INTRA.VDW.0>
-2.34644

>  <SCORE.INTRA.norm>
0.0299802

>  <SCORE.RESTR>
8.82552

>  <SCORE.RESTR.CAVITY>
8.82552

>  <SCORE.RESTR.norm>
0.210131

>  <SCORE.SYSTEM>
0

>  <SCORE.SYSTEM.CONST>
0

>  <SCORE.SYSTEM.DIHEDRAL>
0

>  <SCORE.SYSTEM.SOLV>
0

>  <SCORE.SYSTEM.norm>
0

>  <SCORE.heavy>
42

>  <SCORE.norm>
0.0846646

>  <RMSD>
28.382

$$$$
ligand
 OpenBabel11021811513D
libRbt.so/2013.1/901 2013/11/27
 42 48  0  0  0  0  0  0  0  0999 V2000
  -19.3559  -26.2508   -0.4606 P   0  0  2  0  0  0  0  0  0  0  0  0
  -18.2103  -22.7184   -3.8846 P   0  0  1  0  0  0  0  0  0  0  0  0
  -19.1534  -25.9364    1.0033 O   0  5  0  0  0  0  0  0  0  0  0  0
  -18.3412  -23.9470   -4.7527 O   0  5  0  0  0  0  0  0  0  0  0  0
  -19.5576  -27.6804   -0.9028 O   0  0  0  0  0  0  0  0  0  0  0  0
  -18.1456  -21.3500   -4.5193 O   0  0  0  0  0  0  0  0  0  0  0  0
  -16.8138  -25.5899   -0.7008 C   0  0  0  0  0  0  0  0  0  0  0  0
  -20.7724  -22.7039   -3.2610 C   0  0  0  0  0  0  0  0  0  0  0  0
  -18.1151  -25.6390   -1.2833 O   0  0  0  0  0  0  0  0  0  0  0  0
  -19.4172  -22.7233   -2.8187 O   0  0  0  0  0  0  0  0  0  0  0  0
  -16.0527  -24.3932   -1.2585 C   0  0  1  0  0  0  0  0  0  0  0  0
  -21.5559  -23.8027   -2.5539 C   0  0  1  0  0  0  0  0  0  0  0  0
  -14.6457  -24.6098   -1.1206 O   0  0  0  0  0  0  0  0  0  0  0  0
  -22.7036  -24.1531   -3.3308 O   0  0  0  0  0  0  0  0  0  0  0  0
  -16.3496  -24.1909   -2.7348 C   0  0  1  0  0  0  0  0  0  0  0  0
  -20.7132  -25.0560   -2.3787 C   0  0  1  0  0  0  0  0  0  0  0  0
  -16.9130  -22.9001   -2.9476 O   0  0  0  0  0  0  0  0  0  0  0  0
  -20.5975  -25.3774   -0.9958 O   0  0  0  0  0  0  0  0  0  0  0  0
  -15.0213  -24.3043   -3.4595 C   0  0  0  0  0  0  0  0  0  0  0  0
  -21.4389  -26.1675   -3.1119 C   0  0  0  0  0  0  0  0  0  0  0  0
  -13.9782  -24.5730   -2.3849 C   0  0  2  0  0  0  0  0  0  0  0  0
  -22.6928  -25.5347   -3.6984 C   0  0  2  0  0  0  0  0  0  0  0  0
  -11.0805  -28.4722   -0.3906 N   0  0  0  0  0  0  0  0  0  0  0  0
  -11.5294  -27.3421    0.1862 C   0  0  0  0  0  0  0  0  0  0  0  0
  -12.2713  -26.4198   -0.4540 N   0  0  0  0  0  0  0  0  0  0  0  0
  -12.6171  -26.5854   -1.7532 C   0  0  0  0  0  0  0  0  0  0  0  0
  -12.1643  -27.7971   -2.4543 C   0  0  0  0  0  0  0  0  0  0  0  0
  -11.3505  -28.7659   -1.6822 C   0  0  0  0  0  0  0  0  0  0  0  0
  -10.8936  -29.9073   -2.2515 N   0  0  0  0  0  0  0  0  0  0  0  0
  -12.6382  -27.7129   -3.7116 N   0  0  0  0  0  0  0  0  0  0  0  0
  -13.3329  -26.5505   -3.8083 C   0  0  0  0  0  0  0  0  0  0  0  0
  -13.3207  -25.8784   -2.6411 N   0  0  0  0  0  0  0  0  0  0  0  0
  -19.7485  -25.4695   -8.0457 N   0  0  0  0  0  0  0  0  0  0  0  0
  -19.3964  -25.3065   -6.7569 C   0  0  0  0  0  0  0  0  0  0  0  0
  -20.2679  -25.3483   -5.7330 N   0  0  0  0  0  0  0  0  0  0  0  0
  -21.5875  -25.5637   -5.9528 C   0  0  0  0  0  0  0  0  0  0  0  0
  -22.0508  -25.7517   -7.3363 C   0  0  0  0  0  0  0  0  0  0  0  0
  -21.0300  -25.6921   -8.4090 C   0  0  0  0  0  0  0  0  0  0  0  0
  -21.3719  -25.8554   -9.7107 N   0  0  0  0  0  0  0  0  0  0  0  0
  -23.3817  -25.9453   -7.2724 N   0  0  0  0  0  0  0  0  0  0  0  0
  -23.7389  -25.8860   -5.9636 C   0  0  0  0  0  0  0  0  0  0  0  0
  -22.6704  -25.6586   -5.1777 N   0  0  0  0  0  0  0  0  0  0  0  0
  1  3  1  1  0  0  0
  1  5  2  0  0  0  0
  1  9  1  0  0  0  0
  1 18  1  0  0  0  0
  2  4  1  6  0  0  0
  2  6  2  0  0  0  0
  2 10  1  0  0  0  0
  2 17  1  0  0  0  0
  7  9  1  0  0  0  0
  8 10  1  0  0  0  0
 11  7  1  6  0  0  0
 11 13  1  0  0  0  0
 11 15  1  0  0  0  0
 12  8  1  6  0  0  0
 12 14  1  0  0  0  0
 12 16  1  0  0  0  0
 13 21  1  0  0  0  0
 14 22  1  0  0  0  0
 15 17  1  1  0  0  0
 15 19  1  0  0  0  0
 16 18  1  1  0  0  0
 16 20  1  0  0  0  0
 19 21  1  0  0  0  0
 20 22  1  0  0  0  0
 21 32  1  6  0  0  0
 22 42  1  6  0  0  0
 23 24  2  0  0  0  0
 23 28  1  0  0  0  0
 24 25  1  0  0  0  0
 25 26  2  0  0  0  0
 26 27  1  0  0  0  0
 26 32  1  0  0  0  0
 27 28  2  0  0  0  0
 27 30  1  0  0  0  0
 28 29  1  0  0  0  0
 30 31  2  0  0  0  0
 31 32  1  0  0  0  0
 33 34  2  0  0  0  0
 33 38  1  0  0  0  0
 34 35  1  0  0  0  0
 35 36  2  0  0  0  0
 36 37  1  0  0  0  0
 36 42  1  0  0  0  0
 37 38  2  0  0  0  0
 37 40  1  0  0  0  0
 38 39  1  0  0  0  0
 40 41  2  0  0  0  0
 41 42  1  0  0  0  0
M  CHG  2   3  -1   4  -1
M  END
>  <CHROM.1>
-43.71061665,81.69658135,-17.89382839,-25.39662190,-3.22517246,2.75874409
0.25585823,-1.65226330

>  <Name>
ligand

>  <RI>
0

>  <Rbt.Current_Directory>
/home/itssahil/PROJECTS/Mol_Feturizer/New_Systems/rnas/4QLN

>  <Rbt.Executable>
rbdock ($Id: //depot/dev/client3/rdock/2013.1/src/exe/rbdock.cxx#4 $)

>  <Rbt.Library>
libRbt.so (2013.1, Build901 2013/11/27)

>  <Rbt.Parameter_File>
/export/apps/rDock/src/rDock_2013.1_src/data/scripts/dock_solv.prm

>  <Rbt.Receptor>
prm/blind_docking_100.prm

>  <SCORE>
-9.81893

>  <SCORE.INTER>
-13.8216

>  <SCORE.INTER.CONST>
1

>  <SCORE.INTER.POLAR>
0

>  <SCORE.INTER.ROT>
2

>  <SCORE.INTER.SOLV>
30.3444

>  <SCORE.INTER.VDW>
-24.2626

>  <SCORE.INTER.norm>
-0.329087

>  <SCORE.INTRA>
2.39579

>  <SCORE.INTRA.DIHEDRAL>
0.00102872

>  <SCORE.INTRA.DIHEDRAL.0>
2.39985

>  <SCORE.INTRA.POLAR>
0

>  <SCORE.INTRA.POLAR.0>
0

>  <SCORE.INTRA.REPUL>
0

>  <SCORE.INTRA.REPUL.0>
0

>  <SCORE.INTRA.SOLV>
0.979899

>  <SCORE.INTRA.SOLV.lig_0>
-110.958

>  <SCORE.INTRA.VDW>
1.90532

>  <SCORE.INTRA.VDW.0>
-2.34644

>  <SCORE.INTRA.norm>
0.0570426

>  <SCORE.RESTR>
1.60693

>  <SCORE.RESTR.CAVITY>
1.60693

>  <SCORE.RESTR.norm>
0.0382602

>  <SCORE.SYSTEM>
0

>  <SCORE.SYSTEM.CONST>
0

>  <SCORE.SYSTEM.DIHEDRAL>
0

>  <SCORE.SYSTEM.SOLV>
0

>  <SCORE.SYSTEM.norm>
0

>  <SCORE.heavy>
42

>  <SCORE.norm>
-0.233784

>  <RMSD>
28.384

$$$$
ligand
 OpenBabel11021811513D
libRbt.so/2013.1/901 2013/11/27
 42 48  0  0  0  0  0  0  0  0999 V2000
  -17.4609  -22.0441   -3.4209 P   0  0  2  0  0  0  0  0  0  0  0  0
  -18.3322  -26.2071   -0.6962 P   0  0  1  0  0  0  0  0  0  0  0  0
  -18.1478  -20.7584   -3.0231 O   0  5  0  0  0  0  0  0  0  0  0  0
  -17.6771  -26.7857   -1.9277 O   0  5  0  0  0  0  0  0  0  0  0  0
  -16.8184  -22.1645   -4.7820 O   0  0  0  0  0  0  0  0  0  0  0  0
  -18.5192  -27.0651    0.5319 O   0  0  0  0  0  0  0  0  0  0  0  0
  -19.9030  -23.0379   -3.4928 C   0  0  0  0  0  0  0  0  0  0  0  0
  -16.1374  -24.9609    0.0676 C   0  0  0  0  0  0  0  0  0  0  0  0
  -18.5132  -23.2503   -3.2516 O   0  0  0  0  0  0  0  0  0  0  0  0
  -17.5208  -24.8838   -0.2681 O   0  0  0  0  0  0  0  0  0  0  0  0
  -20.7204  -23.9711   -2.6075 C   0  0  1  0  0  0  0  0  0  0  0  0
  -15.3652  -23.8971   -0.7025 C   0  0  1  0  0  0  0  0  0  0  0  0
  -22.0181  -24.1623   -3.1773 O   0  0  0  0  0  0  0  0  0  0  0  0
  -13.9925  -24.2813   -0.8112 O   0  0  0  0  0  0  0  0  0  0  0  0
  -20.0601  -25.3341   -2.4864 C   0  0  1  0  0  0  0  0  0  0  0  0
  -15.9132  -23.7284   -2.1107 C   0  0  1  0  0  0  0  0  0  0  0  0
  -19.7691  -25.6165   -1.1210 O   0  0  0  0  0  0  0  0  0  0  0  0
  -16.3507  -22.3870   -2.3070 O   0  0  0  0  0  0  0  0  0  0  0  0
  -21.0568  -26.3434   -3.0251 C   0  0  0  0  0  0  0  0  0  0  0  0
  -14.7716  -24.0467   -3.0568 C   0  0  0  0  0  0  0  0  0  0  0  0
  -22.2778  -25.5418   -3.4509 C   0  0  2  0  0  0  0  0  0  0  0  0
  -13.5801  -24.3935   -2.1755 C   0  0  2  0  0  0  0  0  0  0  0  0
  -21.6022  -23.5789   -8.2747 N   0  0  0  0  0  0  0  0  0  0  0  0
  -21.2176  -23.0949   -7.0792 C   0  0  0  0  0  0  0  0  0  0  0  0
  -21.4624  -23.7125   -5.9089 N   0  0  0  0  0  0  0  0  0  0  0  0
  -22.1291  -24.8911   -5.8708 C   0  0  0  0  0  0  0  0  0  0  0  0
  -22.5827  -25.4856   -7.1379 C   0  0  0  0  0  0  0  0  0  0  0  0
  -22.2760  -24.7456   -8.3851 C   0  0  0  0  0  0  0  0  0  0  0  0
  -22.6571  -25.2229   -9.5945 N   0  0  0  0  0  0  0  0  0  0  0  0
  -23.2074  -26.6352   -6.8207 N   0  0  0  0  0  0  0  0  0  0  0  0
  -23.1590  -26.7662   -5.4703 C   0  0  0  0  0  0  0  0  0  0  0  0
  -22.5160  -25.7268   -4.9039 N   0  0  0  0  0  0  0  0  0  0  0  0
  -11.4625  -28.7807   -0.2158 N   0  0  0  0  0  0  0  0  0  0  0  0
  -11.7384  -27.6078    0.3837 C   0  0  0  0  0  0  0  0  0  0  0  0
  -12.2882  -26.5559   -0.2494 N   0  0  0  0  0  0  0  0  0  0  0  0
  -12.6032  -26.6248   -1.5655 C   0  0  0  0  0  0  0  0  0  0  0  0
  -12.3318  -27.8752   -2.2914 C   0  0  0  0  0  0  0  0  0  0  0  0
  -11.7250  -28.9885   -1.5241 C   0  0  0  0  0  0  0  0  0  0  0  0
  -11.4432  -30.1750   -2.1165 N   0  0  0  0  0  0  0  0  0  0  0  0
  -12.7338  -27.6768   -3.5610 N   0  0  0  0  0  0  0  0  0  0  0  0
  -13.2191  -26.4111   -3.6410 C   0  0  0  0  0  0  0  0  0  0  0  0
  -13.1412  -25.7844   -2.4526 N   0  0  0  0  0  0  0  0  0  0  0  0
  1  3  1  1  0  0  0
  1  5  2  0  0  0  0
  1  9  1  0  0  0  0
  1 18  1  0  0  0  0
  2  4  1  6  0  0  0
  2  6  2  0  0  0  0
  2 10  1  0  0  0  0
  2 17  1  0  0  0  0
  7  9  1  0  0  0  0
  8 10  1  0  0  0  0
 11  7  1  6  0  0  0
 11 13  1  0  0  0  0
 11 15  1  0  0  0  0
 12  8  1  6  0  0  0
 12 14  1  0  0  0  0
 12 16  1  0  0  0  0
 13 21  1  0  0  0  0
 14 22  1  0  0  0  0
 15 17  1  1  0  0  0
 15 19  1  0  0  0  0
 16 18  1  1  0  0  0
 16 20  1  0  0  0  0
 19 21  1  0  0  0  0
 20 22  1  0  0  0  0
 21 32  1  6  0  0  0
 22 42  1  6  0  0  0
 23 24  2  0  0  0  0
 23 28  1  0  0  0  0
 24 25  1  0  0  0  0
 25 26  2  0  0  0  0
 26 27  1  0  0  0  0
 26 32  1  0  0  0  0
 27 28  2  0  0  0  0
 27 30  1  0  0  0  0
 28 29  1  0  0  0  0
 30 31  2  0  0  0  0
 31 32  1  0  0  0  0
 33 34  2  0  0  0  0
 33 38  1  0  0  0  0
 34 35  1  0  0  0  0
 35 36  2  0  0  0  0
 36 37  1  0  0  0  0
 36 42  1  0  0  0  0
 37 38  2  0  0  0  0
 37 40  1  0  0  0  0
 38 39  1  0  0  0  0
 40 41  2  0  0  0  0
 41 42  1  0  0  0  0
M  CHG  2   3  -1   4  -1
M  END
>  <CHROM.1>
20.73291232,-29.38951650,-17.66049216,-25.14297524,-3.06383674,-2.96684931
0.49791475,-3.05380749

>  <Name>
ligand

>  <RI>
0

>  <Rbt.Current_Directory>
/home/itssahil/PROJECTS/Mol_Feturizer/New_Systems/rnas/4QLN

>  <Rbt.Executable>
rbdock ($Id: //depot/dev/client3/rdock/2013.1/src/exe/rbdock.cxx#4 $)

>  <Rbt.Library>
libRbt.so (2013.1, Build901 2013/11/27)

>  <Rbt.Parameter_File>
/export/apps/rDock/src/rDock_2013.1_src/data/scripts/dock_solv.prm

>  <Rbt.Receptor>
prm/blind_docking_100.prm

>  <SCORE>
-9.6717

>  <SCORE.INTER>
-12.0754

>  <SCORE.INTER.CONST>
1

>  <SCORE.INTER.POLAR>
0

>  <SCORE.INTER.ROT>
2

>  <SCORE.INTER.SOLV>
24.6762

>  <SCORE.INTER.VDW>
-21.209

>  <SCORE.INTER.norm>
-0.28751

>  <SCORE.INTRA>
0.8814

>  <SCORE.INTRA.DIHEDRAL>
0.00067015

>  <SCORE.INTRA.DIHEDRAL.0>
2.39985

>  <SCORE.INTRA.POLAR>
0

>  <SCORE.INTRA.POLAR.0>
0

>  <SCORE.INTRA.REPUL>
0

>  <SCORE.INTRA.REPUL.0>
0

>  <SCORE.INTRA.SOLV>
-0.00599932

>  <SCORE.INTRA.SOLV.lig_0>
-110.958

>  <SCORE.INTRA.VDW>
0.884064

>  <SCORE.INTRA.VDW.0>
-2.34644

>  <SCORE.INTRA.norm>
0.0209857

>  <SCORE.RESTR>
1.52233

>  <SCORE.RESTR.CAVITY>
1.52233

>  <SCORE.RESTR.norm>
0.0362459

>  <SCORE.SYSTEM>
0

>  <SCORE.SYSTEM.CONST>
0

>  <SCORE.SYSTEM.DIHEDRAL>
0

>  <SCORE.SYSTEM.SOLV>
0

>  <SCORE.SYSTEM.norm>
0

>  <SCORE.heavy>
42

>  <SCORE.norm>
-0.230279

>  <RMSD>
28.384

$$$$
ligand
 OpenBabel11021811513D
libRbt.so/2013.1/901 2013/11/27
 42 48  0  0  0  0  0  0  0  0999 V2000
  -17.0489  -22.1998   -3.5293 P   0  0  2  0  0  0  0  0  0  0  0  0
  -18.3978  -26.1167   -0.6392 P   0  0  1  0  0  0  0  0  0  0  0  0
  -17.5867  -20.8287   -3.1918 O   0  5  0  0  0  0  0  0  0  0  0  0
  -17.8082  -26.8180   -1.8395 O   0  5  0  0  0  0  0  0  0  0  0  0
  -16.4192  -22.4504   -4.8786 O   0  0  0  0  0  0  0  0  0  0  0  0
  -18.6857  -26.8945    0.6224 O   0  0  0  0  0  0  0  0  0  0  0  0
  -19.5879  -22.9125   -3.5802 C   0  0  0  0  0  0  0  0  0  0  0  0
  -16.0785  -25.0958    0.0902 C   0  0  0  0  0  0  0  0  0  0  0  0
  -18.2321  -23.2706   -3.3183 O   0  0  0  0  0  0  0  0  0  0  0  0
  -17.4430  -24.8768   -0.2603 O   0  0  0  0  0  0  0  0  0  0  0  0
  -20.5093  -23.7082   -2.6634 C   0  0  1  0  0  0  0  0  0  0  0  0
  -15.1876  -24.1604   -0.7174 C   0  0  1  0  0  0  0  0  0  0  0  0
  -21.8182  -23.7753   -3.2357 O   0  0  0  0  0  0  0  0  0  0  0  0
  -13.8670  -24.7020   -0.7980 O   0  0  0  0  0  0  0  0  0  0  0  0
  -20.0086  -25.1308   -2.4793 C   0  0  1  0  0  0  0  0  0  0  0  0
  -15.7076  -23.9910   -2.1361 C   0  0  1  0  0  0  0  0  0  0  0  0
  -19.7567  -25.3857   -1.1007 O   0  0  0  0  0  0  0  0  0  0  0  0
  -15.9891  -22.6184   -2.3924 O   0  0  0  0  0  0  0  0  0  0  0  0
  -21.1115  -26.0428   -2.9835 C   0  0  0  0  0  0  0  0  0  0  0  0
  -14.6060  -24.4769   -3.0581 C   0  0  0  0  0  0  0  0  0  0  0  0
  -22.2320  -25.1269   -3.4532 C   0  0  2  0  0  0  0  0  0  0  0  0
  -13.4649  -24.9186   -2.1528 C   0  0  2  0  0  0  0  0  0  0  0  0
  -20.1486  -25.3436   -8.2689 N   0  0  0  0  0  0  0  0  0  0  0  0
  -19.5651  -25.0978   -7.0813 C   0  0  0  0  0  0  0  0  0  0  0  0
  -20.2311  -25.0728   -5.9121 N   0  0  0  0  0  0  0  0  0  0  0  0
  -21.5655  -25.3016   -5.8671 C   0  0  0  0  0  0  0  0  0  0  0  0
  -22.2761  -25.5787   -7.1252 C   0  0  0  0  0  0  0  0  0  0  0  0
  -21.4741  -25.5885   -8.3717 C   0  0  0  0  0  0  0  0  0  0  0  0
  -22.0497  -25.8355   -9.5731 N   0  0  0  0  0  0  0  0  0  0  0  0
  -23.5694  -25.7666   -6.8023 N   0  0  0  0  0  0  0  0  0  0  0  0
  -23.6787  -25.6227   -5.4568 C   0  0  0  0  0  0  0  0  0  0  0  0
  -22.4843  -25.3458   -4.8991 N   0  0  0  0  0  0  0  0  0  0  0  0
  -15.4952  -29.6750   -3.0623 N   0  0  0  0  0  0  0  0  0  0  0  0
  -16.1061  -28.4852   -2.9118 C   0  0  0  0  0  0  0  0  0  0  0  0
  -15.4517  -27.3329   -2.6802 N   0  0  0  0  0  0  0  0  0  0  0  0
  -14.1004  -27.3093   -2.5836 C   0  0  0  0  0  0  0  0  0  0  0  0
  -13.3599  -28.5711   -2.7371 C   0  0  0  0  0  0  0  0  0  0  0  0
  -14.1522  -29.7976   -2.9904 C   0  0  0  0  0  0  0  0  0  0  0  0
  -13.5485  -31.0017   -3.1445 N   0  0  0  0  0  0  0  0  0  0  0  0
  -12.0550  -28.2695   -2.5994 N   0  0  0  0  0  0  0  0  0  0  0  0
  -11.9678  -26.9327   -2.3769 C   0  0  0  0  0  0  0  0  0  0  0  0
  -13.1859  -26.3609   -2.3673 N   0  0  0  0  0  0  0  0  0  0  0  0
  1  3  1  1  0  0  0
  1  5  2  0  0  0  0
  1  9  1  0  0  0  0
  1 18  1  0  0  0  0
  2  4  1  6  0  0  0
  2  6  2  0  0  0  0
  2 10  1  0  0  0  0
  2 17  1  0  0  0  0
  7  9  1  0  0  0  0
  8 10  1  0  0  0  0
 11  7  1  6  0  0  0
 11 13  1  0  0  0  0
 11 15  1  0  0  0  0
 12  8  1  1  0  0  0
 12 14  1  0  0  0  0
 12 16  1  0  0  0  0
 13 21  1  0  0  0  0
 14 22  1  0  0  0  0
 15 17  1  1  0  0  0
 15 19  1  0  0  0  0
 16 18  1  6  0  0  0
 16 20  1  0  0  0  0
 19 21  1  0  0  0  0
 20 22  1  0  0  0  0
 21 32  1  6  0  0  0
 22 42  1  1  0  0  0
 23 24  2  0  0  0  0
 23 28  1  0  0  0  0
 24 25  1  0  0  0  0
 25 26  2  0  0  0  0
 26 27  1  0  0  0  0
 26 32  1  0  0  0  0
 27 28  2  0  0  0  0
 27 30  1  0  0  0  0
 28 29  1  0  0  0  0
 30 31  2  0  0  0  0
 31 32  1  0  0  0  0
 33 34  2  0  0  0  0
 33 38  1  0  0  0  0
 34 35  1  0  0  0  0
 35 36  2  0  0  0  0
 36 37  1  0  0  0  0
 36 42  1  0  0  0  0
 37 38  2  0  0  0  0
 37 40  1  0  0  0  0
 38 39  1  0  0  0  0
 40 41  2  0  0  0  0
 41 42  1  0  0  0  0
M  CHG  2   3  -1   4  -1
M  END
>  <CHROM.1>
65.49817372,80.31312134,-17.80257598,-25.41269673,-3.28937410,3.09935440
0.52234040,-2.60921161

>  <Name>
ligand

>  <RI>
0

>  <Rbt.Current_Directory>
/home/itssahil/PROJECTS/Mol_Feturizer/New_Systems/rnas/4QLN

>  <Rbt.Executable>
rbdock ($Id: //depot/dev/client3/rdock/2013.1/src/exe/rbdock.cxx#4 $)

>  <Rbt.Library>
libRbt.so (2013.1, Build901 2013/11/27)

>  <Rbt.Parameter_File>
/export/apps/rDock/src/rDock_2013.1_src/data/scripts/dock_solv.prm

>  <Rbt.Receptor>
prm/blind_docking_100.prm

>  <SCORE>
-9.38495

>  <SCORE.INTER>
-13.2153

>  <SCORE.INTER.CONST>
1

>  <SCORE.INTER.POLAR>
0

>  <SCORE.INTER.ROT>
2

>  <SCORE.INTER.SOLV>
25.993

>  <SCORE.INTER.VDW>
-22.4079

>  <SCORE.INTER.norm>
-0.31465

>  <SCORE.INTRA>
1.01032

>  <SCORE.INTRA.DIHEDRAL>
0.000881175

>  <SCORE.INTRA.DIHEDRAL.0>
2.39985

>  <SCORE.INTRA.POLAR>
0

>  <SCORE.INTRA.POLAR.0>
0

>  <SCORE.INTRA.REPUL>
0

>  <SCORE.INTRA.REPUL.0>
0

>  <SCORE.INTRA.SOLV>
1.02812

>  <SCORE.INTRA.SOLV.lig_0>
-110.958

>  <SCORE.INTRA.VDW>
0.495818

>  <SCORE.INTRA.VDW.0>
-2.34644

>  <SCORE.INTRA.norm>
0.0240552

>  <SCORE.RESTR>
2.82003

>  <SCORE.RESTR.CAVITY>
2.82003

>  <SCORE.RESTR.norm>
0.0671437

>  <SCORE.SYSTEM>
0

>  <SCORE.SYSTEM.CONST>
0

>  <SCORE.SYSTEM.DIHEDRAL>
0

>  <SCORE.SYSTEM.SOLV>
0

>  <SCORE.SYSTEM.norm>
0

>  <SCORE.heavy>
42

>  <SCORE.norm>
-0.223451

>  <RMSD>
28.396

$$$$
ligand
 OpenBabel11021811513D
libRbt.so/2013.1/901 2013/11/27
 42 48  0  0  0  0  0  0  0  0999 V2000
  -17.0519  -22.1945   -3.5308 P   0  0  2  0  0  0  0  0  0  0  0  0
  -18.3956  -26.1167   -0.6454 P   0  0  1  0  0  0  0  0  0  0  0  0
  -17.5889  -20.8240   -3.1897 O   0  5  0  0  0  0  0  0  0  0  0  0
  -17.8083  -26.8158   -1.8482 O   0  5  0  0  0  0  0  0  0  0  0  0
  -16.4248  -22.4427   -4.8817 O   0  0  0  0  0  0  0  0  0  0  0  0
  -18.6812  -26.8969    0.6152 O   0  0  0  0  0  0  0  0  0  0  0  0
  -19.5910  -22.9069   -3.5782 C   0  0  0  0  0  0  0  0  0  0  0  0
  -16.0748  -25.0973    0.0814 C   0  0  0  0  0  0  0  0  0  0  0  0
  -18.2347  -23.2656   -3.3195 O   0  0  0  0  0  0  0  0  0  0  0  0
  -17.4399  -24.8776   -0.2661 O   0  0  0  0  0  0  0  0  0  0  0  0
  -20.5107  -23.7043   -2.6611 C   0  0  1  0  0  0  0  0  0  0  0  0
  -15.1853  -24.1605   -0.7261 C   0  0  1  0  0  0  0  0  0  0  0  0
  -21.8208  -23.7702   -3.2311 O   0  0  0  0  0  0  0  0  0  0  0  0
  -13.8649  -24.7020   -0.8103 O   0  0  0  0  0  0  0  0  0  0  0  0
  -20.0098  -25.1273   -2.4806 C   0  0  1  0  0  0  0  0  0  0  0  0
  -15.7080  -23.9884   -2.1435 C   0  0  1  0  0  0  0  0  0  0  0  0
  -19.7553  -25.3847   -1.1030 O   0  0  0  0  0  0  0  0  0  0  0  0
  -15.9899  -22.6153   -2.3967 O   0  0  0  0  0  0  0  0  0  0  0  0
  -21.1138  -26.0382   -2.9845 C   0  0  0  0  0  0  0  0  0  0  0  0
  -14.6083  -24.4727   -3.0686 C   0  0  0  0  0  0  0  0  0  0  0  0
  -22.2350  -25.1213   -3.4502 C   0  0  2  0  0  0  0  0  0  0  0  0
  -13.4655  -24.9161   -2.1663 C   0  0  2  0  0  0  0  0  0  0  0  0
  -20.1739  -25.2599   -8.2784 N   0  0  0  0  0  0  0  0  0  0  0  0
  -19.5898  -25.0075   -7.0925 C   0  0  0  0  0  0  0  0  0  0  0  0
  -20.2497  -25.0052   -5.9196 N   0  0  0  0  0  0  0  0  0  0  0  0
  -21.5780  -25.2658   -5.8687 C   0  0  0  0  0  0  0  0  0  0  0  0
  -22.2888  -25.5521   -7.1247 C   0  0  0  0  0  0  0  0  0  0  0  0
  -21.4938  -25.5355   -8.3755 C   0  0  0  0  0  0  0  0  0  0  0  0
  -22.0701  -25.7889   -9.5752 N   0  0  0  0  0  0  0  0  0  0  0  0
  -23.5756  -25.7725   -6.7960 N   0  0  0  0  0  0  0  0  0  0  0  0
  -23.6807  -25.6393   -5.4490 C   0  0  0  0  0  0  0  0  0  0  0  0
  -22.4901  -25.3375   -4.8961 N   0  0  0  0  0  0  0  0  0  0  0  0
  -15.5003  -29.6772   -3.0405 N   0  0  0  0  0  0  0  0  0  0  0  0
  -16.1112  -28.4885   -2.8814 C   0  0  0  0  0  0  0  0  0  0  0  0
  -15.4555  -27.3348   -2.6609 N   0  0  0  0  0  0  0  0  0  0  0  0
  -14.1029  -27.3085   -2.5853 C   0  0  0  0  0  0  0  0  0  0  0  0
  -13.3624  -28.5689   -2.7494 C   0  0  0  0  0  0  0  0  0  0  0  0
  -14.1561  -29.7972   -2.9894 C   0  0  0  0  0  0  0  0  0  0  0  0
  -13.5525  -31.0002   -3.1520 N   0  0  0  0  0  0  0  0  0  0  0  0
  -12.0560  -28.2646   -2.6322 N   0  0  0  0  0  0  0  0  0  0  0  0
  -11.9680  -26.9275   -2.4121 C   0  0  0  0  0  0  0  0  0  0  0  0
  -13.1870  -26.3581   -2.3840 N   0  0  0  0  0  0  0  0  0  0  0  0
  1  3  1  1  0  0  0
  1  5  2  0  0  0  0
  1  9  1  0  0  0  0
  1 18  1  0  0  0  0
  2  4  1  6  0  0  0
  2  6  2  0  0  0  0
  2 10  1  0  0  0  0
  2 17  1  0  0  0  0
  7  9  1  0  0  0  0
  8 10  1  0  0  0  0
 11  7  1  6  0  0  0
 11 13  1  0  0  0  0
 11 15  1  0  0  0  0
 12  8  1  1  0  0  0
 12 14  1  0  0  0  0
 12 16  1  0  0  0  0
 13 21  1  0  0  0  0
 14 22  1  0  0  0  0
 15 17  1  1  0  0  0
 15 19  1  0  0  0  0
 16 18  1  6  0  0  0
 16 20  1  0  0  0  0
 19 21  1  0  0  0  0
 20 22  1  0  0  0  0
 21 32  1  6  0  0  0
 22 42  1  1  0  0  0
 23 24  2  0  0  0  0
 23 28  1  0  0  0  0
 24 25  1  0  0  0  0
 25 26  2  0  0  0  0
 26 27  1  0  0  0  0
 26 32  1  0  0  0  0
 27 28  2  0  0  0  0
 27 30  1  0  0  0  0
 28 29  1  0  0  0  0
 30 31  2  0  0  0  0
 31 32  1  0  0  0  0
 33 34  2  0  0  0  0
 33 38  1  0  0  0  0
 34 35  1  0  0  0  0
 35 36  2  0  0  0  0
 36 37  1  0  0  0  0
 36 42  1  0  0  0  0
 37 38  2  0  0  0  0
 37 40  1  0  0  0  0
 38 39  1  0  0  0  0
 40 41  2  0  0  0  0
 41 42  1  0  0  0  0
M  CHG  2   3  -1   4  -1
M  END
>  <CHROM.1>
64.10199788,79.50879421,-17.80662230,-25.40264122,-3.29280376,3.10795986
0.52362190,-2.61911053

>  <Name>
ligand

>  <RI>
0

>  <Rbt.Current_Directory>
/home/itssahil/PROJECTS/Mol_Feturizer/New_Systems/rnas/4QLN

>  <Rbt.Executable>
rbdock ($Id: //depot/dev/client3/rdock/2013.1/src/exe/rbdock.cxx#4 $)

>  <Rbt.Library>
libRbt.so (2013.1, Build901 2013/11/27)

>  <Rbt.Parameter_File>
/export/apps/rDock/src/rDock_2013.1_src/data/scripts/dock_solv.prm

>  <Rbt.Receptor>
prm/blind_docking_100.prm

>  <SCORE>
-9.45701

>  <SCORE.INTER>
-13.3348

>  <SCORE.INTER.CONST>
1

>  <SCORE.INTER.POLAR>
0

>  <SCORE.INTER.ROT>
2

>  <SCORE.INTER.SOLV>
25.8414

>  <SCORE.INTER.VDW>
-22.437

>  <SCORE.INTER.norm>
-0.317494

>  <SCORE.INTRA>
1.05817

>  <SCORE.INTRA.DIHEDRAL>
0.000846665

>  <SCORE.INTRA.DIHEDRAL.0>
2.39985

>  <SCORE.INTRA.POLAR>
0

>  <SCORE.INTRA.POLAR.0>
0

>  <SCORE.INTRA.REPUL>
0

>  <SCORE.INTRA.REPUL.0>
0

>  <SCORE.INTRA.SOLV>
1.05154

>  <SCORE.INTRA.SOLV.lig_0>
-110.958

>  <SCORE.INTRA.VDW>
0.531976

>  <SCORE.INTRA.VDW.0>
-2.34644

>  <SCORE.INTRA.norm>
0.0251945

>  <SCORE.RESTR>
2.81958

>  <SCORE.RESTR.CAVITY>
2.81958

>  <SCORE.RESTR.norm>
0.0671328

>  <SCORE.SYSTEM>
0

>  <SCORE.SYSTEM.CONST>
0

>  <SCORE.SYSTEM.DIHEDRAL>
0

>  <SCORE.SYSTEM.SOLV>
0

>  <SCORE.SYSTEM.norm>
0

>  <SCORE.heavy>
42

>  <SCORE.norm>
-0.225167

>  <RMSD>
28.402

$$$$
ligand
 OpenBabel11021811513D
libRbt.so/2013.1/901 2013/11/27
 42 48  0  0  0  0  0  0  0  0999 V2000
  -17.0828  -22.2082   -3.5475 P   0  0  2  0  0  0  0  0  0  0  0  0
  -18.3956  -26.1313   -0.6492 P   0  0  1  0  0  0  0  0  0  0  0  0
  -17.6241  -20.8395   -3.2062 O   0  5  0  0  0  0  0  0  0  0  0  0
  -17.8111  -26.8299   -1.8537 O   0  5  0  0  0  0  0  0  0  0  0  0
  -16.4612  -22.4560   -4.9011 O   0  0  0  0  0  0  0  0  0  0  0  0
  -18.6717  -26.9106    0.6141 O   0  0  0  0  0  0  0  0  0  0  0  0
  -19.6190  -22.9317   -3.5815 C   0  0  0  0  0  0  0  0  0  0  0  0
  -16.0758  -25.1007    0.0647 C   0  0  0  0  0  0  0  0  0  0  0  0
  -18.2600  -23.2840   -3.3288 O   0  0  0  0  0  0  0  0  0  0  0  0
  -17.4435  -24.8875   -0.2765 O   0  0  0  0  0  0  0  0  0  0  0  0
  -20.5309  -23.7314   -2.6586 C   0  0  1  0  0  0  0  0  0  0  0  0
  -15.1943  -24.1614   -0.7487 C   0  0  1  0  0  0  0  0  0  0  0  0
  -21.8433  -23.8039   -3.2222 O   0  0  0  0  0  0  0  0  0  0  0  0
  -13.8720  -24.6974   -0.8383 O   0  0  0  0  0  0  0  0  0  0  0  0
  -20.0229  -25.1519   -2.4782 C   0  0  1  0  0  0  0  0  0  0  0  0
  -15.7245  -23.9940   -2.1638 C   0  0  1  0  0  0  0  0  0  0  0  0
  -19.7606  -25.4060   -1.1015 O   0  0  0  0  0  0  0  0  0  0  0  0
  -16.0136  -22.6225   -2.4180 O   0  0  0  0  0  0  0  0  0  0  0  0
  -21.1254  -26.0685   -2.9752 C   0  0  0  0  0  0  0  0  0  0  0  0
  -14.6272  -24.4751   -3.0933 C   0  0  0  0  0  0  0  0  0  0  0  0
  -22.2528  -25.1572   -3.4371 C   0  0  2  0  0  0  0  0  0  0  0  0
  -13.4782  -24.9121   -2.1958 C   0  0  2  0  0  0  0  0  0  0  0  0
  -20.2155  -25.2894   -8.2756 N   0  0  0  0  0  0  0  0  0  0  0  0
  -19.6270  -25.0316   -7.0930 C   0  0  0  0  0  0  0  0  0  0  0  0
  -20.2809  -25.0319   -5.9168 N   0  0  0  0  0  0  0  0  0  0  0  0
  -21.6073  -25.3008   -5.8587 C   0  0  0  0  0  0  0  0  0  0  0  0
  -22.3227  -25.5933   -7.1107 C   0  0  0  0  0  0  0  0  0  0  0  0
  -21.5341  -25.5734   -8.3656 C   0  0  0  0  0  0  0  0  0  0  0  0
  -22.1150  -25.8320   -9.5620 N   0  0  0  0  0  0  0  0  0  0  0  0
  -23.6063  -25.8213   -6.7751 N   0  0  0  0  0  0  0  0  0  0  0  0
  -23.7054  -25.6869   -5.4278 C   0  0  0  0  0  0  0  0  0  0  0  0
  -22.5139  -25.3769   -4.8814 N   0  0  0  0  0  0  0  0  0  0  0  0
  -15.4979  -29.6888   -3.0177 N   0  0  0  0  0  0  0  0  0  0  0  0
  -16.1134  -28.5032   -2.8532 C   0  0  0  0  0  0  0  0  0  0  0  0
  -15.4612  -27.3447   -2.6481 N   0  0  0  0  0  0  0  0  0  0  0  0
  -14.1077  -27.3098   -2.5949 C   0  0  0  0  0  0  0  0  0  0  0  0
  -13.3623  -28.5665   -2.7663 C   0  0  0  0  0  0  0  0  0  0  0  0
  -14.1524  -29.8004   -2.9884 C   0  0  0  0  0  0  0  0  0  0  0  0
  -13.5442  -31.0004   -3.1562 N   0  0  0  0  0  0  0  0  0  0  0  0
  -12.0561  -28.2538   -2.6720 N   0  0  0  0  0  0  0  0  0  0  0  0
  -11.9727  -26.9153   -2.4586 C   0  0  0  0  0  0  0  0  0  0  0  0
  -13.1945  -26.3531   -2.4125 N   0  0  0  0  0  0  0  0  0  0  0  0
  1  3  1  1  0  0  0
  1  5  2  0  0  0  0
  1  9  1  0  0  0  0
  1 18  1  0  0  0  0
  2  4  1  6  0  0  0
  2  6  2  0  0  0  0
  2 10  1  0  0  0  0
  2 17  1  0  0  0  0
  7  9  1  0  0  0  0
  8 10  1  0  0  0  0
 11  7  1  6  0  0  0
 11 13  1  0  0  0  0
 11 15  1  0  0  0  0
 12  8  1  1  0  0  0
 12 14  1  0  0  0  0
 12 16  1  0  0  0  0
 13 21  1  0  0  0  0
 14 22  1  0  0  0  0
 15 17  1  1  0  0  0
 15 19  1  0  0  0  0
 16 18  1  6  0  0  0
 16 20  1  0  0  0  0
 19 21  1  0  0  0  0
 20 22  1  0  0  0  0
 21 32  1  6  0  0  0
 22 42  1  1  0  0  0
 23 24  2  0  0  0  0
 23 28  1  0  0  0  0
 24 25  1  0  0  0  0
 25 26  2  0  0  0  0
 26 27  1  0  0  0  0
 26 32  1  0  0  0  0
 27 28  2  0  0  0  0
 27 30  1  0  0  0  0
 28 29  1  0  0  0  0
 30 31  2  0  0  0  0
 31 32  1  0  0  0  0
 33 34  2  0  0  0  0
 33 38  1  0  0  0  0
 34 35  1  0  0  0  0
 35 36  2  0  0  0  0
 36 37  1  0  0  0  0
 36 42  1  0  0  0  0
 37 38  2  0  0  0  0
 37 40  1  0  0  0  0
 38 39  1  0  0  0  0
 40 41  2  0  0  0  0
 41 42  1  0  0  0  0
M  CHG  2   3  -1   4  -1
M  END
>  <CHROM.1>
63.98619803,78.81805126,-17.82272189,-25.41915847,-3.29780862,3.10968555
0.51840801,-2.62606438

>  <Name>
ligand

>  <RI>
0

>  <Rbt.Current_Directory>
/home/itssahil/PROJECTS/Mol_Feturizer/New_Systems/rnas/4QLN

>  <Rbt.Executable>
rbdock ($Id: //depot/dev/client3/rdock/2013.1/src/exe/rbdock.cxx#4 $)

>  <Rbt.Library>
libRbt.so (2013.1, Build901 2013/11/27)

>  <Rbt.Parameter_File>
/export/apps/rDock/src/rDock_2013.1_src/data/scripts/dock_solv.prm

>  <Rbt.Receptor>
prm/blind_docking_100.prm

>  <SCORE>
-9.6576

>  <SCORE.INTER>
-13.6428

>  <SCORE.INTER.CONST>
1

>  <SCORE.INTER.POLAR>
0

>  <SCORE.INTER.ROT>
2

>  <SCORE.INTER.SOLV>
25.6876

>  <SCORE.INTER.VDW>
-22.5911

>  <SCORE.INTER.norm>
-0.324829

>  <SCORE.INTRA>
1.1047

>  <SCORE.INTRA.DIHEDRAL>
0.000830473

>  <SCORE.INTRA.DIHEDRAL.0>
2.39985

>  <SCORE.INTRA.POLAR>
0

>  <SCORE.INTRA.POLAR.0>
0

>  <SCORE.INTRA.REPUL>
0

>  <SCORE.INTRA.REPUL.0>
0

>  <SCORE.INTRA.SOLV>
1.0698

>  <SCORE.INTRA.SOLV.lig_0>
-110.958

>  <SCORE.INTRA.VDW>
0.569388

>  <SCORE.INTRA.VDW.0>
-2.34644

>  <SCORE.INTRA.norm>
0.0263024

>  <SCORE.RESTR>
2.88053

>  <SCORE.RESTR.CAVITY>
2.88053

>  <SCORE.RESTR.norm>
0.0685841

>  <SCORE.SYSTEM>
0

>  <SCORE.SYSTEM.CONST>
0

>  <SCORE.SYSTEM.DIHEDRAL>
0

>  <SCORE.SYSTEM.SOLV>
0

>  <SCORE.SYSTEM.norm>
0

>  <SCORE.heavy>
42

>  <SCORE.norm>
-0.229943

>  <RMSD>
28.407

$$$$
ligand
 OpenBabel11021811513D
libRbt.so/2013.1/901 2013/11/27
 42 48  0  0  0  0  0  0  0  0999 V2000
  -17.0683  -22.1958   -3.5474 P   0  0  2  0  0  0  0  0  0  0  0  0
  -18.3963  -26.1073   -0.6403 P   0  0  1  0  0  0  0  0  0  0  0  0
  -17.6060  -20.8246   -3.2104 O   0  5  0  0  0  0  0  0  0  0  0  0
  -17.8124  -26.8108   -1.8422 O   0  5  0  0  0  0  0  0  0  0  0  0
  -16.4458  -22.4491   -4.8996 O   0  0  0  0  0  0  0  0  0  0  0  0
  -18.6762  -26.8824    0.6247 O   0  0  0  0  0  0  0  0  0  0  0  0
  -19.6067  -22.9119   -3.5826 C   0  0  0  0  0  0  0  0  0  0  0  0
  -16.0742  -25.0817    0.0737 C   0  0  0  0  0  0  0  0  0  0  0  0
  -18.2490  -23.2676   -3.3273 O   0  0  0  0  0  0  0  0  0  0  0  0
  -17.4409  -24.8653   -0.2698 O   0  0  0  0  0  0  0  0  0  0  0  0
  -20.5220  -23.7065   -2.6587 C   0  0  1  0  0  0  0  0  0  0  0  0
  -15.1890  -24.1471   -0.7411 C   0  0  1  0  0  0  0  0  0  0  0  0
  -21.8340  -23.7766   -3.2237 O   0  0  0  0  0  0  0  0  0  0  0  0
  -13.8682  -24.6873   -0.8277 O   0  0  0  0  0  0  0  0  0  0  0  0
  -20.0185  -25.1280   -2.4739 C   0  0  1  0  0  0  0  0  0  0  0  0
  -15.7170  -23.9819   -2.1573 C   0  0  1  0  0  0  0  0  0  0  0  0
  -19.7586  -25.3792   -1.0961 O   0  0  0  0  0  0  0  0  0  0  0  0
  -16.0017  -22.6103   -2.4155 O   0  0  0  0  0  0  0  0  0  0  0  0
  -21.1230  -26.0426   -2.9698 C   0  0  0  0  0  0  0  0  0  0  0  0
  -14.6200  -24.4688   -3.0842 C   0  0  0  0  0  0  0  0  0  0  0  0
  -22.2472  -25.1293   -3.4355 C   0  0  2  0  0  0  0  0  0  0  0  0
  -13.4734  -24.9067   -2.1842 C   0  0  2  0  0  0  0  0  0  0  0  0
  -20.2064  -25.2707   -8.2722 N   0  0  0  0  0  0  0  0  0  0  0  0
  -19.6188  -25.0103   -7.0898 C   0  0  0  0  0  0  0  0  0  0  0  0
  -20.2736  -25.0084   -5.9140 N   0  0  0  0  0  0  0  0  0  0  0  0
  -21.5999  -25.2776   -5.8564 C   0  0  0  0  0  0  0  0  0  0  0  0
  -22.3143  -25.5729   -7.1082 C   0  0  0  0  0  0  0  0  0  0  0  0
  -21.5249  -25.5554   -8.3626 C   0  0  0  0  0  0  0  0  0  0  0  0
  -22.1048  -25.8166   -9.5589 N   0  0  0  0  0  0  0  0  0  0  0  0
  -23.5981  -25.8007   -6.7730 N   0  0  0  0  0  0  0  0  0  0  0  0
  -23.6982  -25.6636   -5.4261 C   0  0  0  0  0  0  0  0  0  0  0  0
  -22.5072  -25.3520   -4.8795 N   0  0  0  0  0  0  0  0  0  0  0  0
  -15.5047  -29.6740   -3.0321 N   0  0  0  0  0  0  0  0  0  0  0  0
  -16.1166  -28.4854   -2.8762 C   0  0  0  0  0  0  0  0  0  0  0  0
  -15.4618  -27.3299   -2.6625 N   0  0  0  0  0  0  0  0  0  0  0  0
  -14.1090  -27.3016   -2.5911 C   0  0  0  0  0  0  0  0  0  0  0  0
  -13.3674  -28.5618   -2.7522 C   0  0  0  0  0  0  0  0  0  0  0  0
  -14.1603  -29.7921   -2.9846 C   0  0  0  0  0  0  0  0  0  0  0  0
  -13.5556  -30.9950   -3.1439 N   0  0  0  0  0  0  0  0  0  0  0  0
  -12.0611  -28.2554   -2.6403 N   0  0  0  0  0  0  0  0  0  0  0  0
  -11.9741  -26.9173   -2.4261 C   0  0  0  0  0  0  0  0  0  0  0  0
  -13.1937  -26.3492   -2.3966 N   0  0  0  0  0  0  0  0  0  0  0  0
  1  3  1  1  0  0  0
  1  5  2  0  0  0  0
  1  9  1  0  0  0  0
  1 18  1  0  0  0  0
  2  4  1  6  0  0  0
  2  6  2  0  0  0  0
  2 10  1  0  0  0  0
  2 17  1  0  0  0  0
  7  9  1  0  0  0  0
  8 10  1  0  0  0  0
 11  7  1  6  0  0  0
 11 13  1  0  0  0  0
 11 15  1  0  0  0  0
 12  8  1  1  0  0  0
 12 14  1  0  0  0  0
 12 16  1  0  0  0  0
 13 21  1  0  0  0  0
 14 22  1  0  0  0  0
 15 17  1  1  0  0  0
 15 19  1  0  0  0  0
 16 18  1  6  0  0  0
 16 20  1  0  0  0  0
 19 21  1  0  0  0  0
 20 22  1  0  0  0  0
 21 32  1  6  0  0  0
 22 42  1  1  0  0  0
 23 24  2  0  0  0  0
 23 28  1  0  0  0  0
 24 25  1  0  0  0  0
 25 26  2  0  0  0  0
 26 27  1  0  0  0  0
 26 32  1  0  0  0  0
 27 28  2  0  0  0  0
 27 30  1  0  0  0  0
 28 29  1  0  0  0  0
 30 31  2  0  0  0  0
 31 32  1  0  0  0  0
 33 34  2  0  0  0  0
 33 38  1  0  0  0  0
 34 35  1  0  0  0  0
 35 36  2  0  0  0  0
 36 37  1  0  0  0  0
 36 42  1  0  0  0  0
 37 38  2  0  0  0  0
 37 40  1  0  0  0  0
 38 39  1  0  0  0  0
 40 41  2  0  0  0  0
 41 42  1  0  0  0  0
M  CHG  2   3  -1   4  -1
M  END
>  <CHROM.1>
63.79231368,79.54223065,-17.81809997,-25.40265880,-3.29315293,3.10947755
0.52014561,-2.62465984

>  <Name>
ligand

>  <RI>
0

>  <Rbt.Current_Directory>
/home/itssahil/PROJECTS/Mol_Feturizer/New_Systems/rnas/4QLN

>  <Rbt.Executable>
rbdock ($Id: //depot/dev/client3/rdock/2013.1/src/exe/rbdock.cxx#4 $)

>  <Rbt.Library>
libRbt.so (2013.1, Build901 2013/11/27)

>  <Rbt.Parameter_File>
/export/apps/rDock/src/rDock_2013.1_src/data/scripts/dock_solv.prm

>  <Rbt.Receptor>
prm/blind_docking_100.prm

>  <SCORE>
-9.4704

>  <SCORE.INTER>
-13.3584

>  <SCORE.INTER.CONST>
1

>  <SCORE.INTER.POLAR>
0

>  <SCORE.INTER.ROT>
2

>  <SCORE.INTER.SOLV>
25.7967

>  <SCORE.INTER.VDW>
-22.4378

>  <SCORE.INTER.norm>
-0.318057

>  <SCORE.INTRA>
1.04942

>  <SCORE.INTRA.DIHEDRAL>
0.0008432

>  <SCORE.INTRA.DIHEDRAL.0>
2.39985

>  <SCORE.INTRA.POLAR>
0

>  <SCORE.INTRA.POLAR.0>
0

>  <SCORE.INTRA.REPUL>
0

>  <SCORE.INTRA.REPUL.0>
0

>  <SCORE.INTRA.SOLV>
1.05093

>  <SCORE.INTRA.SOLV.lig_0>
-110.958

>  <SCORE.INTRA.VDW>
0.523531

>  <SCORE.INTRA.VDW.0>
-2.34644

>  <SCORE.INTRA.norm>
0.0249861

>  <SCORE.RESTR>
2.83856

>  <SCORE.RESTR.CAVITY>
2.83856

>  <SCORE.RESTR.norm>
0.0675848

>  <SCORE.SYSTEM>
0

>  <SCORE.SYSTEM.CONST>
0

>  <SCORE.SYSTEM.DIHEDRAL>
0

>  <SCORE.SYSTEM.SOLV>
0

>  <SCORE.SYSTEM.norm>
0

>  <SCORE.heavy>
42

>  <SCORE.norm>
-0.225486

>  <RMSD>
28.411

$$$$
ligand
 OpenBabel11021811513D
libRbt.so/2013.1/901 2013/11/27
 42 48  0  0  0  0  0  0  0  0999 V2000
  -17.9477  -22.0404   -3.0310 P   0  0  2  0  0  0  0  0  0  0  0  0
  -18.6621  -26.4967   -0.7626 P   0  0  1  0  0  0  0  0  0  0  0  0
  -18.7640  -20.8537   -2.5745 O   0  5  0  0  0  0  0  0  0  0  0  0
  -17.8774  -26.9050   -1.9865 O   0  5  0  0  0  0  0  0  0  0  0  0
  -17.2041  -21.9826   -4.3439 O   0  0  0  0  0  0  0  0  0  0  0  0
  -18.8634  -27.4788    0.3663 O   0  0  0  0  0  0  0  0  0  0  0  0
  -20.2890  -23.2042   -3.3790 C   0  0  0  0  0  0  0  0  0  0  0  0
  -16.6358  -25.1666    0.2759 C   0  0  0  0  0  0  0  0  0  0  0  0
  -18.9066  -23.3331   -3.0512 O   0  0  0  0  0  0  0  0  0  0  0  0
  -17.9941  -25.1625   -0.1573 O   0  0  0  0  0  0  0  0  0  0  0  0
  -21.0867  -24.2760   -2.6458 C   0  0  1  0  0  0  0  0  0  0  0  0
  -15.9018  -23.9795   -0.3348 C   0  0  1  0  0  0  0  0  0  0  0  0
  -22.3214  -24.5096   -3.3287 O   0  0  0  0  0  0  0  0  0  0  0  0
  -14.4979  -24.2471   -0.3711 O   0  0  0  0  0  0  0  0  0  0  0  0
  -20.3267  -25.5907   -2.5959 C   0  0  1  0  0  0  0  0  0  0  0  0
  -16.3622  -23.7198   -1.7604 C   0  0  1  0  0  0  0  0  0  0  0  0
  -20.1095  -25.9785   -1.2426 O   0  0  0  0  0  0  0  0  0  0  0  0
  -16.8936  -22.4027   -1.8698 O   0  0  0  0  0  0  0  0  0  0  0  0
  -21.1971  -26.6167   -3.2974 C   0  0  0  0  0  0  0  0  0  0  0  0
  -15.1350  -23.8601   -2.6403 C   0  0  0  0  0  0  0  0  0  0  0  0
  -22.4472  -25.8726   -3.7431 C   0  0  2  0  0  0  0  0  0  0  0  0
  -13.9835  -24.1981   -1.7041 C   0  0  2  0  0  0  0  0  0  0  0  0
  -20.0960  -25.0150   -8.3599 N   0  0  0  0  0  0  0  0  0  0  0  0
  -19.6432  -24.8246   -7.1069 C   0  0  0  0  0  0  0  0  0  0  0  0
  -20.3649  -25.0910   -6.0027 N   0  0  0  0  0  0  0  0  0  0  0  0
  -21.6242  -25.5810   -6.0967 C   0  0  0  0  0  0  0  0  0  0  0  0
  -22.1909  -25.8170   -7.4338 C   0  0  0  0  0  0  0  0  0  0  0  0
  -21.3351  -25.4986   -8.6014 C   0  0  0  0  0  0  0  0  0  0  0  0
  -21.7793  -25.6868   -9.8675 N   0  0  0  0  0  0  0  0  0  0  0  0
  -23.4342  -26.2973   -7.2446 N   0  0  0  0  0  0  0  0  0  0  0  0
  -23.6462  -26.3633   -5.9052 C   0  0  0  0  0  0  0  0  0  0  0  0
  -22.5674  -25.9366   -5.2208 N   0  0  0  0  0  0  0  0  0  0  0  0
  -11.5863  -28.5466    0.0037 N   0  0  0  0  0  0  0  0  0  0  0  0
  -11.9899  -27.4556    0.6807 C   0  0  0  0  0  0  0  0  0  0  0  0
  -12.5991  -26.4026    0.1065 N   0  0  0  0  0  0  0  0  0  0  0  0
  -12.8461  -26.3850   -1.2256 C   0  0  0  0  0  0  0  0  0  0  0  0
  -12.4345  -27.5425   -2.0349 C   0  0  0  0  0  0  0  0  0  0  0  0
  -11.7694  -28.6632   -1.3291 C   0  0  0  0  0  0  0  0  0  0  0  0
  -11.3590  -29.7677   -1.9997 N   0  0  0  0  0  0  0  0  0  0  0  0
  -12.7933  -27.2707   -3.3038 N   0  0  0  0  0  0  0  0  0  0  0  0
  -13.3822  -26.0471   -3.3068 C   0  0  0  0  0  0  0  0  0  0  0  0
  -13.4135  -25.5195   -2.0692 N   0  0  0  0  0  0  0  0  0  0  0  0
  1  3  1  1  0  0  0
  1  5  2  0  0  0  0
  1  9  1  0  0  0  0
  1 18  1  0  0  0  0
  2  4  1  6  0  0  0
  2  6  2  0  0  0  0
  2 10  1  0  0  0  0
  2 17  1  0  0  0  0
  7  9  1  0  0  0  0
  8 10  1  0  0  0  0
 11  7  1  6  0  0  0
 11 13  1  0  0  0  0
 11 15  1  0  0  0  0
 12  8  1  6  0  0  0
 12 14  1  0  0  0  0
 12 16  1  0  0  0  0
 13 21  1  0  0  0  0
 14 22  1  0  0  0  0
 15 17  1  1  0  0  0
 15 19  1  0  0  0  0
 16 18  1  1  0  0  0
 16 20  1  0  0  0  0
 19 21  1  0  0  0  0
 20 22  1  0  0  0  0
 21 32  1  6  0  0  0
 22 42  1  6  0  0  0
 23 24  2  0  0  0  0
 23 28  1  0  0  0  0
 24 25  1  0  0  0  0
 25 26  2  0  0  0  0
 26 27  1  0  0  0  0
 26 32  1  0  0  0  0
 27 28  2  0  0  0  0
 27 30  1  0  0  0  0
 28 29  1  0  0  0  0
 30 31  2  0  0  0  0
 31 32  1  0  0  0  0
 33 34  2  0  0  0  0
 33 38  1  0  0  0  0
 34 35  1  0  0  0  0
 35 36  2  0  0  0  0
 36 37  1  0  0  0  0
 36 42  1  0  0  0  0
 37 38  2  0  0  0  0
 37 40  1  0  0  0  0
 38 39  1  0  0  0  0
 40 41  2  0  0  0  0
 41 42  1  0  0  0  0
M  CHG  2   3  -1   4  -1
M  END
>  <CHROM.1>
65.02140105,-30.89697609,-17.78737911,-25.29413514,-2.97267238,2.85067434
0.47302211,-2.27621444

>  <Name>
ligand

>  <RI>
0

>  <Rbt.Current_Directory>
/home/itssahil/PROJECTS/Mol_Feturizer/New_Systems/rnas/4QLN

>  <Rbt.Executable>
rbdock ($Id: //depot/dev/client3/rdock/2013.1/src/exe/rbdock.cxx#4 $)

>  <Rbt.Library>
libRbt.so (2013.1, Build901 2013/11/27)

>  <Rbt.Parameter_File>
/export/apps/rDock/src/rDock_2013.1_src/data/scripts/dock_solv.prm

>  <Rbt.Receptor>
prm/blind_docking_100.prm

>  <SCORE>
-9.50797

>  <SCORE.INTER>
-11.2282

>  <SCORE.INTER.CONST>
1

>  <SCORE.INTER.POLAR>
0

>  <SCORE.INTER.ROT>
2

>  <SCORE.INTER.SOLV>
30.1438

>  <SCORE.INTER.VDW>
-22.4667

>  <SCORE.INTER.norm>
-0.267339

>  <SCORE.INTRA>
0.625173

>  <SCORE.INTRA.DIHEDRAL>
0.000969002

>  <SCORE.INTRA.DIHEDRAL.0>
2.39985

>  <SCORE.INTRA.POLAR>
0

>  <SCORE.INTRA.POLAR.0>
0

>  <SCORE.INTRA.REPUL>
0

>  <SCORE.INTRA.REPUL.0>
0

>  <SCORE.INTRA.SOLV>
-0.0425215

>  <SCORE.INTRA.SOLV.lig_0>
-110.958

>  <SCORE.INTRA.VDW>
0.64595

>  <SCORE.INTRA.VDW.0>
-2.34644

>  <SCORE.INTRA.norm>
0.0148851

>  <SCORE.RESTR>
1.0951

>  <SCORE.RESTR.CAVITY>
1.0951

>  <SCORE.RESTR.norm>
0.0260738

>  <SCORE.SYSTEM>
0

>  <SCORE.SYSTEM.CONST>
0

>  <SCORE.SYSTEM.DIHEDRAL>
0

>  <SCORE.SYSTEM.SOLV>
0

>  <SCORE.SYSTEM.norm>
0

>  <SCORE.heavy>
42

>  <SCORE.norm>
-0.22638

>  <RMSD>
28.421

$$$$
ligand
 OpenBabel11021811513D
libRbt.so/2013.1/901 2013/11/27
 42 48  0  0  0  0  0  0  0  0999 V2000
  -17.9450  -22.0390   -3.0470 P   0  0  2  0  0  0  0  0  0  0  0  0
  -18.6748  -26.4932   -0.7795 P   0  0  1  0  0  0  0  0  0  0  0  0
  -18.7587  -20.8500   -2.5917 O   0  5  0  0  0  0  0  0  0  0  0  0
  -17.8894  -26.9036   -2.0023 O   0  5  0  0  0  0  0  0  0  0  0  0
  -17.1993  -21.9832   -4.3588 O   0  0  0  0  0  0  0  0  0  0  0  0
  -18.8803  -27.4748    0.3491 O   0  0  0  0  0  0  0  0  0  0  0  0
  -20.2889  -23.1964   -3.3984 C   0  0  0  0  0  0  0  0  0  0  0  0
  -16.6464  -25.1686    0.2618 C   0  0  0  0  0  0  0  0  0  0  0  0
  -18.9074  -23.3291   -3.0686 O   0  0  0  0  0  0  0  0  0  0  0  0
  -18.0041  -25.1609   -0.1733 O   0  0  0  0  0  0  0  0  0  0  0  0
  -21.0906  -24.2660   -2.6663 C   0  0  1  0  0  0  0  0  0  0  0  0
  -15.9083  -23.9835   -0.3478 C   0  0  1  0  0  0  0  0  0  0  0  0
  -22.3250  -24.4963   -3.3510 O   0  0  0  0  0  0  0  0  0  0  0  0
  -14.5051  -24.2549   -0.3820 O   0  0  0  0  0  0  0  0  0  0  0  0
  -20.3343  -25.5827   -2.6152 C   0  0  1  0  0  0  0  0  0  0  0  0
  -16.3659  -23.7226   -1.7741 C   0  0  1  0  0  0  0  0  0  0  0  0
  -20.1201  -25.9711   -1.2617 O   0  0  0  0  0  0  0  0  0  0  0  0
  -16.8935  -22.4041   -1.8842 O   0  0  0  0  0  0  0  0  0  0  0  0
  -21.2064  -26.6064   -3.3181 C   0  0  0  0  0  0  0  0  0  0  0  0
  -15.1379  -23.8663   -2.6522 C   0  0  0  0  0  0  0  0  0  0  0  0
  -22.4538  -25.8589   -3.7655 C   0  0  2  0  0  0  0  0  0  0  0  0
  -13.9886  -24.2074   -1.7143 C   0  0  2  0  0  0  0  0  0  0  0  0
  -20.1070  -24.9737   -8.3793 N   0  0  0  0  0  0  0  0  0  0  0  0
  -19.6572  -24.7800   -7.1258 C   0  0  0  0  0  0  0  0  0  0  0  0
  -20.3773  -25.0546   -6.0225 N   0  0  0  0  0  0  0  0  0  0  0  0
  -21.6317  -25.5569   -6.1181 C   0  0  0  0  0  0  0  0  0  0  0  0
  -22.1947  -25.7972   -7.4560 C   0  0  0  0  0  0  0  0  0  0  0  0
  -21.3411  -25.4692   -8.6224 C   0  0  0  0  0  0  0  0  0  0  0  0
  -21.7822  -25.6604   -9.8891 N   0  0  0  0  0  0  0  0  0  0  0  0
  -23.4334  -26.2898   -7.2683 N   0  0  0  0  0  0  0  0  0  0  0  0
  -23.6460  -26.3592   -5.9292 C   0  0  0  0  0  0  0  0  0  0  0  0
  -22.5721  -25.9226   -5.2434 N   0  0  0  0  0  0  0  0  0  0  0  0
  -11.5910  -28.5552   -0.0055 N   0  0  0  0  0  0  0  0  0  0  0  0
  -11.9908  -27.4622    0.6705 C   0  0  0  0  0  0  0  0  0  0  0  0
  -12.6006  -26.4097    0.0962 N   0  0  0  0  0  0  0  0  0  0  0  0
  -12.8524  -26.3947   -1.2351 C   0  0  0  0  0  0  0  0  0  0  0  0
  -12.4452  -27.5545   -2.0433 C   0  0  0  0  0  0  0  0  0  0  0  0
  -11.7791  -28.6745   -1.3375 C   0  0  0  0  0  0  0  0  0  0  0  0
  -11.3725  -29.7810   -2.0071 N   0  0  0  0  0  0  0  0  0  0  0  0
  -12.8082  -27.2850   -3.3115 N   0  0  0  0  0  0  0  0  0  0  0  0
  -13.3955  -26.0606   -3.3151 C   0  0  0  0  0  0  0  0  0  0  0  0
  -13.4217  -25.5303   -2.0785 N   0  0  0  0  0  0  0  0  0  0  0  0
  1  3  1  1  0  0  0
  1  5  2  0  0  0  0
  1  9  1  0  0  0  0
  1 18  1  0  0  0  0
  2  4  1  6  0  0  0
  2  6  2  0  0  0  0
  2 10  1  0  0  0  0
  2 17  1  0  0  0  0
  7  9  1  0  0  0  0
  8 10  1  0  0  0  0
 11  7  1  6  0  0  0
 11 13  1  0  0  0  0
 11 15  1  0  0  0  0
 12  8  1  6  0  0  0
 12 14  1  0  0  0  0
 12 16  1  0  0  0  0
 13 21  1  0  0  0  0
 14 22  1  0  0  0  0
 15 17  1  1  0  0  0
 15 19  1  0  0  0  0
 16 18  1  1  0  0  0
 16 20  1  0  0  0  0
 19 21  1  0  0  0  0
 20 22  1  0  0  0  0
 21 32  1  6  0  0  0
 22 42  1  6  0  0  0
 23 24  2  0  0  0  0
 23 28  1  0  0  0  0
 24 25  1  0  0  0  0
 25 26  2  0  0  0  0
 26 27  1  0  0  0  0
 26 32  1  0  0  0  0
 27 28  2  0  0  0  0
 27 30  1  0  0  0  0
 28 29  1  0  0  0  0
 30 31  2  0  0  0  0
 31 32  1  0  0  0  0
 33 34  2  0  0  0  0
 33 38  1  0  0  0  0
 34 35  1  0  0  0  0
 35 36  2  0  0  0  0
 36 37  1  0  0  0  0
 36 42  1  0  0  0  0
 37 38  2  0  0  0  0
 37 40  1  0  0  0  0
 38 39  1  0  0  0  0
 40 41  2  0  0  0  0
 41 42  1  0  0  0  0
M  CHG  2   3  -1   4  -1
M  END
>  <CHROM.1>
64.29973391,-31.22121533,-17.79347602,-25.28968945,-2.98861104,2.85179901
0.47603158,-2.27596679

>  <Name>
ligand

>  <RI>
0

>  <Rbt.Current_Directory>
/home/itssahil/PROJECTS/Mol_Feturizer/New_Systems/rnas/4QLN

>  <Rbt.Executable>
rbdock ($Id: //depot/dev/client3/rdock/2013.1/src/exe/rbdock.cxx#4 $)

>  <Rbt.Library>
libRbt.so (2013.1, Build901 2013/11/27)

>  <Rbt.Parameter_File>
/export/apps/rDock/src/rDock_2013.1_src/data/scripts/dock_solv.prm

>  <Rbt.Receptor>
prm/blind_docking_100.prm

>  <SCORE>
-9.53238

>  <SCORE.INTER>
-11.2496

>  <SCORE.INTER.CONST>
1

>  <SCORE.INTER.POLAR>
0

>  <SCORE.INTER.ROT>
2

>  <SCORE.INTER.SOLV>
30.047

>  <SCORE.INTER.VDW>
-22.4487

>  <SCORE.INTER.norm>
-0.267847

>  <SCORE.INTRA>
0.617431

>  <SCORE.INTRA.DIHEDRAL>
0.000958693

>  <SCORE.INTRA.DIHEDRAL.0>
2.39985

>  <SCORE.INTRA.POLAR>
0

>  <SCORE.INTRA.POLAR.0>
0

>  <SCORE.INTRA.REPUL>
0

>  <SCORE.INTRA.REPUL.0>
0

>  <SCORE.INTRA.SOLV>
-0.0422089

>  <SCORE.INTRA.SOLV.lig_0>
-110.958

>  <SCORE.INTRA.VDW>
0.638057

>  <SCORE.INTRA.VDW.0>
-2.34644

>  <SCORE.INTRA.norm>
0.0147007

>  <SCORE.RESTR>
1.09977

>  <SCORE.RESTR.CAVITY>
1.09977

>  <SCORE.RESTR.norm>
0.0261851

>  <SCORE.SYSTEM>
0

>  <SCORE.SYSTEM.CONST>
0

>  <SCORE.SYSTEM.DIHEDRAL>
0

>  <SCORE.SYSTEM.SOLV>
0

>  <SCORE.SYSTEM.norm>
0

>  <SCORE.heavy>
42

>  <SCORE.norm>
-0.226962

>  <RMSD>
28.422

$$$$
ligand
 OpenBabel11021811513D
libRbt.so/2013.1/901 2013/11/27
 42 48  0  0  0  0  0  0  0  0999 V2000
  -17.9586  -22.0501   -3.0179 P   0  0  2  0  0  0  0  0  0  0  0  0
  -18.6672  -26.5161   -0.7669 P   0  0  1  0  0  0  0  0  0  0  0  0
  -18.7781  -20.8668   -2.5584 O   0  5  0  0  0  0  0  0  0  0  0  0
  -17.8797  -26.9182   -1.9910 O   0  5  0  0  0  0  0  0  0  0  0  0
  -17.2130  -21.9858   -4.3293 O   0  0  0  0  0  0  0  0  0  0  0  0
  -18.8682  -27.5028    0.3580 O   0  0  0  0  0  0  0  0  0  0  0  0
  -20.2968  -23.2175   -3.3740 C   0  0  0  0  0  0  0  0  0  0  0  0
  -16.6455  -25.1855    0.2797 C   0  0  0  0  0  0  0  0  0  0  0  0
  -18.9147  -23.3447   -3.0444 O   0  0  0  0  0  0  0  0  0  0  0  0
  -18.0031  -25.1827   -0.1557 O   0  0  0  0  0  0  0  0  0  0  0  0
  -21.0934  -24.2937   -2.6460 C   0  0  1  0  0  0  0  0  0  0  0  0
  -15.9130  -23.9946   -0.3254 C   0  0  1  0  0  0  0  0  0  0  0  0
  -22.3265  -24.5275   -3.3318 O   0  0  0  0  0  0  0  0  0  0  0  0
  -14.5084  -24.2590   -0.3603 O   0  0  0  0  0  0  0  0  0  0  0  0
  -20.3307  -25.6069   -2.5996 C   0  0  1  0  0  0  0  0  0  0  0  0
  -16.3716  -23.7307   -1.7508 C   0  0  1  0  0  0  0  0  0  0  0  0
  -20.1149  -25.9992   -1.2474 O   0  0  0  0  0  0  0  0  0  0  0  0
  -16.9056  -22.4144   -1.8562 O   0  0  0  0  0  0  0  0  0  0  0  0
  -21.1978  -26.6322   -3.3064 C   0  0  0  0  0  0  0  0  0  0  0  0
  -15.1427  -23.8652   -2.6292 C   0  0  0  0  0  0  0  0  0  0  0  0
  -22.4487  -25.8892   -3.7514 C   0  0  2  0  0  0  0  0  0  0  0  0
  -13.9920  -24.2041   -1.6924 C   0  0  2  0  0  0  0  0  0  0  0  0
  -20.0915  -25.0106   -8.3611 N   0  0  0  0  0  0  0  0  0  0  0  0
  -19.6411  -24.8239   -7.1067 C   0  0  0  0  0  0  0  0  0  0  0  0
  -20.3641  -25.0956   -6.0046 N   0  0  0  0  0  0  0  0  0  0  0  0
  -21.6224  -25.5875   -6.1025 C   0  0  0  0  0  0  0  0  0  0  0  0
  -22.1864  -25.8198   -7.4414 C   0  0  0  0  0  0  0  0  0  0  0  0
  -21.3293  -25.4956   -8.6064 C   0  0  0  0  0  0  0  0  0  0  0  0
  -21.7710  -25.6799   -9.8739 N   0  0  0  0  0  0  0  0  0  0  0  0
  -23.4292  -26.3030   -7.2560 N   0  0  0  0  0  0  0  0  0  0  0  0
  -23.6433  -26.3742   -5.9172 C   0  0  0  0  0  0  0  0  0  0  0  0
  -22.5664  -25.9480   -5.2295 N   0  0  0  0  0  0  0  0  0  0  0  0
  -11.6297  -28.5737    0.0105 N   0  0  0  0  0  0  0  0  0  0  0  0
  -12.0422  -27.4886    0.6916 C   0  0  0  0  0  0  0  0  0  0  0  0
  -12.6403  -26.4289    0.1182 N   0  0  0  0  0  0  0  0  0  0  0  0
  -12.8661  -26.3978   -1.2174 C   0  0  0  0  0  0  0  0  0  0  0  0
  -12.4437  -27.5480   -2.0314 C   0  0  0  0  0  0  0  0  0  0  0  0
  -11.7919  -28.6769   -1.3262 C   0  0  0  0  0  0  0  0  0  0  0  0
  -11.3728  -29.7755   -2.0010 N   0  0  0  0  0  0  0  0  0  0  0  0
  -12.7819  -27.2631   -3.3031 N   0  0  0  0  0  0  0  0  0  0  0  0
  -13.3685  -26.0385   -3.3034 C   0  0  0  0  0  0  0  0  0  0  0  0
  -13.4186  -25.5229   -2.0613 N   0  0  0  0  0  0  0  0  0  0  0  0
  1  3  1  1  0  0  0
  1  5  2  0  0  0  0
  1  9  1  0  0  0  0
  1 18  1  0  0  0  0
  2  4  1  6  0  0  0
  2  6  2  0  0  0  0
  2 10  1  0  0  0  0
  2 17  1  0  0  0  0
  7  9  1  0  0  0  0
  8 10  1  0  0  0  0
 11  7  1  6  0  0  0
 11 13  1  0  0  0  0
 11 15  1  0  0  0  0
 12  8  1  6  0  0  0
 12 14  1  0  0  0  0
 12 16  1  0  0  0  0
 13 21  1  0  0  0  0
 14 22  1  0  0  0  0
 15 17  1  1  0  0  0
 15 19  1  0  0  0  0
 16 18  1  1  0  0  0
 16 20  1  0  0  0  0
 19 21  1  0  0  0  0
 20 22  1  0  0  0  0
 21 32  1  6  0  0  0
 22 42  1  6  0  0  0
 23 24  2  0  0  0  0
 23 28  1  0  0  0  0
 24 25  1  0  0  0  0
 25 26  2  0  0  0  0
 26 27  1  0  0  0  0
 26 32  1  0  0  0  0
 27 28  2  0  0  0  0
 27 30  1  0  0  0  0
 28 29  1  0  0  0  0
 30 31  2  0  0  0  0
 31 32  1  0  0  0  0
 33 34  2  0  0  0  0
 33 38  1  0  0  0  0
 34 35  1  0  0  0  0
 35 36  2  0  0  0  0
 36 37  1  0  0  0  0
 36 42  1  0  0  0  0
 37 38  2  0  0  0  0
 37 40  1  0  0  0  0
 38 39  1  0  0  0  0
 40 41  2  0  0  0  0
 41 42  1  0  0  0  0
M  CHG  2   3  -1   4  -1
M  END
>  <CHROM.1>
65.04154171,-29.97989681,-17.79479895,-25.30531942,-2.97059344,2.85001699
0.47546002,-2.27696663

>  <Name>
ligand

>  <RI>
0

>  <Rbt.Current_Directory>
/home/itssahil/PROJECTS/Mol_Feturizer/New_Systems/rnas/4QLN

>  <Rbt.Executable>
rbdock ($Id: //depot/dev/client3/rdock/2013.1/src/exe/rbdock.cxx#4 $)

>  <Rbt.Library>
libRbt.so (2013.1, Build901 2013/11/27)

>  <Rbt.Parameter_File>
/export/apps/rDock/src/rDock_2013.1_src/data/scripts/dock_solv.prm

>  <Rbt.Receptor>
prm/blind_docking_100.prm

>  <SCORE>
-9.57437

>  <SCORE.INTER>
-11.2971

>  <SCORE.INTER.CONST>
1

>  <SCORE.INTER.POLAR>
0

>  <SCORE.INTER.ROT>
2

>  <SCORE.INTER.SOLV>
30.1256

>  <SCORE.INTER.VDW>
-22.5066

>  <SCORE.INTER.norm>
-0.268978

>  <SCORE.INTRA>
0.607405

>  <SCORE.INTRA.DIHEDRAL>
0.00097012

>  <SCORE.INTRA.DIHEDRAL.0>
2.39985

>  <SCORE.INTRA.POLAR>
0

>  <SCORE.INTRA.POLAR.0>
0

>  <SCORE.INTRA.REPUL>
0

>  <SCORE.INTRA.REPUL.0>
0

>  <SCORE.INTRA.SOLV>
-0.0415269

>  <SCORE.INTRA.SOLV.lig_0>
-110.958

>  <SCORE.INTRA.VDW>
0.627683

>  <SCORE.INTRA.VDW.0>
-2.34644

>  <SCORE.INTRA.norm>
0.014462

>  <SCORE.RESTR>
1.11529

>  <SCORE.RESTR.CAVITY>
1.11529

>  <SCORE.RESTR.norm>
0.0265544

>  <SCORE.SYSTEM>
0

>  <SCORE.SYSTEM.CONST>
0

>  <SCORE.SYSTEM.DIHEDRAL>
0

>  <SCORE.SYSTEM.SOLV>
0

>  <SCORE.SYSTEM.norm>
0

>  <SCORE.heavy>
42

>  <SCORE.norm>
-0.227961

>  <RMSD>
28.425

$$$$
ligand
 OpenBabel11021811513D
libRbt.so/2013.1/901 2013/11/27
 42 48  0  0  0  0  0  0  0  0999 V2000
  -15.6646  -22.4609   -3.5858 P   0  0  2  0  0  0  0  0  0  0  0  0
  -18.5209  -25.8644   -1.1834 P   0  0  1  0  0  0  0  0  0  0  0  0
  -15.7501  -21.0127   -3.1633 O   0  5  0  0  0  0  0  0  0  0  0  0
  -18.0771  -26.6471   -2.3962 O   0  5  0  0  0  0  0  0  0  0  0  0
  -15.0189  -22.8246   -4.9014 O   0  0  0  0  0  0  0  0  0  0  0  0
  -19.1773  -26.5766   -0.0252 O   0  0  0  0  0  0  0  0  0  0  0  0
  -18.2771  -22.2690   -3.8938 C   0  0  0  0  0  0  0  0  0  0  0  0
  -16.0819  -25.7351   -0.1895 C   0  0  0  0  0  0  0  0  0  0  0  0
  -17.1503  -23.0799   -3.5652 O   0  0  0  0  0  0  0  0  0  0  0  0
  -17.2538  -25.0464   -0.6198 O   0  0  0  0  0  0  0  0  0  0  0  0
  -19.4984  -22.7623   -3.1272 C   0  0  1  0  0  0  0  0  0  0  0  0
  -14.8541  -25.1071   -0.8370 C   0  0  1  0  0  0  0  0  0  0  0  0
  -20.6901  -22.3472   -3.8002 O   0  0  0  0  0  0  0  0  0  0  0  0
  -13.7861  -26.0570   -0.8682 O   0  0  0  0  0  0  0  0  0  0  0  0
  -19.5180  -24.2790   -3.0395 C   0  0  1  0  0  0  0  0  0  0  0  0
  -15.1410  -24.6836   -2.2688 C   0  0  1  0  0  0  0  0  0  0  0  0
  -19.5069  -24.6899   -1.6757 O   0  0  0  0  0  0  0  0  0  0  0  0
  -14.9249  -23.2833   -2.4164 O   0  0  0  0  0  0  0  0  0  0  0  0
  -20.8029  -24.7312   -3.7082 C   0  0  0  0  0  0  0  0  0  0  0  0
  -14.1741  -25.4544   -3.1467 C   0  0  0  0  0  0  0  0  0  0  0  0
  -21.5031  -23.4630   -4.1733 C   0  0  2  0  0  0  0  0  0  0  0  0
  -13.3422  -26.3114   -2.2032 C   0  0  2  0  0  0  0  0  0  0  0  0
  -23.0453  -26.2552   -8.3450 N   0  0  0  0  0  0  0  0  0  0  0  0
  -23.0419  -26.5774   -7.0384 C   0  0  0  0  0  0  0  0  0  0  0  0
  -22.6120  -25.7522   -6.0661 N   0  0  0  0  0  0  0  0  0  0  0  0
  -22.1462  -24.5147   -6.3601 C   0  0  0  0  0  0  0  0  0  0  0  0
  -22.1184  -24.0879   -7.7679 C   0  0  0  0  0  0  0  0  0  0  0  0
  -22.6077  -25.0528   -8.7811 C   0  0  0  0  0  0  0  0  0  0  0  0
  -22.6169  -24.7398  -10.0993 N   0  0  0  0  0  0  0  0  0  0  0  0
  -21.6188  -22.8379   -7.7803 N   0  0  0  0  0  0  0  0  0  0  0  0
  -21.3500  -22.4935   -6.4949 C   0  0  0  0  0  0  0  0  0  0  0  0
  -21.6645  -23.4928   -5.6482 N   0  0  0  0  0  0  0  0  0  0  0  0
  -16.7967  -30.1587   -3.1180 N   0  0  0  0  0  0  0  0  0  0  0  0
  -17.0008  -28.8603   -2.8281 C   0  0  0  0  0  0  0  0  0  0  0  0
  -16.0087  -27.9771   -2.6153 N   0  0  0  0  0  0  0  0  0  0  0  0
  -14.7110  -28.3608   -2.6841 C   0  0  0  0  0  0  0  0  0  0  0  0
  -14.4062  -29.7656   -2.9969 C   0  0  0  0  0  0  0  0  0  0  0  0
  -15.5537  -30.6769   -3.2184 C   0  0  0  0  0  0  0  0  0  0  0  0
  -15.3612  -31.9865   -3.5118 N   0  0  0  0  0  0  0  0  0  0  0  0
  -13.0642  -29.8747   -3.0041 N   0  0  0  0  0  0  0  0  0  0  0  0
  -12.5549  -28.6483   -2.7205 C   0  0  0  0  0  0  0  0  0  0  0  0
  -13.5355  -27.7467   -2.5297 N   0  0  0  0  0  0  0  0  0  0  0  0
  1  3  1  1  0  0  0
  1  5  2  0  0  0  0
  1  9  1  0  0  0  0
  1 18  1  0  0  0  0
  2  4  1  6  0  0  0
  2  6  2  0  0  0  0
  2 10  1  0  0  0  0
  2 17  1  0  0  0  0
  7  9  1  0  0  0  0
  8 10  1  0  0  0  0
 11  7  1  6  0  0  0
 11 13  1  0  0  0  0
 11 15  1  0  0  0  0
 12  8  1  6  0  0  0
 12 14  1  0  0  0  0
 12 16  1  0  0  0  0
 13 21  1  0  0  0  0
 14 22  1  0  0  0  0
 15 17  1  1  0  0  0
 15 19  1  0  0  0  0
 16 18  1  1  0  0  0
 16 20  1  0  0  0  0
 19 21  1  0  0  0  0
 20 22  1  0  0  0  0
 21 32  1  6  0  0  0
 22 42  1  6  0  0  0
 23 24  2  0  0  0  0
 23 28  1  0  0  0  0
 24 25  1  0  0  0  0
 25 26  2  0  0  0  0
 26 27  1  0  0  0  0
 26 32  1  0  0  0  0
 27 28  2  0  0  0  0
 27 30  1  0  0  0  0
 28 29  1  0  0  0  0
 30 31  2  0  0  0  0
 31 32  1  0  0  0  0
 33 34  2  0  0  0  0
 33 38  1  0  0  0  0
 34 35  1  0  0  0  0
 35 36  2  0  0  0  0
 36 37  1  0  0  0  0
 36 42  1  0  0  0  0
 37 38  2  0  0  0  0
 37 40  1  0  0  0  0
 38 39  1  0  0  0  0
 40 41  2  0  0  0  0
 41 42  1  0  0  0  0
M  CHG  2   3  -1   4  -1
M  END
>  <CHROM.1>
166.99394751,68.44728166,-17.78646041,-25.42817321,-3.61718002,-0.29932880
-0.59757932,0.14180103

>  <Name>
ligand

>  <RI>
0

>  <Rbt.Current_Directory>
/home/itssahil/PROJECTS/Mol_Feturizer/New_Systems/rnas/4QLN

>  <Rbt.Executable>
rbdock ($Id: //depot/dev/client3/rdock/2013.1/src/exe/rbdock.cxx#4 $)

>  <Rbt.Library>
libRbt.so (2013.1, Build901 2013/11/27)

>  <Rbt.Parameter_File>
/export/apps/rDock/src/rDock_2013.1_src/data/scripts/dock_solv.prm

>  <Rbt.Receptor>
prm/blind_docking_100.prm

>  <SCORE>
-2.92942

>  <SCORE.INTER>
-10.4227

>  <SCORE.INTER.CONST>
1

>  <SCORE.INTER.POLAR>
0

>  <SCORE.INTER.ROT>
2

>  <SCORE.INTER.SOLV>
21.8326

>  <SCORE.INTER.VDW>
-19.1593

>  <SCORE.INTER.norm>
-0.248159

>  <SCORE.INTRA>
2.61862

>  <SCORE.INTRA.DIHEDRAL>
0.000306323

>  <SCORE.INTRA.DIHEDRAL.0>
2.39985

>  <SCORE.INTRA.POLAR>
0

>  <SCORE.INTRA.POLAR.0>
0

>  <SCORE.INTRA.REPUL>
0

>  <SCORE.INTRA.REPUL.0>
0

>  <SCORE.INTRA.SOLV>
1.18408

>  <SCORE.INTRA.SOLV.lig_0>
-110.958

>  <SCORE.INTRA.VDW>
2.02643

>  <SCORE.INTRA.VDW.0>
-2.34644

>  <SCORE.INTRA.norm>
0.0623482

>  <SCORE.RESTR>
4.87462

>  <SCORE.RESTR.CAVITY>
4.87462

>  <SCORE.RESTR.norm>
0.116062

>  <SCORE.SYSTEM>
0

>  <SCORE.SYSTEM.CONST>
0

>  <SCORE.SYSTEM.DIHEDRAL>
0

>  <SCORE.SYSTEM.SOLV>
0

>  <SCORE.SYSTEM.norm>
0

>  <SCORE.heavy>
42

>  <SCORE.norm>
-0.0697481

>  <RMSD>
28.430

$$$$
ligand
 OpenBabel11021811513D
libRbt.so/2013.1/901 2013/11/27
 42 48  0  0  0  0  0  0  0  0999 V2000
  -17.1855  -22.1479   -3.5218 P   0  0  2  0  0  0  0  0  0  0  0  0
  -18.4292  -26.1056   -0.6402 P   0  0  1  0  0  0  0  0  0  0  0  0
  -17.7584  -20.7921   -3.1806 O   0  5  0  0  0  0  0  0  0  0  0  0
  -17.8227  -26.7884   -1.8429 O   0  5  0  0  0  0  0  0  0  0  0  0
  -16.5508  -22.3788   -4.8723 O   0  0  0  0  0  0  0  0  0  0  0  0
  -18.6956  -26.8938    0.6196 O   0  0  0  0  0  0  0  0  0  0  0  0
  -19.7051  -22.9263   -3.5722 C   0  0  0  0  0  0  0  0  0  0  0  0
  -16.1366  -25.0266    0.0896 C   0  0  0  0  0  0  0  0  0  0  0  0
  -18.3402  -23.2496   -3.3125 O   0  0  0  0  0  0  0  0  0  0  0  0
  -17.5066  -24.8423   -0.2592 O   0  0  0  0  0  0  0  0  0  0  0  0
  -20.6046  -23.7479   -2.6566 C   0  0  1  0  0  0  0  0  0  0  0  0
  -15.2710  -24.0663   -0.7165 C   0  0  1  0  0  0  0  0  0  0  0  0
  -21.9119  -23.8476   -3.2279 O   0  0  0  0  0  0  0  0  0  0  0  0
  -13.9369  -24.5732   -0.7996 O   0  0  0  0  0  0  0  0  0  0  0  0
  -20.0669  -25.1575   -2.4764 C   0  0  1  0  0  0  0  0  0  0  0  0
  -15.7966  -23.9071   -2.1343 C   0  0  1  0  0  0  0  0  0  0  0  0
  -19.8071  -25.4091   -1.0987 O   0  0  0  0  0  0  0  0  0  0  0  0
  -16.1140  -22.5416   -2.3870 O   0  0  0  0  0  0  0  0  0  0  0  0
  -21.1462  -26.0966   -2.9820 C   0  0  0  0  0  0  0  0  0  0  0  0
  -14.6837  -24.3619   -3.0585 C   0  0  0  0  0  0  0  0  0  0  0  0
  -22.2905  -25.2090   -3.4483 C   0  0  2  0  0  0  0  0  0  0  0  0
  -13.5307  -24.7759   -2.1553 C   0  0  2  0  0  0  0  0  0  0  0  0
  -20.2481  -25.1839   -8.2863 N   0  0  0  0  0  0  0  0  0  0  0  0
  -19.6754  -24.9032   -7.1012 C   0  0  0  0  0  0  0  0  0  0  0  0
  -20.3285  -24.9507   -5.9255 N   0  0  0  0  0  0  0  0  0  0  0  0
  -21.6374  -25.2950   -5.8706 C   0  0  0  0  0  0  0  0  0  0  0  0
  -22.3348  -25.6169   -7.1255 C   0  0  0  0  0  0  0  0  0  0  0  0
  -21.5484  -25.5415   -8.3797 C   0  0  0  0  0  0  0  0  0  0  0  0
  -22.1134  -25.8225   -9.5787 N   0  0  0  0  0  0  0  0  0  0  0  0
  -23.6035  -25.9204   -6.7928 N   0  0  0  0  0  0  0  0  0  0  0  0
  -23.7103  -25.8034   -5.4444 C   0  0  0  0  0  0  0  0  0  0  0  0
  -22.5385  -25.4308   -4.8946 N   0  0  0  0  0  0  0  0  0  0  0  0
  -15.4419  -29.5969   -2.9789 N   0  0  0  0  0  0  0  0  0  0  0  0
  -16.0840  -28.4258   -2.8125 C   0  0  0  0  0  0  0  0  0  0  0  0
  -15.4582  -27.2528   -2.6072 N   0  0  0  0  0  0  0  0  0  0  0  0
  -14.1058  -27.1871   -2.5558 C   0  0  0  0  0  0  0  0  0  0  0  0
  -13.3322  -28.4262   -2.7292 C   0  0  0  0  0  0  0  0  0  0  0  0
  -14.0941  -29.6778   -2.9514 C   0  0  0  0  0  0  0  0  0  0  0  0
  -13.4589  -30.8634   -3.1210 N   0  0  0  0  0  0  0  0  0  0  0  0
  -12.0333  -28.0839   -2.6363 N   0  0  0  0  0  0  0  0  0  0  0  0
  -11.9802  -26.7441   -2.4218 C   0  0  0  0  0  0  0  0  0  0  0  0
  -13.2144  -26.2100   -2.3737 N   0  0  0  0  0  0  0  0  0  0  0  0
  1  3  1  1  0  0  0
  1  5  2  0  0  0  0
  1  9  1  0  0  0  0
  1 18  1  0  0  0  0
  2  4  1  6  0  0  0
  2  6  2  0  0  0  0
  2 10  1  0  0  0  0
  2 17  1  0  0  0  0
  7  9  1  0  0  0  0
  8 10  1  0  0  0  0
 11  7  1  6  0  0  0
 11 13  1  0  0  0  0
 11 15  1  0  0  0  0
 12  8  1  1  0  0  0
 12 14  1  0  0  0  0
 12 16  1  0  0  0  0
 13 21  1  0  0  0  0
 14 22  1  0  0  0  0
 15 17  1  1  0  0  0
 15 19  1  0  0  0  0
 16 18  1  6  0  0  0
 16 20  1  0  0  0  0
 19 21  1  0  0  0  0
 20 22  1  0  0  0  0
 21 32  1  6  0  0  0
 22 42  1  1  0  0  0
 23 24  2  0  0  0  0
 23 28  1  0  0  0  0
 24 25  1  0  0  0  0
 25 26  2  0  0  0  0
 26 27  1  0  0  0  0
 26 32  1  0  0  0  0
 27 28  2  0  0  0  0
 27 30  1  0  0  0  0
 28 29  1  0  0  0  0
 30 31  2  0  0  0  0
 31 32  1  0  0  0  0
 33 34  2  0  0  0  0
 33 38  1  0  0  0  0
 34 35  1  0  0  0  0
 35 36  2  0  0  0  0
 36 37  1  0  0  0  0
 36 42  1  0  0  0  0
 37 38  2  0  0  0  0
 37 40  1  0  0  0  0
 38 39  1  0  0  0  0
 40 41  2  0  0  0  0
 41 42  1  0  0  0  0
M  CHG  2   3  -1   4  -1
M  END
>  <CHROM.1>
61.92288229,78.39849451,-17.85882981,-25.36675600,-3.28298863,3.09306082
0.51589218,-2.62311872

>  <Name>
ligand

>  <RI>
0

>  <Rbt.Current_Directory>
/home/itssahil/PROJECTS/Mol_Feturizer/New_Systems/rnas/4QLN

>  <Rbt.Executable>
rbdock ($Id: //depot/dev/client3/rdock/2013.1/src/exe/rbdock.cxx#4 $)

>  <Rbt.Library>
libRbt.so (2013.1, Build901 2013/11/27)

>  <Rbt.Parameter_File>
/export/apps/rDock/src/rDock_2013.1_src/data/scripts/dock_solv.prm

>  <Rbt.Receptor>
prm/blind_docking_100.prm

>  <SCORE>
-9.50378

>  <SCORE.INTER>
-13.4678

>  <SCORE.INTER.CONST>
1

>  <SCORE.INTER.POLAR>
0

>  <SCORE.INTER.ROT>
2

>  <SCORE.INTER.SOLV>
26.1622

>  <SCORE.INTER.VDW>
-22.6326

>  <SCORE.INTER.norm>
-0.320662

>  <SCORE.INTRA>
1.11283

>  <SCORE.INTRA.DIHEDRAL>
0.000793265

>  <SCORE.INTRA.DIHEDRAL.0>
2.39985

>  <SCORE.INTRA.POLAR>
0

>  <SCORE.INTRA.POLAR.0>
0

>  <SCORE.INTRA.REPUL>
0

>  <SCORE.INTRA.REPUL.0>
0

>  <SCORE.INTRA.SOLV>
1.08236

>  <SCORE.INTRA.SOLV.lig_0>
-110.958

>  <SCORE.INTRA.VDW>
0.571256

>  <SCORE.INTRA.VDW.0>
-2.34644

>  <SCORE.INTRA.norm>
0.026496

>  <SCORE.RESTR>
2.8512

>  <SCORE.RESTR.CAVITY>
2.8512

>  <SCORE.RESTR.norm>
0.0678858

>  <SCORE.SYSTEM>
0

>  <SCORE.SYSTEM.CONST>
0

>  <SCORE.SYSTEM.DIHEDRAL>
0

>  <SCORE.SYSTEM.SOLV>
0

>  <SCORE.SYSTEM.norm>
0

>  <SCORE.heavy>
42

>  <SCORE.norm>
-0.22628

>  <RMSD>
28.447

$$$$
ligand
 OpenBabel11021811513D
libRbt.so/2013.1/901 2013/11/27
 42 48  0  0  0  0  0  0  0  0999 V2000
  -17.6053  -22.1270   -3.6956 P   0  0  2  0  0  0  0  0  0  0  0  0
  -17.9564  -25.9216   -0.3803 P   0  0  1  0  0  0  0  0  0  0  0  0
  -18.3746  -20.8544   -3.4275 O   0  5  0  0  0  0  0  0  0  0  0  0
  -17.3283  -26.6153   -1.5655 O   0  5  0  0  0  0  0  0  0  0  0  0
  -17.0364  -22.3875   -5.0698 O   0  0  0  0  0  0  0  0  0  0  0  0
  -17.9969  -26.6110    0.9623 O   0  0  0  0  0  0  0  0  0  0  0  0
  -19.9539  -23.3044   -3.4614 C   0  0  0  0  0  0  0  0  0  0  0  0
  -15.8345  -24.4171    0.0526 C   0  0  0  0  0  0  0  0  0  0  0  0
  -18.5392  -23.3743   -3.2918 O   0  0  0  0  0  0  0  0  0  0  0  0
  -17.2369  -24.4935   -0.1925 O   0  0  0  0  0  0  0  0  0  0  0  0
  -20.6351  -24.1640   -2.4032 C   0  0  1  0  0  0  0  0  0  0  0  0
  -15.2026  -23.4158   -0.9062 C   0  0  1  0  0  0  0  0  0  0  0  0
  -21.9432  -24.5315   -2.8495 O   0  0  0  0  0  0  0  0  0  0  0  0
  -13.8110  -23.7056   -1.0582 O   0  0  0  0  0  0  0  0  0  0  0  0
  -19.8550  -25.4422   -2.1461 C   0  0  1  0  0  0  0  0  0  0  0  0
  -15.8451  -23.4882   -2.2823 C   0  0  1  0  0  0  0  0  0  0  0  0
  -19.4609  -25.5077   -0.7789 O   0  0  0  0  0  0  0  0  0  0  0  0
  -16.4062  -22.2249   -2.6264 O   0  0  0  0  0  0  0  0  0  0  0  0
  -20.7922  -26.5901   -2.4726 C   0  0  0  0  0  0  0  0  0  0  0  0
  -14.7384  -23.8479   -3.2547 C   0  0  0  0  0  0  0  0  0  0  0  0
  -22.1000  -25.9515   -2.9158 C   0  0  2  0  0  0  0  0  0  0  0  0
  -13.4718  -23.9760   -2.4205 C   0  0  2  0  0  0  0  0  0  0  0  0
  -21.8920  -24.6319   -7.9945 N   0  0  0  0  0  0  0  0  0  0  0  0
  -21.4817  -23.9567   -6.9050 C   0  0  0  0  0  0  0  0  0  0  0  0
  -21.6000  -24.4228   -5.6481 N   0  0  0  0  0  0  0  0  0  0  0  0
  -22.1549  -25.6345   -5.4054 C   0  0  0  0  0  0  0  0  0  0  0  0
  -22.6281  -26.4344   -6.5459 C   0  0  0  0  0  0  0  0  0  0  0  0
  -22.4639  -25.8531   -7.8995 C   0  0  0  0  0  0  0  0  0  0  0  0
  -22.8722  -26.5234   -9.0039 N   0  0  0  0  0  0  0  0  0  0  0  0
  -23.1273  -27.5751   -6.0340 N   0  0  0  0  0  0  0  0  0  0  0  0
  -22.9869  -27.5123   -4.6851 C   0  0  0  0  0  0  0  0  0  0  0  0
  -22.4070  -26.3558   -4.3102 N   0  0  0  0  0  0  0  0  0  0  0  0
  -14.5942  -29.0722   -3.0045 N   0  0  0  0  0  0  0  0  0  0  0  0
  -15.4127  -28.0062   -2.9336 C   0  0  0  0  0  0  0  0  0  0  0  0
  -14.9811  -26.7412   -2.7812 N   0  0  0  0  0  0  0  0  0  0  0  0
  -13.6577  -26.4658   -2.6883 C   0  0  0  0  0  0  0  0  0  0  0  0
  -12.6986  -27.5791   -2.7575 C   0  0  0  0  0  0  0  0  0  0  0  0
  -13.2522  -28.9434   -2.9265 C   0  0  0  0  0  0  0  0  0  0  0  0
  -12.4381  -30.0251   -2.9999 N   0  0  0  0  0  0  0  0  0  0  0  0
  -11.4718  -27.0365   -2.6424 N   0  0  0  0  0  0  0  0  0  0  0  0
  -11.6313  -25.6945   -2.5105 C   0  0  0  0  0  0  0  0  0  0  0  0
  -12.9331  -25.3545   -2.5377 N   0  0  0  0  0  0  0  0  0  0  0  0
  1  3  1  1  0  0  0
  1  5  2  0  0  0  0
  1  9  1  0  0  0  0
  1 18  1  0  0  0  0
  2  4  1  6  0  0  0
  2  6  2  0  0  0  0
  2 10  1  0  0  0  0
  2 17  1  0  0  0  0
  7  9  1  0  0  0  0
  8 10  1  0  0  0  0
 11  7  1  6  0  0  0
 11 13  1  0  0  0  0
 11 15  1  0  0  0  0
 12  8  1  1  0  0  0
 12 14  1  0  0  0  0
 12 16  1  0  0  0  0
 13 21  1  0  0  0  0
 14 22  1  0  0  0  0
 15 17  1  1  0  0  0
 15 19  1  0  0  0  0
 16 18  1  6  0  0  0
 16 20  1  0  0  0  0
 19 21  1  0  0  0  0
 20 22  1  0  0  0  0
 21 32  1  6  0  0  0
 22 42  1  1  0  0  0
 23 24  2  0  0  0  0
 23 28  1  0  0  0  0
 24 25  1  0  0  0  0
 25 26  2  0  0  0  0
 26 27  1  0  0  0  0
 26 32  1  0  0  0  0
 27 28  2  0  0  0  0
 27 30  1  0  0  0  0
 28 29  1  0  0  0  0
 30 31  2  0  0  0  0
 31 32  1  0  0  0  0
 33 34  2  0  0  0  0
 33 38  1  0  0  0  0
 34 35  1  0  0  0  0
 35 36  2  0  0  0  0
 36 37  1  0  0  0  0
 36 42  1  0  0  0  0
 37 38  2  0  0  0  0
 37 40  1  0  0  0  0
 38 39  1  0  0  0  0
 40 41  2  0  0  0  0
 41 42  1  0  0  0  0
M  CHG  2   3  -1   4  -1
M  END
>  <CHROM.1>
20.47100025,85.42562148,-17.82515814,-25.24961672,-3.15450870,3.08977936
0.40744237,-2.84816930

>  <Name>
ligand

>  <RI>
0

>  <Rbt.Current_Directory>
/home/itssahil/PROJECTS/Mol_Feturizer/New_Systems/rnas/4QLN

>  <Rbt.Executable>
rbdock ($Id: //depot/dev/client3/rdock/2013.1/src/exe/rbdock.cxx#4 $)

>  <Rbt.Library>
libRbt.so (2013.1, Build901 2013/11/27)

>  <Rbt.Parameter_File>
/export/apps/rDock/src/rDock_2013.1_src/data/scripts/dock_solv.prm

>  <Rbt.Receptor>
prm/blind_docking_60.prm

>  <SCORE>
-0.172383

>  <SCORE.INTER>
-10.2353

>  <SCORE.INTER.CONST>
1

>  <SCORE.INTER.POLAR>
0

>  <SCORE.INTER.ROT>
2

>  <SCORE.INTER.SOLV>
30.9425

>  <SCORE.INTER.VDW>
-22.071

>  <SCORE.INTER.norm>
-0.243698

>  <SCORE.INTRA>
0.944323

>  <SCORE.INTRA.DIHEDRAL>
0.000650622

>  <SCORE.INTRA.DIHEDRAL.0>
2.39985

>  <SCORE.INTRA.POLAR>
0

>  <SCORE.INTRA.POLAR.0>
0

>  <SCORE.INTRA.REPUL>
0

>  <SCORE.INTRA.REPUL.0>
0

>  <SCORE.INTRA.SOLV>
0.898677

>  <SCORE.INTRA.SOLV.lig_0>
-110.958

>  <SCORE.INTRA.VDW>
0.49466

>  <SCORE.INTRA.VDW.0>
-2.34644

>  <SCORE.INTRA.norm>
0.0224839

>  <SCORE.RESTR>
9.11862

>  <SCORE.RESTR.CAVITY>
9.11862

>  <SCORE.RESTR.norm>
0.21711

>  <SCORE.SYSTEM>
0

>  <SCORE.SYSTEM.CONST>
0

>  <SCORE.SYSTEM.DIHEDRAL>
0

>  <SCORE.SYSTEM.SOLV>
0

>  <SCORE.SYSTEM.norm>
0

>  <SCORE.heavy>
42

>  <SCORE.norm>
-0.00410436

>  <RMSD>
28.448

$$$$
ligand
 OpenBabel11021811513D
libRbt.so/2013.1/901 2013/11/27
 42 48  0  0  0  0  0  0  0  0999 V2000
  -17.7357  -21.9585   -3.2258 P   0  0  2  0  0  0  0  0  0  0  0  0
  -18.5117  -26.3349   -0.8259 P   0  0  1  0  0  0  0  0  0  0  0  0
  -18.5200  -20.7425   -2.7910 O   0  5  0  0  0  0  0  0  0  0  0  0
  -17.7536  -26.7932   -2.0488 O   0  5  0  0  0  0  0  0  0  0  0  0
  -17.0100  -21.9526   -4.5500 O   0  0  0  0  0  0  0  0  0  0  0  0
  -18.7175  -27.2813    0.3323 O   0  0  0  0  0  0  0  0  0  0  0  0
  -20.1059  -23.0805   -3.5093 C   0  0  0  0  0  0  0  0  0  0  0  0
  -16.4429  -25.0211    0.1474 C   0  0  0  0  0  0  0  0  0  0  0  0
  -18.7220  -23.2303   -3.1972 O   0  0  0  0  0  0  0  0  0  0  0  0
  -17.8069  -24.9995   -0.2669 O   0  0  0  0  0  0  0  0  0  0  0  0
  -20.9155  -24.1145   -2.7359 C   0  0  1  0  0  0  0  0  0  0  0  0
  -15.6928  -23.8671   -0.5058 C   0  0  1  0  0  0  0  0  0  0  0  0
  -22.1646  -24.3399   -3.3950 O   0  0  0  0  0  0  0  0  0  0  0  0
  -14.2955  -24.1659   -0.5540 O   0  0  0  0  0  0  0  0  0  0  0  0
  -20.1830  -25.4434   -2.6603 C   0  0  1  0  0  0  0  0  0  0  0  0
  -16.1680  -23.6366   -1.9315 C   0  0  1  0  0  0  0  0  0  0  0  0
  -19.9546  -25.7988   -1.3000 O   0  0  0  0  0  0  0  0  0  0  0  0
  -16.6729  -22.3117   -2.0697 O   0  0  0  0  0  0  0  0  0  0  0  0
  -21.0849  -26.4691   -3.3212 C   0  0  0  0  0  0  0  0  0  0  0  0
  -14.9569  -23.8272   -2.8241 C   0  0  0  0  0  0  0  0  0  0  0  0
  -22.3252  -25.7106   -3.7699 C   0  0  2  0  0  0  0  0  0  0  0  0
  -13.7994  -24.1644   -1.8949 C   0  0  2  0  0  0  0  0  0  0  0  0
  -20.0180  -25.0444   -8.4401 N   0  0  0  0  0  0  0  0  0  0  0  0
  -19.5426  -24.8315   -7.1992 C   0  0  0  0  0  0  0  0  0  0  0  0
  -20.2553  -25.0479   -6.0783 N   0  0  0  0  0  0  0  0  0  0  0  0
  -21.5284  -25.5064   -6.1416 C   0  0  0  0  0  0  0  0  0  0  0  0
  -22.1200  -25.7641   -7.4638 C   0  0  0  0  0  0  0  0  0  0  0  0
  -21.2727  -25.5011   -8.6513 C   0  0  0  0  0  0  0  0  0  0  0  0
  -21.7396  -25.7123   -9.9055 N   0  0  0  0  0  0  0  0  0  0  0  0
  -23.3727  -26.2055   -7.2445 N   0  0  0  0  0  0  0  0  0  0  0  0
  -23.5674  -26.2286   -5.9011 C   0  0  0  0  0  0  0  0  0  0  0  0
  -22.4681  -25.8122   -5.2435 N   0  0  0  0  0  0  0  0  0  0  0  0
  -14.8027  -29.3055   -2.2616 N   0  0  0  0  0  0  0  0  0  0  0  0
  -15.6031  -28.2899   -1.8887 C   0  0  0  0  0  0  0  0  0  0  0  0
  -15.2073  -27.0051   -1.8406 N   0  0  0  0  0  0  0  0  0  0  0  0
  -13.9419  -26.6555   -2.1761 C   0  0  0  0  0  0  0  0  0  0  0  0
  -13.0061  -27.7103   -2.5952 C   0  0  0  0  0  0  0  0  0  0  0  0
  -13.5175  -29.1010   -2.6225 C   0  0  0  0  0  0  0  0  0  0  0  0
  -12.7213  -30.1325   -2.9970 N   0  0  0  0  0  0  0  0  0  0  0  0
  -11.8374  -27.1001   -2.8686 N   0  0  0  0  0  0  0  0  0  0  0  0
  -12.0097  -25.7721   -2.6438 C   0  0  0  0  0  0  0  0  0  0  0  0
  -13.2630  -25.5072   -2.2313 N   0  0  0  0  0  0  0  0  0  0  0  0
  1  3  1  1  0  0  0
  1  5  2  0  0  0  0
  1  9  1  0  0  0  0
  1 18  1  0  0  0  0
  2  4  1  6  0  0  0
  2  6  2  0  0  0  0
  2 10  1  0  0  0  0
  2 17  1  0  0  0  0
  7  9  1  0  0  0  0
  8 10  1  0  0  0  0
 11  7  1  6  0  0  0
 11 13  1  0  0  0  0
 11 15  1  0  0  0  0
 12  8  1  6  0  0  0
 12 14  1  0  0  0  0
 12 16  1  0  0  0  0
 13 21  1  0  0  0  0
 14 22  1  0  0  0  0
 15 17  1  1  0  0  0
 15 19  1  0  0  0  0
 16 18  1  1  0  0  0
 16 20  1  0  0  0  0
 19 21  1  0  0  0  0
 20 22  1  0  0  0  0
 21 32  1  6  0  0  0
 22 42  1  6  0  0  0
 23 24  2  0  0  0  0
 23 28  1  0  0  0  0
 24 25  1  0  0  0  0
 25 26  2  0  0  0  0
 26 27  1  0  0  0  0
 26 32  1  0  0  0  0
 27 28  2  0  0  0  0
 27 30  1  0  0  0  0
 28 29  1  0  0  0  0
 30 31  2  0  0  0  0
 31 32  1  0  0  0  0
 33 34  2  0  0  0  0
 33 38  1  0  0  0  0
 34 35  1  0  0  0  0
 35 36  2  0  0  0  0
 36 37  1  0  0  0  0
 36 42  1  0  0  0  0
 37 38  2  0  0  0  0
 37 40  1  0  0  0  0
 38 39  1  0  0  0  0
 40 41  2  0  0  0  0
 41 42  1  0  0  0  0
M  CHG  2   3  -1   4  -1
M  END
>  <CHROM.1>
65.32090309,57.25562210,-17.91689573,-25.27819576,-3.25764611,2.98714509
0.52179446,-2.57093370

>  <Name>
ligand

>  <RI>
0

>  <Rbt.Current_Directory>
/home/itssahil/PROJECTS/Mol_Feturizer/New_Systems/rnas/4QLN

>  <Rbt.Executable>
rbdock ($Id: //depot/dev/client3/rdock/2013.1/src/exe/rbdock.cxx#4 $)

>  <Rbt.Library>
libRbt.so (2013.1, Build901 2013/11/27)

>  <Rbt.Parameter_File>
/export/apps/rDock/src/rDock_2013.1_src/data/scripts/dock_solv.prm

>  <Rbt.Receptor>
prm/blind_docking_100.prm

>  <SCORE>
-8.7674

>  <SCORE.INTER>
-11.6361

>  <SCORE.INTER.CONST>
1

>  <SCORE.INTER.POLAR>
0

>  <SCORE.INTER.ROT>
2

>  <SCORE.INTER.SOLV>
29.3137

>  <SCORE.INTER.VDW>
-22.462

>  <SCORE.INTER.norm>
-0.27705

>  <SCORE.INTRA>
0.298754

>  <SCORE.INTRA.DIHEDRAL>
0.000113089

>  <SCORE.INTRA.DIHEDRAL.0>
2.39985

>  <SCORE.INTRA.POLAR>
0

>  <SCORE.INTRA.POLAR.0>
0

>  <SCORE.INTRA.REPUL>
0

>  <SCORE.INTRA.REPUL.0>
0

>  <SCORE.INTRA.SOLV>
1.26566

>  <SCORE.INTRA.SOLV.lig_0>
-110.958

>  <SCORE.INTRA.VDW>
-0.334131

>  <SCORE.INTRA.VDW.0>
-2.34644

>  <SCORE.INTRA.norm>
0.0071132

>  <SCORE.RESTR>
2.56995

>  <SCORE.RESTR.CAVITY>
2.56995

>  <SCORE.RESTR.norm>
0.0611894

>  <SCORE.SYSTEM>
0

>  <SCORE.SYSTEM.CONST>
0

>  <SCORE.SYSTEM.DIHEDRAL>
0

>  <SCORE.SYSTEM.SOLV>
0

>  <SCORE.SYSTEM.norm>
0

>  <SCORE.heavy>
42

>  <SCORE.norm>
-0.208748

>  <RMSD>
28.452

$$$$
ligand
 OpenBabel11021811513D
libRbt.so/2013.1/901 2013/11/27
 42 48  0  0  0  0  0  0  0  0999 V2000
  -18.4499  -21.7105   -2.9074 P   0  0  2  0  0  0  0  0  0  0  0  0
  -18.4390  -26.4019   -1.0352 P   0  0  1  0  0  0  0  0  0  0  0  0
  -19.4578  -20.7184   -2.3756 O   0  5  0  0  0  0  0  0  0  0  0  0
  -17.5828  -26.5684   -2.2679 O   0  5  0  0  0  0  0  0  0  0  0  0
  -17.7108  -21.4182   -4.1911 O   0  0  0  0  0  0  0  0  0  0  0  0
  -18.4873  -27.4972    0.0029 O   0  0  0  0  0  0  0  0  0  0  0  0
  -20.5603  -23.2103   -3.4114 C   0  0  0  0  0  0  0  0  0  0  0  0
  -16.6751  -24.8501    0.1622 C   0  0  0  0  0  0  0  0  0  0  0  0
  -19.1798  -23.1371   -3.0595 O   0  0  0  0  0  0  0  0  0  0  0  0
  -18.0098  -25.0329   -0.3043 O   0  0  0  0  0  0  0  0  0  0  0  0
  -21.1770  -24.4580   -2.7905 C   0  0  1  0  0  0  0  0  0  0  0  0
  -16.1419  -23.5101   -0.3287 C   0  0  1  0  0  0  0  0  0  0  0  0
  -22.3474  -24.8325   -3.5223 O   0  0  0  0  0  0  0  0  0  0  0  0
  -14.7127  -23.5383   -0.3504 O   0  0  0  0  0  0  0  0  0  0  0  0
  -20.2093  -25.6287   -2.8298 C   0  0  1  0  0  0  0  0  0  0  0  0
  -16.6220  -23.2083   -1.7394 C   0  0  1  0  0  0  0  0  0  0  0  0
  -19.9467  -26.0902   -1.5081 O   0  0  0  0  0  0  0  0  0  0  0  0
  -17.3641  -21.9925   -1.7531 O   0  0  0  0  0  0  0  0  0  0  0  0
  -20.8882  -26.7200   -3.6364 C   0  0  0  0  0  0  0  0  0  0  0  0
  -15.3783  -23.0681   -2.5956 C   0  0  0  0  0  0  0  0  0  0  0  0
  -22.2394  -26.1568   -4.0512 C   0  0  2  0  0  0  0  0  0  0  0  0
  -14.1978  -23.2907   -1.6610 C   0  0  2  0  0  0  0  0  0  0  0  0
  -19.8226  -24.8995   -8.5409 N   0  0  0  0  0  0  0  0  0  0  0  0
  -19.3988  -24.7930   -7.2680 C   0  0  0  0  0  0  0  0  0  0  0  0
  -20.1346  -25.1586   -6.2021 N   0  0  0  0  0  0  0  0  0  0  0  0
  -21.3792  -25.6698   -6.3587 C   0  0  0  0  0  0  0  0  0  0  0  0
  -21.9140  -25.8181   -7.7213 C   0  0  0  0  0  0  0  0  0  0  0  0
  -21.0443  -25.3928   -8.8437 C   0  0  0  0  0  0  0  0  0  0  0  0
  -21.4593  -25.4957  -10.1293 N   0  0  0  0  0  0  0  0  0  0  0  0
  -23.1482  -26.3406   -7.5946 N   0  0  0  0  0  0  0  0  0  0  0  0
  -23.3841  -26.5119   -6.2686 C   0  0  0  0  0  0  0  0  0  0  0  0
  -22.3297  -26.1125   -5.5318 N   0  0  0  0  0  0  0  0  0  0  0  0
  -14.3237  -28.3211   -3.1617 N   0  0  0  0  0  0  0  0  0  0  0  0
  -15.3234  -27.5035   -2.7826 C   0  0  0  0  0  0  0  0  0  0  0  0
  -15.1430  -26.2209   -2.4196 N   0  0  0  0  0  0  0  0  0  0  0  0
  -13.9062  -25.6675   -2.4167 C   0  0  0  0  0  0  0  0  0  0  0  0
  -12.7607  -26.4980   -2.8193 C   0  0  0  0  0  0  0  0  0  0  0  0
  -13.0410  -27.9011   -3.2057 C   0  0  0  0  0  0  0  0  0  0  0  0
  -12.0428  -28.7341   -3.5900 N   0  0  0  0  0  0  0  0  0  0  0  0
  -11.6687  -25.7155   -2.7290 N   0  0  0  0  0  0  0  0  0  0  0  0
  -12.0789  -24.4923   -2.3055 C   0  0  0  0  0  0  0  0  0  0  0  0
  -13.4114  -24.4636   -2.1193 N   0  0  0  0  0  0  0  0  0  0  0  0
  1  3  1  1  0  0  0
  1  5  2  0  0  0  0
  1  9  1  0  0  0  0
  1 18  1  0  0  0  0
  2  4  1  6  0  0  0
  2  6  2  0  0  0  0
  2 10  1  0  0  0  0
  2 17  1  0  0  0  0
  7  9  1  0  0  0  0
  8 10  1  0  0  0  0
 11  7  1  6  0  0  0
 11 13  1  0  0  0  0
 11 15  1  0  0  0  0
 12  8  1  6  0  0  0
 12 14  1  0  0  0  0
 12 16  1  0  0  0  0
 13 21  1  0  0  0  0
 14 22  1  0  0  0  0
 15 17  1  1  0  0  0
 15 19  1  0  0  0  0
 16 18  1  1  0  0  0
 16 20  1  0  0  0  0
 19 21  1  0  0  0  0
 20 22  1  0  0  0  0
 21 32  1  6  0  0  0
 22 42  1  6  0  0  0
 23 24  2  0  0  0  0
 23 28  1  0  0  0  0
 24 25  1  0  0  0  0
 25 26  2  0  0  0  0
 26 27  1  0  0  0  0
 26 32  1  0  0  0  0
 27 28  2  0  0  0  0
 27 30  1  0  0  0  0
 28 29  1  0  0  0  0
 30 31  2  0  0  0  0
 31 32  1  0  0  0  0
 33 34  2  0  0  0  0
 33 38  1  0  0  0  0
 34 35  1  0  0  0  0
 35 36  2  0  0  0  0
 36 37  1  0  0  0  0
 36 42  1  0  0  0  0
 37 38  2  0  0  0  0
 37 40  1  0  0  0  0
 38 39  1  0  0  0  0
 40 41  2  0  0  0  0
 41 42  1  0  0  0  0
M  CHG  2   3  -1   4  -1
M  END
>  <CHROM.1>
73.19368583,68.29542878,-17.99757895,-24.99906305,-3.35505665,2.75061976
0.37618057,-2.28532843

>  <Name>
ligand

>  <RI>
0

>  <Rbt.Current_Directory>
/home/itssahil/PROJECTS/Mol_Feturizer/New_Systems/rnas/4QLN

>  <Rbt.Executable>
rbdock ($Id: //depot/dev/client3/rdock/2013.1/src/exe/rbdock.cxx#4 $)

>  <Rbt.Library>
libRbt.so (2013.1, Build901 2013/11/27)

>  <Rbt.Parameter_File>
/export/apps/rDock/src/rDock_2013.1_src/data/scripts/dock_solv.prm

>  <Rbt.Receptor>
prm/blind_docking_40.prm

>  <SCORE>
7.97152

>  <SCORE.INTER>
-4.5149

>  <SCORE.INTER.CONST>
1

>  <SCORE.INTER.POLAR>
0

>  <SCORE.INTER.ROT>
2

>  <SCORE.INTER.SOLV>
41.4733

>  <SCORE.INTER.VDW>
-21.7677

>  <SCORE.INTER.norm>
-0.107498

>  <SCORE.INTRA>
1.85741

>  <SCORE.INTRA.DIHEDRAL>
0.000632307

>  <SCORE.INTRA.DIHEDRAL.0>
2.39985

>  <SCORE.INTRA.POLAR>
0

>  <SCORE.INTRA.POLAR.0>
0

>  <SCORE.INTRA.REPUL>
0

>  <SCORE.INTRA.REPUL.0>
0

>  <SCORE.INTRA.SOLV>
1.23325

>  <SCORE.INTRA.SOLV.lig_0>
-110.958

>  <SCORE.INTRA.VDW>
1.24047

>  <SCORE.INTRA.VDW.0>
-2.34644

>  <SCORE.INTRA.norm>
0.044224

>  <SCORE.RESTR>
10.629

>  <SCORE.RESTR.CAVITY>
10.629

>  <SCORE.RESTR.norm>
0.253072

>  <SCORE.SYSTEM>
0

>  <SCORE.SYSTEM.CONST>
0

>  <SCORE.SYSTEM.DIHEDRAL>
0

>  <SCORE.SYSTEM.SOLV>
0

>  <SCORE.SYSTEM.norm>
0

>  <SCORE.heavy>
42

>  <SCORE.norm>
0.189798

>  <RMSD>
28.460

$$$$
ligand
 OpenBabel11021811513D
libRbt.so/2013.1/901 2013/11/27
 42 48  0  0  0  0  0  0  0  0999 V2000
  -18.7219  -26.1490   -1.7692 P   0  0  2  0  0  0  0  0  0  0  0  0
  -18.9589  -21.5216   -3.7805 P   0  0  1  0  0  0  0  0  0  0  0  0
  -18.9031  -26.3028   -0.2770 O   0  5  0  0  0  0  0  0  0  0  0  0
  -18.3575  -22.3129   -4.9174 O   0  5  0  0  0  0  0  0  0  0  0  0
  -18.1442  -27.2853   -2.5785 O   0  0  0  0  0  0  0  0  0  0  0  0
  -19.4750  -20.1240   -4.0249 O   0  0  0  0  0  0  0  0  0  0  0  0
  -16.8098  -24.4545   -1.1137 C   0  0  0  0  0  0  0  0  0  0  0  0
  -21.2679  -22.7870   -3.9242 C   0  0  0  0  0  0  0  0  0  0  0  0
  -17.8297  -24.8360   -2.0353 O   0  0  0  0  0  0  0  0  0  0  0  0
  -20.1487  -22.3928   -3.1339 O   0  0  0  0  0  0  0  0  0  0  0  0
  -16.6517  -22.9388   -1.1300 C   0  0  1  0  0  0  0  0  0  0  0  0
  -21.5134  -24.2808   -3.7522 C   0  0  1  0  0  0  0  0  0  0  0  0
  -15.3501  -22.5847   -0.6548 O   0  0  0  0  0  0  0  0  0  0  0  0
  -22.2279  -24.7856   -4.8828 O   0  0  0  0  0  0  0  0  0  0  0  0
  -16.7999  -22.3847   -2.5370 C   0  0  1  0  0  0  0  0  0  0  0  0
  -20.2042  -25.0471   -3.6499 C   0  0  1  0  0  0  0  0  0  0  0  0
  -17.8805  -21.4581   -2.5859 O   0  0  0  0  0  0  0  0  0  0  0  0
  -20.1422  -25.7447   -2.4095 O   0  0  0  0  0  0  0  0  0  0  0  0
  -15.4956  -21.6800   -2.8605 C   0  0  0  0  0  0  0  0  0  0  0  0
  -20.1925  -26.0329   -4.8022 C   0  0  0  0  0  0  0  0  0  0  0  0
  -14.6143  -21.8425   -1.6309 C   0  0  2  0  0  0  0  0  0  0  0  0
  -21.5001  -25.8189   -5.5512 C   0  0  2  0  0  0  0  0  0  0  0  0
  -12.1726  -26.4908   -1.7285 N   0  0  0  0  0  0  0  0  0  0  0  0
  -13.4014  -26.1652   -1.2868 C   0  0  0  0  0  0  0  0  0  0  0  0
  -13.9026  -24.9168   -1.3236 N   0  0  0  0  0  0  0  0  0  0  0  0
  -13.1745  -23.8898   -1.8235 C   0  0  0  0  0  0  0  0  0  0  0  0
  -11.8199  -24.1656   -2.3272 C   0  0  0  0  0  0  0  0  0  0  0  0
  -11.3379  -25.5652   -2.2522 C   0  0  0  0  0  0  0  0  0  0  0  0
  -10.1033  -25.9055   -2.6944 N   0  0  0  0  0  0  0  0  0  0  0  0
  -11.3247  -22.9909   -2.7600 N   0  0  0  0  0  0  0  0  0  0  0  0
  -12.2770  -22.0458   -2.5523 C   0  0  0  0  0  0  0  0  0  0  0  0
  -13.3797  -22.5814   -1.9943 N   0  0  0  0  0  0  0  0  0  0  0  0
  -23.0060  -22.8831   -9.6360 N   0  0  0  0  0  0  0  0  0  0  0  0
  -23.5576  -23.0203   -8.4160 C   0  0  0  0  0  0  0  0  0  0  0  0
  -23.0579  -23.8183   -7.4553 N   0  0  0  0  0  0  0  0  0  0  0  0
  -21.9375  -24.5487   -7.6726 C   0  0  0  0  0  0  0  0  0  0  0  0
  -21.2756  -24.4523   -8.9828 C   0  0  0  0  0  0  0  0  0  0  0  0
  -21.8868  -23.5516   -9.9884 C   0  0  0  0  0  0  0  0  0  0  0  0
  -21.3403  -23.4043  -11.2204 N   0  0  0  0  0  0  0  0  0  0  0  0
  -20.2037  -25.2655   -8.9319 N   0  0  0  0  0  0  0  0  0  0  0  0
  -20.1816  -25.8327   -7.6983 C   0  0  0  0  0  0  0  0  0  0  0  0
  -21.2143  -25.4060   -6.9483 N   0  0  0  0  0  0  0  0  0  0  0  0
  1  3  1  1  0  0  0
  1  5  2  0  0  0  0
  1  9  1  0  0  0  0
  1 18  1  0  0  0  0
  2  4  1  6  0  0  0
  2  6  2  0  0  0  0
  2 10  1  0  0  0  0
  2 17  1  0  0  0  0
  7  9  1  0  0  0  0
  8 10  1  0  0  0  0
 11  7  1  6  0  0  0
 11 13  1  0  0  0  0
 11 15  1  0  0  0  0
 12  8  1  6  0  0  0
 12 14  1  0  0  0  0
 12 16  1  0  0  0  0
 13 21  1  0  0  0  0
 14 22  1  0  0  0  0
 15 17  1  1  0  0  0
 15 19  1  0  0  0  0
 16 18  1  1  0  0  0
 16 20  1  0  0  0  0
 19 21  1  0  0  0  0
 20 22  1  0  0  0  0
 21 32  1  6  0  0  0
 22 42  1  6  0  0  0
 23 24  2  0  0  0  0
 23 28  1  0  0  0  0
 24 25  1  0  0  0  0
 25 26  2  0  0  0  0
 26 27  1  0  0  0  0
 26 32  1  0  0  0  0
 27 28  2  0  0  0  0
 27 30  1  0  0  0  0
 28 29  1  0  0  0  0
 30 31  2  0  0  0  0
 31 32  1  0  0  0  0
 33 34  2  0  0  0  0
 33 38  1  0  0  0  0
 34 35  1  0  0  0  0
 35 36  2  0  0  0  0
 36 37  1  0  0  0  0
 36 42  1  0  0  0  0
 37 38  2  0  0  0  0
 37 40  1  0  0  0  0
 38 39  1  0  0  0  0
 40 41  2  0  0  0  0
 41 42  1  0  0  0  0
M  CHG  2   3  -1   4  -1
M  END
>  <CHROM.1>
20.94854608,-26.54522975,-18.00132031,-24.01391917,-3.94310058,0.52284497
0.30003174,2.07059444

>  <Name>
ligand

>  <RI>
0

>  <Rbt.Current_Directory>
/home/itssahil/PROJECTS/Mol_Feturizer/New_Systems/rnas/4QLN

>  <Rbt.Executable>
rbdock ($Id: //depot/dev/client3/rdock/2013.1/src/exe/rbdock.cxx#4 $)

>  <Rbt.Library>
libRbt.so (2013.1, Build901 2013/11/27)

>  <Rbt.Parameter_File>
/export/apps/rDock/src/rDock_2013.1_src/data/scripts/dock_solv.prm

>  <Rbt.Receptor>
prm/blind_docking_40.prm

>  <SCORE>
9.77866

>  <SCORE.INTER>
-1.37901

>  <SCORE.INTER.CONST>
1

>  <SCORE.INTER.POLAR>
0

>  <SCORE.INTER.ROT>
2

>  <SCORE.INTER.SOLV>
33.7663

>  <SCORE.INTER.VDW>
-17.1081

>  <SCORE.INTER.norm>
-0.0328335

>  <SCORE.INTRA>
0.825055

>  <SCORE.INTRA.DIHEDRAL>
0.000656963

>  <SCORE.INTRA.DIHEDRAL.0>
2.39985

>  <SCORE.INTRA.POLAR>
0

>  <SCORE.INTRA.POLAR.0>
0

>  <SCORE.INTRA.REPUL>
0

>  <SCORE.INTRA.REPUL.0>
0

>  <SCORE.INTRA.SOLV>
-0.00297297

>  <SCORE.INTRA.SOLV.lig_0>
-110.958

>  <SCORE.INTRA.VDW>
0.826213

>  <SCORE.INTRA.VDW.0>
-2.34644

>  <SCORE.INTRA.norm>
0.0196442

>  <SCORE.RESTR>
10.3326

>  <SCORE.RESTR.CAVITY>
10.3326

>  <SCORE.RESTR.norm>
0.246015

>  <SCORE.SYSTEM>
0

>  <SCORE.SYSTEM.CONST>
0

>  <SCORE.SYSTEM.DIHEDRAL>
0

>  <SCORE.SYSTEM.SOLV>
0

>  <SCORE.SYSTEM.norm>
0

>  <SCORE.heavy>
42

>  <SCORE.norm>
0.232825

>  <RMSD>
28.470

$$$$
ligand
 OpenBabel11021811513D
libRbt.so/2013.1/901 2013/11/27
 42 48  0  0  0  0  0  0  0  0999 V2000
  -18.7507  -26.1894   -1.7172 P   0  0  2  0  0  0  0  0  0  0  0  0
  -18.9286  -21.5504   -3.7076 P   0  0  1  0  0  0  0  0  0  0  0  0
  -18.9510  -26.3493   -0.2282 O   0  5  0  0  0  0  0  0  0  0  0  0
  -18.3194  -22.3405   -4.8412 O   0  5  0  0  0  0  0  0  0  0  0  0
  -18.1718  -27.3260   -2.5253 O   0  0  0  0  0  0  0  0  0  0  0  0
  -19.4312  -20.1476   -3.9511 O   0  0  0  0  0  0  0  0  0  0  0  0
  -16.8340  -24.5128   -1.0301 C   0  0  0  0  0  0  0  0  0  0  0  0
  -21.2451  -22.7975   -3.8856 C   0  0  0  0  0  0  0  0  0  0  0  0
  -17.8455  -24.8818   -1.9658 O   0  0  0  0  0  0  0  0  0  0  0  0
  -20.1326  -22.4157   -3.0799 O   0  0  0  0  0  0  0  0  0  0  0  0
  -16.6643  -22.9982   -1.0368 C   0  0  1  0  0  0  0  0  0  0  0  0
  -21.5039  -24.2902   -3.7241 C   0  0  1  0  0  0  0  0  0  0  0  0
  -15.3659  -22.6564   -0.5441 O   0  0  0  0  0  0  0  0  0  0  0  0
  -22.2084  -24.7840   -4.8659 O   0  0  0  0  0  0  0  0  0  0  0  0
  -16.7913  -22.4360   -2.4426 C   0  0  1  0  0  0  0  0  0  0  0  0
  -20.2018  -25.0669   -3.6100 C   0  0  1  0  0  0  0  0  0  0  0  0
  -17.8643  -21.5009   -2.4999 O   0  0  0  0  0  0  0  0  0  0  0  0
  -20.1601  -25.7712   -2.3726 O   0  0  0  0  0  0  0  0  0  0  0  0
  -15.4780  -21.7396   -2.7467 C   0  0  0  0  0  0  0  0  0  0  0  0
  -20.1836  -26.0470   -4.7670 C   0  0  0  0  0  0  0  0  0  0  0  0
  -14.6128  -21.9148   -1.5075 C   0  0  2  0  0  0  0  0  0  0  0  0
  -21.4804  -25.8194   -5.5307 C   0  0  2  0  0  0  0  0  0  0  0  0
  -12.3982  -26.6300   -2.1717 N   0  0  0  0  0  0  0  0  0  0  0  0
  -13.6547  -26.3037   -1.8167 C   0  0  0  0  0  0  0  0  0  0  0  0
  -14.0886  -25.0369   -1.6829 N   0  0  0  0  0  0  0  0  0  0  0  0
  -13.2581  -23.9903   -1.9061 C   0  0  0  0  0  0  0  0  0  0  0  0
  -11.8671  -24.2654   -2.2987 C   0  0  0  0  0  0  0  0  0  0  0  0
  -11.4640  -25.6862   -2.4246 C   0  0  0  0  0  0  0  0  0  0  0  0
  -10.2024  -26.0273   -2.7820 N   0  0  0  0  0  0  0  0  0  0  0  0
  -11.2687  -23.0697   -2.4553 N   0  0  0  0  0  0  0  0  0  0  0  0
  -12.1936  -22.1128   -2.1869 C   0  0  0  0  0  0  0  0  0  0  0  0
  -13.3795  -22.6613   -1.8598 N   0  0  0  0  0  0  0  0  0  0  0  0
  -22.9525  -22.9038   -9.6423 N   0  0  0  0  0  0  0  0  0  0  0  0
  -23.5247  -23.0496   -8.4328 C   0  0  0  0  0  0  0  0  0  0  0  0
  -23.0315  -23.8408   -7.4630 N   0  0  0  0  0  0  0  0  0  0  0  0
  -21.8967  -24.5546   -7.6596 C   0  0  0  0  0  0  0  0  0  0  0  0
  -21.2119  -24.4479   -8.9572 C   0  0  0  0  0  0  0  0  0  0  0  0
  -21.8173  -23.5557   -9.9739 C   0  0  0  0  0  0  0  0  0  0  0  0
  -21.2501  -23.3999  -11.1954 N   0  0  0  0  0  0  0  0  0  0  0  0
  -20.1293  -25.2455   -8.8865 N   0  0  0  0  0  0  0  0  0  0  0  0
  -20.1220  -25.8129   -7.6529 C   0  0  0  0  0  0  0  0  0  0  0  0
  -21.1746  -25.4016   -6.9222 N   0  0  0  0  0  0  0  0  0  0  0  0
  1  3  1  1  0  0  0
  1  5  2  0  0  0  0
  1  9  1  0  0  0  0
  1 18  1  0  0  0  0
  2  4  1  6  0  0  0
  2  6  2  0  0  0  0
  2 10  1  0  0  0  0
  2 17  1  0  0  0  0
  7  9  1  0  0  0  0
  8 10  1  0  0  0  0
 11  7  1  6  0  0  0
 11 13  1  0  0  0  0
 11 15  1  0  0  0  0
 12  8  1  6  0  0  0
 12 14  1  0  0  0  0
 12 16  1  0  0  0  0
 13 21  1  0  0  0  0
 14 22  1  0  0  0  0
 15 17  1  1  0  0  0
 15 19  1  0  0  0  0
 16 18  1  1  0  0  0
 16 20  1  0  0  0  0
 19 21  1  0  0  0  0
 20 22  1  0  0  0  0
 21 32  1  6  0  0  0
 22 42  1  6  0  0  0
 23 24  2  0  0  0  0
 23 28  1  0  0  0  0
 24 25  1  0  0  0  0
 25 26  2  0  0  0  0
 26 27  1  0  0  0  0
 26 32  1  0  0  0  0
 27 28  2  0  0  0  0
 27 30  1  0  0  0  0
 28 29  1  0  0  0  0
 30 31  2  0  0  0  0
 31 32  1  0  0  0  0
 33 34  2  0  0  0  0
 33 38  1  0  0  0  0
 34 35  1  0  0  0  0
 35 36  2  0  0  0  0
 36 37  1  0  0  0  0
 36 42  1  0  0  0  0
 37 38  2  0  0  0  0
 37 40  1  0  0  0  0
 38 39  1  0  0  0  0
 40 41  2  0  0  0  0
 41 42  1  0  0  0  0
M  CHG  2   3  -1   4  -1
M  END
>  <CHROM.1>
32.89181703,-27.89460748,-18.00683551,-24.05727241,-3.92035096,0.56058496
0.22528790,1.94376518

>  <Name>
ligand

>  <RI>
0

>  <Rbt.Current_Directory>
/home/itssahil/PROJECTS/Mol_Feturizer/New_Systems/rnas/4QLN

>  <Rbt.Executable>
rbdock ($Id: //depot/dev/client3/rdock/2013.1/src/exe/rbdock.cxx#4 $)

>  <Rbt.Library>
libRbt.so (2013.1, Build901 2013/11/27)

>  <Rbt.Parameter_File>
/export/apps/rDock/src/rDock_2013.1_src/data/scripts/dock_solv.prm

>  <Rbt.Receptor>
prm/blind_docking_40.prm

>  <SCORE>
10.2889

>  <SCORE.INTER>
-0.332866

>  <SCORE.INTER.CONST>
1

>  <SCORE.INTER.POLAR>
0

>  <SCORE.INTER.ROT>
2

>  <SCORE.INTER.SOLV>
34.5898

>  <SCORE.INTER.VDW>
-16.6852

>  <SCORE.INTER.norm>
-0.00792537

>  <SCORE.INTRA>
0.771132

>  <SCORE.INTRA.DIHEDRAL>
0.000638763

>  <SCORE.INTRA.DIHEDRAL.0>
2.39985

>  <SCORE.INTRA.POLAR>
0

>  <SCORE.INTRA.POLAR.0>
0

>  <SCORE.INTRA.REPUL>
0

>  <SCORE.INTRA.REPUL.0>
0

>  <SCORE.INTRA.SOLV>
-0.010462

>  <SCORE.INTRA.SOLV.lig_0>
-110.958

>  <SCORE.INTRA.VDW>
0.776043

>  <SCORE.INTRA.VDW.0>
-2.34644

>  <SCORE.INTRA.norm>
0.0183603

>  <SCORE.RESTR>
9.8506

>  <SCORE.RESTR.CAVITY>
9.8506

>  <SCORE.RESTR.norm>
0.234538

>  <SCORE.SYSTEM>
0

>  <SCORE.SYSTEM.CONST>
0

>  <SCORE.SYSTEM.DIHEDRAL>
0

>  <SCORE.SYSTEM.SOLV>
0

>  <SCORE.SYSTEM.norm>
0

>  <SCORE.heavy>
42

>  <SCORE.norm>
0.244973

>  <RMSD>
28.472

$$$$
ligand
 OpenBabel11021811513D
libRbt.so/2013.1/901 2013/11/27
 42 48  0  0  0  0  0  0  0  0999 V2000
  -18.1392  -21.9653   -2.9398 P   0  0  2  0  0  0  0  0  0  0  0  0
  -18.5908  -26.5222   -0.8080 P   0  0  1  0  0  0  0  0  0  0  0  0
  -19.0269  -20.8439   -2.4524 O   0  5  0  0  0  0  0  0  0  0  0  0
  -17.7792  -26.8458   -2.0396 O   0  5  0  0  0  0  0  0  0  0  0  0
  -17.3964  -21.8237   -4.2468 O   0  0  0  0  0  0  0  0  0  0  0  0
  -18.7360  -27.5479    0.2903 O   0  0  0  0  0  0  0  0  0  0  0  0
  -20.4050  -23.2568   -3.3336 C   0  0  0  0  0  0  0  0  0  0  0  0
  -16.6515  -25.1043    0.2793 C   0  0  0  0  0  0  0  0  0  0  0  0
  -19.0184  -23.3121   -3.0030 O   0  0  0  0  0  0  0  0  0  0  0  0
  -18.0063  -25.1690   -0.1602 O   0  0  0  0  0  0  0  0  0  0  0  0
  -21.1390  -24.3960   -2.6363 C   0  0  1  0  0  0  0  0  0  0  0  0
  -15.9885  -23.8575   -0.2924 C   0  0  1  0  0  0  0  0  0  0  0  0
  -22.3553  -24.6830   -3.3318 O   0  0  0  0  0  0  0  0  0  0  0  0
  -14.5709  -24.0390   -0.3297 O   0  0  0  0  0  0  0  0  0  0  0  0
  -20.3013  -25.6635   -2.6217 C   0  0  1  0  0  0  0  0  0  0  0  0
  -16.4593  -23.5835   -1.7119 C   0  0  1  0  0  0  0  0  0  0  0  0
  -20.0653  -26.0778   -1.2794 O   0  0  0  0  0  0  0  0  0  0  0  0
  -17.0687  -22.2981   -1.7848 O   0  0  0  0  0  0  0  0  0  0  0  0
  -21.1062  -26.7186   -3.3576 C   0  0  0  0  0  0  0  0  0  0  0  0
  -15.2232  -23.6235   -2.5896 C   0  0  0  0  0  0  0  0  0  0  0  0
  -22.3974  -26.0381   -3.7870 C   0  0  2  0  0  0  0  0  0  0  0  0
  -14.0563  -23.9194   -1.6583 C   0  0  2  0  0  0  0  0  0  0  0  0
  -20.0296  -25.0396   -8.3669 N   0  0  0  0  0  0  0  0  0  0  0  0
  -19.5854  -24.8773   -7.1068 C   0  0  0  0  0  0  0  0  0  0  0  0
  -20.3105  -25.1789   -6.0139 N   0  0  0  0  0  0  0  0  0  0  0  0
  -21.5646  -25.6781   -6.1276 C   0  0  0  0  0  0  0  0  0  0  0  0
  -22.1218  -25.8848   -7.4736 C   0  0  0  0  0  0  0  0  0  0  0  0
  -21.2627  -25.5284   -8.6277 C   0  0  0  0  0  0  0  0  0  0  0  0
  -21.6983  -25.6879   -9.9007 N   0  0  0  0  0  0  0  0  0  0  0  0
  -23.3614  -26.3815   -7.3038 N   0  0  0  0  0  0  0  0  0  0  0  0
  -23.5801  -26.4840   -5.9678 C   0  0  0  0  0  0  0  0  0  0  0  0
  -22.5091  -26.0650   -5.2666 N   0  0  0  0  0  0  0  0  0  0  0  0
  -14.5834  -29.1165   -2.1920 N   0  0  0  0  0  0  0  0  0  0  0  0
  -15.4639  -28.1951   -1.7594 C   0  0  0  0  0  0  0  0  0  0  0  0
  -15.1891  -26.8810   -1.6735 N   0  0  0  0  0  0  0  0  0  0  0  0
  -13.9729  -26.4014   -2.0295 C   0  0  0  0  0  0  0  0  0  0  0  0
  -12.9554  -27.3473   -2.5133 C   0  0  0  0  0  0  0  0  0  0  0  0
  -13.3346  -28.7784   -2.5794 C   0  0  0  0  0  0  0  0  0  0  0  0
  -12.4570  -29.7159   -3.0140 N   0  0  0  0  0  0  0  0  0  0  0  0
  -11.8580  -26.6197   -2.7948 N   0  0  0  0  0  0  0  0  0  0  0  0
  -12.1472  -25.3227   -2.5155 C   0  0  0  0  0  0  0  0  0  0  0  0
  -13.4066  -25.1926   -2.0595 N   0  0  0  0  0  0  0  0  0  0  0  0
  1  3  1  1  0  0  0
  1  5  2  0  0  0  0
  1  9  1  0  0  0  0
  1 18  1  0  0  0  0
  2  4  1  6  0  0  0
  2  6  2  0  0  0  0
  2 10  1  0  0  0  0
  2 17  1  0  0  0  0
  7  9  1  0  0  0  0
  8 10  1  0  0  0  0
 11  7  1  6  0  0  0
 11 13  1  0  0  0  0
 11 15  1  0  0  0  0
 12  8  1  6  0  0  0
 12 14  1  0  0  0  0
 12 16  1  0  0  0  0
 13 21  1  0  0  0  0
 14 22  1  0  0  0  0
 15 17  1  1  0  0  0
 15 19  1  0  0  0  0
 16 18  1  1  0  0  0
 16 20  1  0  0  0  0
 19 21  1  0  0  0  0
 20 22  1  0  0  0  0
 21 32  1  6  0  0  0
 22 42  1  6  0  0  0
 23 24  2  0  0  0  0
 23 28  1  0  0  0  0
 24 25  1  0  0  0  0
 25 26  2  0  0  0  0
 26 27  1  0  0  0  0
 26 32  1  0  0  0  0
 27 28  2  0  0  0  0
 27 30  1  0  0  0  0
 28 29  1  0  0  0  0
 30 31  2  0  0  0  0
 31 32  1  0  0  0  0
 33 34  2  0  0  0  0
 33 38  1  0  0  0  0
 34 35  1  0  0  0  0
 35 36  2  0  0  0  0
 36 37  1  0  0  0  0
 36 42  1  0  0  0  0
 37 38  2  0  0  0  0
 37 40  1  0  0  0  0
 38 39  1  0  0  0  0
 40 41  2  0  0  0  0
 41 42  1  0  0  0  0
M  CHG  2   3  -1   4  -1
M  END
>  <CHROM.1>
67.94166432,54.24747512,-18.03948979,-25.29309944,-3.15186067,2.89787065
0.48987996,-2.47117629

>  <Name>
ligand

>  <RI>
0

>  <Rbt.Current_Directory>
/home/itssahil/PROJECTS/Mol_Feturizer/New_Systems/rnas/4QLN

>  <Rbt.Executable>
rbdock ($Id: //depot/dev/client3/rdock/2013.1/src/exe/rbdock.cxx#4 $)

>  <Rbt.Library>
libRbt.so (2013.1, Build901 2013/11/27)

>  <Rbt.Parameter_File>
/export/apps/rDock/src/rDock_2013.1_src/data/scripts/dock_solv.prm

>  <Rbt.Receptor>
prm/blind_docking_100.prm

>  <SCORE>
-9.12531

>  <SCORE.INTER>
-11.6582

>  <SCORE.INTER.CONST>
1

>  <SCORE.INTER.POLAR>
0

>  <SCORE.INTER.ROT>
2

>  <SCORE.INTER.SOLV>
32.0473

>  <SCORE.INTER.VDW>
-23.3879

>  <SCORE.INTER.norm>
-0.277575

>  <SCORE.INTRA>
0.00656593

>  <SCORE.INTRA.DIHEDRAL>
3.13572e-05

>  <SCORE.INTRA.DIHEDRAL.0>
2.39985

>  <SCORE.INTRA.POLAR>
0

>  <SCORE.INTRA.POLAR.0>
0

>  <SCORE.INTRA.REPUL>
0

>  <SCORE.INTRA.REPUL.0>
0

>  <SCORE.INTRA.SOLV>
1.234

>  <SCORE.INTRA.SOLV.lig_0>
-110.958

>  <SCORE.INTRA.VDW>
-0.610449

>  <SCORE.INTRA.VDW.0>
-2.34644

>  <SCORE.INTRA.norm>
0.000156332

>  <SCORE.RESTR>
2.52628

>  <SCORE.RESTR.CAVITY>
2.52628

>  <SCORE.RESTR.norm>
0.0601496

>  <SCORE.SYSTEM>
0

>  <SCORE.SYSTEM.CONST>
0

>  <SCORE.SYSTEM.DIHEDRAL>
0

>  <SCORE.SYSTEM.SOLV>
0

>  <SCORE.SYSTEM.norm>
0

>  <SCORE.heavy>
42

>  <SCORE.norm>
-0.217269

>  <RMSD>
28.553

$$$$
ligand
 OpenBabel11021811513D
libRbt.so/2013.1/901 2013/11/27
 42 48  0  0  0  0  0  0  0  0999 V2000
  -18.1191  -21.9578   -2.9533 P   0  0  2  0  0  0  0  0  0  0  0  0
  -18.5903  -26.5011   -0.7967 P   0  0  1  0  0  0  0  0  0  0  0  0
  -19.0039  -20.8308   -2.4739 O   0  5  0  0  0  0  0  0  0  0  0  0
  -17.7774  -26.8344   -2.0249 O   0  5  0  0  0  0  0  0  0  0  0  0
  -17.3733  -21.8260   -4.2595 O   0  0  0  0  0  0  0  0  0  0  0  0
  -18.7411  -27.5201    0.3070 O   0  0  0  0  0  0  0  0  0  0  0  0
  -20.3885  -23.2439   -3.3442 C   0  0  0  0  0  0  0  0  0  0  0  0
  -16.6484  -25.0836    0.2864 C   0  0  0  0  0  0  0  0  0  0  0  0
  -19.0027  -23.3020   -3.0106 O   0  0  0  0  0  0  0  0  0  0  0  0
  -18.0024  -25.1462   -0.1554 O   0  0  0  0  0  0  0  0  0  0  0  0
  -21.1277  -24.3767   -2.6421 C   0  0  1  0  0  0  0  0  0  0  0  0
  -15.9800  -23.8423   -0.2910 C   0  0  1  0  0  0  0  0  0  0  0  0
  -22.3436  -24.6634   -3.3384 O   0  0  0  0  0  0  0  0  0  0  0  0
  -14.5630  -24.0287   -0.3245 O   0  0  0  0  0  0  0  0  0  0  0  0
  -20.2943  -25.6469   -2.6186 C   0  0  1  0  0  0  0  0  0  0  0  0
  -16.4470  -23.5747   -1.7129 C   0  0  1  0  0  0  0  0  0  0  0  0
  -20.0624  -26.0544   -1.2736 O   0  0  0  0  0  0  0  0  0  0  0  0
  -17.0520  -22.2877   -1.7942 O   0  0  0  0  0  0  0  0  0  0  0  0
  -21.1013  -26.7034   -3.3502 C   0  0  0  0  0  0  0  0  0  0  0  0
  -15.2094  -23.6238   -2.5879 C   0  0  0  0  0  0  0  0  0  0  0  0
  -22.3894  -26.0209   -3.7860 C   0  0  2  0  0  0  0  0  0  0  0  0
  -14.0453  -23.9184   -1.6526 C   0  0  2  0  0  0  0  0  0  0  0  0
  -20.0540  -24.9488   -8.3659 N   0  0  0  0  0  0  0  0  0  0  0  0
  -19.6176  -24.7672   -7.1058 C   0  0  0  0  0  0  0  0  0  0  0  0
  -20.3325  -25.0921   -6.0129 N   0  0  0  0  0  0  0  0  0  0  0  0
  -21.5674  -25.6370   -6.1266 C   0  0  0  0  0  0  0  0  0  0  0  0
  -22.1150  -25.8674   -7.4727 C   0  0  0  0  0  0  0  0  0  0  0  0
  -21.2682  -25.4829   -8.6268 C   0  0  0  0  0  0  0  0  0  0  0  0
  -21.6961  -25.6616   -9.8998 N   0  0  0  0  0  0  0  0  0  0  0  0
  -23.3360  -26.4085   -7.3029 N   0  0  0  0  0  0  0  0  0  0  0  0
  -23.5524  -26.5154   -5.9669 C   0  0  0  0  0  0  0  0  0  0  0  0
  -22.4982  -26.0558   -5.2656 N   0  0  0  0  0  0  0  0  0  0  0  0
  -14.5939  -29.1146   -2.1727 N   0  0  0  0  0  0  0  0  0  0  0  0
  -15.4728  -28.1876   -1.7490 C   0  0  0  0  0  0  0  0  0  0  0  0
  -15.1922  -26.8746   -1.6656 N   0  0  0  0  0  0  0  0  0  0  0  0
  -13.9714  -26.4020   -2.0152 C   0  0  0  0  0  0  0  0  0  0  0  0
  -12.9554  -27.3543   -2.4892 C   0  0  0  0  0  0  0  0  0  0  0  0
  -13.3410  -28.7838   -2.5530 C   0  0  0  0  0  0  0  0  0  0  0  0
  -12.4651  -29.7269   -2.9788 N   0  0  0  0  0  0  0  0  0  0  0  0
  -11.8526  -26.6330   -2.7658 N   0  0  0  0  0  0  0  0  0  0  0  0
  -12.1374  -25.3337   -2.4926 C   0  0  0  0  0  0  0  0  0  0  0  0
  -13.3992  -25.1960   -2.0454 N   0  0  0  0  0  0  0  0  0  0  0  0
  1  3  1  1  0  0  0
  1  5  2  0  0  0  0
  1  9  1  0  0  0  0
  1 18  1  0  0  0  0
  2  4  1  6  0  0  0
  2  6  2  0  0  0  0
  2 10  1  0  0  0  0
  2 17  1  0  0  0  0
  7  9  1  0  0  0  0
  8 10  1  0  0  0  0
 11  7  1  6  0  0  0
 11 13  1  0  0  0  0
 11 15  1  0  0  0  0
 12  8  1  6  0  0  0
 12 14  1  0  0  0  0
 12 16  1  0  0  0  0
 13 21  1  0  0  0  0
 14 22  1  0  0  0  0
 15 17  1  1  0  0  0
 15 19  1  0  0  0  0
 16 18  1  1  0  0  0
 16 20  1  0  0  0  0
 19 21  1  0  0  0  0
 20 22  1  0  0  0  0
 21 32  1  6  0  0  0
 22 42  1  6  0  0  0
 23 24  2  0  0  0  0
 23 28  1  0  0  0  0
 24 25  1  0  0  0  0
 25 26  2  0  0  0  0
 26 27  1  0  0  0  0
 26 32  1  0  0  0  0
 27 28  2  0  0  0  0
 27 30  1  0  0  0  0
 28 29  1  0  0  0  0
 30 31  2  0  0  0  0
 31 32  1  0  0  0  0
 33 34  2  0  0  0  0
 33 38  1  0  0  0  0
 34 35  1  0  0  0  0
 35 36  2  0  0  0  0
 36 37  1  0  0  0  0
 36 42  1  0  0  0  0
 37 38  2  0  0  0  0
 37 40  1  0  0  0  0
 38 39  1  0  0  0  0
 40 41  2  0  0  0  0
 41 42  1  0  0  0  0
M  CHG  2   3  -1   4  -1
M  END
>  <CHROM.1>
65.65291506,54.55408436,-18.03429772,-25.27808280,-3.14751659,2.90838831
0.49808467,-2.49026533

>  <Name>
ligand

>  <RI>
0

>  <Rbt.Current_Directory>
/home/itssahil/PROJECTS/Mol_Feturizer/New_Systems/rnas/4QLN

>  <Rbt.Executable>
rbdock ($Id: //depot/dev/client3/rdock/2013.1/src/exe/rbdock.cxx#4 $)

>  <Rbt.Library>
libRbt.so (2013.1, Build901 2013/11/27)

>  <Rbt.Parameter_File>
/export/apps/rDock/src/rDock_2013.1_src/data/scripts/dock_solv.prm

>  <Rbt.Receptor>
prm/blind_docking_100.prm

>  <SCORE>
-9.04284

>  <SCORE.INTER>
-11.4904

>  <SCORE.INTER.CONST>
1

>  <SCORE.INTER.POLAR>
0

>  <SCORE.INTER.ROT>
2

>  <SCORE.INTER.SOLV>
31.7607

>  <SCORE.INTER.VDW>
-23.1805

>  <SCORE.INTER.norm>
-0.273581

>  <SCORE.INTRA>
-0.0454026

>  <SCORE.INTRA.DIHEDRAL>
1.35478e-05

>  <SCORE.INTRA.DIHEDRAL.0>
2.39985

>  <SCORE.INTRA.POLAR>
0

>  <SCORE.INTRA.POLAR.0>
0

>  <SCORE.INTRA.REPUL>
0

>  <SCORE.INTRA.REPUL.0>
0

>  <SCORE.INTRA.SOLV>
1.24003

>  <SCORE.INTRA.SOLV.lig_0>
-110.958

>  <SCORE.INTRA.VDW>
-0.665426

>  <SCORE.INTRA.VDW.0>
-2.34644

>  <SCORE.INTRA.norm>
-0.00108101

>  <SCORE.RESTR>
2.49295

>  <SCORE.RESTR.CAVITY>
2.49295

>  <SCORE.RESTR.norm>
0.0593561

>  <SCORE.SYSTEM>
0

>  <SCORE.SYSTEM.CONST>
0

>  <SCORE.SYSTEM.DIHEDRAL>
0

>  <SCORE.SYSTEM.SOLV>
0

>  <SCORE.SYSTEM.norm>
0

>  <SCORE.heavy>
42

>  <SCORE.norm>
-0.215306

>  <RMSD>
28.557

$$$$
ligand
 OpenBabel11021811513D
libRbt.so/2013.1/901 2013/11/27
 42 48  0  0  0  0  0  0  0  0999 V2000
  -18.5236  -27.5619   -3.0313 P   0  0  2  0  0  0  0  0  0  0  0  0
  -16.3093  -23.8854   -5.6948 P   0  0  1  0  0  0  0  0  0  0  0  0
  -19.1054  -28.7447   -3.7698 O   0  5  0  0  0  0  0  0  0  0  0  0
  -16.4706  -23.2244   -4.3466 O   0  5  0  0  0  0  0  0  0  0  0  0
  -18.8980  -27.3164   -1.5892 O   0  0  0  0  0  0  0  0  0  0  0  0
  -15.4323  -23.2493   -6.7463 O   0  0  0  0  0  0  0  0  0  0  0  0
  -20.0699  -26.1266   -4.6143 C   0  0  0  0  0  0  0  0  0  0  0  0
  -14.5661  -25.6448   -4.7898 C   0  0  0  0  0  0  0  0  0  0  0  0
  -18.8560  -26.2303   -3.8722 O   0  0  0  0  0  0  0  0  0  0  0  0
  -15.8000  -25.3945   -5.4587 O   0  0  0  0  0  0  0  0  0  0  0  0
  -19.8472  -25.2352   -5.8301 C   0  0  1  0  0  0  0  0  0  0  0  0
  -14.7824  -26.6750   -3.6884 C   0  0  1  0  0  0  0  0  0  0  0  0
  -21.0979  -24.6991   -6.2705 O   0  0  0  0  0  0  0  0  0  0  0  0
  -13.7590  -26.5451   -2.6986 O   0  0  0  0  0  0  0  0  0  0  0  0
  -18.9323  -24.0686   -5.4976 C   0  0  1  0  0  0  0  0  0  0  0  0
  -16.1229  -26.4736   -2.9998 C   0  0  1  0  0  0  0  0  0  0  0  0
  -17.7746  -24.1036   -6.3266 O   0  0  0  0  0  0  0  0  0  0  0  0
  -16.9192  -27.6477   -3.1283 O   0  0  0  0  0  0  0  0  0  0  0  0
  -19.7293  -22.8065   -5.7706 C   0  0  0  0  0  0  0  0  0  0  0  0
  -15.8193  -26.2086   -1.5379 C   0  0  0  0  0  0  0  0  0  0  0  0
  -21.0952  -23.2691   -6.2556 C   0  0  2  0  0  0  0  0  0  0  0  0
  -14.3038  -26.2631   -1.4072 C   0  0  2  0  0  0  0  0  0  0  0  0
  -23.0592  -23.4286   -1.3877 N   0  0  0  0  0  0  0  0  0  0  0  0
  -21.9971  -24.0643   -1.9162 C   0  0  0  0  0  0  0  0  0  0  0  0
  -21.6049  -23.9274   -3.1962 N   0  0  0  0  0  0  0  0  0  0  0  0
  -22.2787  -23.1168   -4.0470 C   0  0  0  0  0  0  0  0  0  0  0  0
  -23.4524  -22.3861   -3.5436 C   0  0  0  0  0  0  0  0  0  0  0  0
  -23.8224  -22.5892   -2.1228 C   0  0  0  0  0  0  0  0  0  0  0  0
  -24.8888  -21.9544   -1.5791 N   0  0  0  0  0  0  0  0  0  0  0  0
  -23.9280  -21.6656   -4.5766 N   0  0  0  0  0  0  0  0  0  0  0  0
  -23.1305  -21.9123   -5.6472 C   0  0  0  0  0  0  0  0  0  0  0  0
  -22.1472  -22.7771   -5.3317 N   0  0  0  0  0  0  0  0  0  0  0  0
  -12.9905  -21.3435   -2.6897 N   0  0  0  0  0  0  0  0  0  0  0  0
  -13.4563  -22.3455   -3.4582 C   0  0  0  0  0  0  0  0  0  0  0  0
  -13.7545  -23.5706   -2.9892 N   0  0  0  0  0  0  0  0  0  0  0  0
  -13.5965  -23.8690   -1.6770 C   0  0  0  0  0  0  0  0  0  0  0  0
  -13.0914  -22.8251   -0.7718 C   0  0  0  0  0  0  0  0  0  0  0  0
  -12.7860  -21.5015   -1.3642 C   0  0  0  0  0  0  0  0  0  0  0  0
  -12.3170  -20.4841   -0.6006 N   0  0  0  0  0  0  0  0  0  0  0  0
  -13.0312  -23.3770    0.4548 N   0  0  0  0  0  0  0  0  0  0  0  0
  -13.4595  -24.6609    0.3446 C   0  0  0  0  0  0  0  0  0  0  0  0
  -13.7960  -24.9540   -0.9250 N   0  0  0  0  0  0  0  0  0  0  0  0
  1  3  1  6  0  0  0
  1  5  2  0  0  0  0
  1  9  1  0  0  0  0
  1 18  1  0  0  0  0
  2  4  1  1  0  0  0
  2  6  2  0  0  0  0
  2 10  1  0  0  0  0
  2 17  1  0  0  0  0
  7  9  1  0  0  0  0
  8 10  1  0  0  0  0
 11  7  1  1  0  0  0
 11 13  1  0  0  0  0
 11 15  1  0  0  0  0
 12  8  1  6  0  0  0
 12 14  1  0  0  0  0
 12 16  1  0  0  0  0
 13 21  1  0  0  0  0
 14 22  1  0  0  0  0
 15 17  1  6  0  0  0
 15 19  1  0  0  0  0
 16 18  1  1  0  0  0
 16 20  1  0  0  0  0
 19 21  1  0  0  0  0
 20 22  1  0  0  0  0
 21 32  1  1  0  0  0
 22 42  1  6  0  0  0
 23 24  2  0  0  0  0
 23 28  1  0  0  0  0
 24 25  1  0  0  0  0
 25 26  2  0  0  0  0
 26 27  1  0  0  0  0
 26 32  1  0  0  0  0
 27 28  2  0  0  0  0
 27 30  1  0  0  0  0
 28 29  1  0  0  0  0
 30 31  2  0  0  0  0
 31 32  1  0  0  0  0
 33 34  2  0  0  0  0
 33 38  1  0  0  0  0
 34 35  1  0  0  0  0
 35 36  2  0  0  0  0
 36 37  1  0  0  0  0
 36 42  1  0  0  0  0
 37 38  2  0  0  0  0
 37 40  1  0  0  0  0
 38 39  1  0  0  0  0
 40 41  2  0  0  0  0
 41 42  1  0  0  0  0
M  CHG  2   3  -1   4  -1
M  END
>  <CHROM.1>
54.71814430,37.92672856,-17.74095736,-24.40260889,-3.49913256,3.10500120
-0.22999143,0.14619318

>  <Name>
ligand

>  <RI>
0

>  <Rbt.Current_Directory>
/home/itssahil/PROJECTS/Mol_Feturizer/New_Systems/rnas/4QLN

>  <Rbt.Executable>
rbdock ($Id: //depot/dev/client3/rdock/2013.1/src/exe/rbdock.cxx#4 $)

>  <Rbt.Library>
libRbt.so (2013.1, Build901 2013/11/27)

>  <Rbt.Parameter_File>
/export/apps/rDock/src/rDock_2013.1_src/data/scripts/dock_solv.prm

>  <Rbt.Receptor>
prm/blind_docking_80.prm

>  <SCORE>
17.6343

>  <SCORE.INTER>
2.49246

>  <SCORE.INTER.CONST>
1

>  <SCORE.INTER.POLAR>
0

>  <SCORE.INTER.ROT>
2

>  <SCORE.INTER.SOLV>
28.8207

>  <SCORE.INTER.VDW>
-12.8786

>  <SCORE.INTER.norm>
0.0593442

>  <SCORE.INTRA>
-0.72195

>  <SCORE.INTRA.DIHEDRAL>
-0.000610863

>  <SCORE.INTRA.DIHEDRAL.0>
2.39985

>  <SCORE.INTRA.POLAR>
0

>  <SCORE.INTRA.POLAR.0>
0

>  <SCORE.INTRA.REPUL>
0

>  <SCORE.INTRA.REPUL.0>
0

>  <SCORE.INTRA.SOLV>
0.796752

>  <SCORE.INTRA.SOLV.lig_0>
-110.958

>  <SCORE.INTRA.VDW>
-1.12002

>  <SCORE.INTRA.VDW.0>
-2.34644

>  <SCORE.INTRA.norm>
-0.0171893

>  <SCORE.RESTR>
15.8638

>  <SCORE.RESTR.CAVITY>
15.8638

>  <SCORE.RESTR.norm>
0.377708

>  <SCORE.SYSTEM>
0

>  <SCORE.SYSTEM.CONST>
0

>  <SCORE.SYSTEM.DIHEDRAL>
0

>  <SCORE.SYSTEM.SOLV>
0

>  <SCORE.SYSTEM.norm>
0

>  <SCORE.heavy>
42

>  <SCORE.norm>
0.419863

>  <RMSD>
28.566

$$$$
ligand
 OpenBabel11021811513D
libRbt.so/2013.1/901 2013/11/27
 42 48  0  0  0  0  0  0  0  0999 V2000
  -18.5333  -27.5583   -3.0342 P   0  0  2  0  0  0  0  0  0  0  0  0
  -16.3196  -23.8775   -5.6924 P   0  0  1  0  0  0  0  0  0  0  0  0
  -19.1153  -28.7399   -3.7745 O   0  5  0  0  0  0  0  0  0  0  0  0
  -16.4806  -23.2187   -4.3431 O   0  5  0  0  0  0  0  0  0  0  0  0
  -18.9074  -27.3150   -1.5917 O   0  0  0  0  0  0  0  0  0  0  0  0
  -15.4428  -23.2398   -6.7431 O   0  0  0  0  0  0  0  0  0  0  0  0
  -20.0800  -26.1205   -4.6147 C   0  0  0  0  0  0  0  0  0  0  0  0
  -14.5762  -25.6384   -4.7905 C   0  0  0  0  0  0  0  0  0  0  0  0
  -18.8659  -26.2253   -3.8730 O   0  0  0  0  0  0  0  0  0  0  0  0
  -15.8103  -25.3870   -5.4587 O   0  0  0  0  0  0  0  0  0  0  0  0
  -19.8575  -25.2271   -5.8291 C   0  0  1  0  0  0  0  0  0  0  0  0
  -14.7923  -26.6703   -3.6907 C   0  0  1  0  0  0  0  0  0  0  0  0
  -21.1083  -24.6904   -6.2684 O   0  0  0  0  0  0  0  0  0  0  0  0
  -13.7687  -26.5419   -2.7009 O   0  0  0  0  0  0  0  0  0  0  0  0
  -18.9426  -24.0611   -5.4949 C   0  0  1  0  0  0  0  0  0  0  0  0
  -16.1326  -26.4700   -3.0015 C   0  0  1  0  0  0  0  0  0  0  0  0
  -17.7851  -24.0948   -6.3242 O   0  0  0  0  0  0  0  0  0  0  0  0
  -16.9289  -27.6439   -3.1317 O   0  0  0  0  0  0  0  0  0  0  0  0
  -19.7397  -22.7986   -5.7658 C   0  0  0  0  0  0  0  0  0  0  0  0
  -15.8287  -26.2073   -1.5392 C   0  0  0  0  0  0  0  0  0  0  0  0
  -21.1057  -23.2604   -6.2512 C   0  0  2  0  0  0  0  0  0  0  0  0
  -14.3132  -26.2620   -1.4089 C   0  0  2  0  0  0  0  0  0  0  0  0
  -23.0677  -23.4265   -1.3828 N   0  0  0  0  0  0  0  0  0  0  0  0
  -22.0057  -24.0611   -1.9124 C   0  0  0  0  0  0  0  0  0  0  0  0
  -21.6139  -23.9226   -3.1924 N   0  0  0  0  0  0  0  0  0  0  0  0
  -22.2883  -23.1112   -4.0420 C   0  0  0  0  0  0  0  0  0  0  0  0
  -23.4621  -22.3815   -3.5373 C   0  0  0  0  0  0  0  0  0  0  0  0
  -23.8315  -22.5865   -2.1165 C   0  0  0  0  0  0  0  0  0  0  0  0
  -24.8979  -21.9527   -1.5717 N   0  0  0  0  0  0  0  0  0  0  0  0
  -23.9384  -21.6599   -4.5691 N   0  0  0  0  0  0  0  0  0  0  0  0
  -23.1412  -21.9050   -5.6404 C   0  0  0  0  0  0  0  0  0  0  0  0
  -22.1574  -22.7698   -5.3263 N   0  0  0  0  0  0  0  0  0  0  0  0
  -12.9912  -21.3433   -2.6857 N   0  0  0  0  0  0  0  0  0  0  0  0
  -13.4560  -22.3444   -3.4559 C   0  0  0  0  0  0  0  0  0  0  0  0
  -13.7567  -23.5693   -2.9883 N   0  0  0  0  0  0  0  0  0  0  0  0
  -13.6027  -23.8685   -1.6757 C   0  0  0  0  0  0  0  0  0  0  0  0
  -13.0989  -22.8256   -0.7688 C   0  0  0  0  0  0  0  0  0  0  0  0
  -12.7905  -21.5020   -1.3597 C   0  0  0  0  0  0  0  0  0  0  0  0
  -12.3225  -20.4855   -0.5944 N   0  0  0  0  0  0  0  0  0  0  0  0
  -13.0426  -23.3781    0.4578 N   0  0  0  0  0  0  0  0  0  0  0  0
  -13.4719  -24.6615    0.3458 C   0  0  0  0  0  0  0  0  0  0  0  0
  -13.8053  -24.9537   -0.9248 N   0  0  0  0  0  0  0  0  0  0  0  0
  1  3  1  6  0  0  0
  1  5  2  0  0  0  0
  1  9  1  0  0  0  0
  1 18  1  0  0  0  0
  2  4  1  1  0  0  0
  2  6  2  0  0  0  0
  2 10  1  0  0  0  0
  2 17  1  0  0  0  0
  7  9  1  0  0  0  0
  8 10  1  0  0  0  0
 11  7  1  1  0  0  0
 11 13  1  0  0  0  0
 11 15  1  0  0  0  0
 12  8  1  6  0  0  0
 12 14  1  0  0  0  0
 12 16  1  0  0  0  0
 13 21  1  0  0  0  0
 14 22  1  0  0  0  0
 15 17  1  6  0  0  0
 15 19  1  0  0  0  0
 16 18  1  1  0  0  0
 16 20  1  0  0  0  0
 19 21  1  0  0  0  0
 20 22  1  0  0  0  0
 21 32  1  1  0  0  0
 22 42  1  6  0  0  0
 23 24  2  0  0  0  0
 23 28  1  0  0  0  0
 24 25  1  0  0  0  0
 25 26  2  0  0  0  0
 26 27  1  0  0  0  0
 26 32  1  0  0  0  0
 27 28  2  0  0  0  0
 27 30  1  0  0  0  0
 28 29  1  0  0  0  0
 30 31  2  0  0  0  0
 31 32  1  0  0  0  0
 33 34  2  0  0  0  0
 33 38  1  0  0  0  0
 34 35  1  0  0  0  0
 35 36  2  0  0  0  0
 36 37  1  0  0  0  0
 36 42  1  0  0  0  0
 37 38  2  0  0  0  0
 37 40  1  0  0  0  0
 38 39  1  0  0  0  0
 40 41  2  0  0  0  0
 41 42  1  0  0  0  0
M  CHG  2   3  -1   4  -1
M  END
>  <CHROM.1>
54.74867188,37.73772372,-17.75001038,-24.39837829,-3.49734732,3.10495137
-0.22962276,0.14739601

>  <Name>
ligand

>  <RI>
0

>  <Rbt.Current_Directory>
/home/itssahil/PROJECTS/Mol_Feturizer/New_Systems/rnas/4QLN

>  <Rbt.Executable>
rbdock ($Id: //depot/dev/client3/rdock/2013.1/src/exe/rbdock.cxx#4 $)

>  <Rbt.Library>
libRbt.so (2013.1, Build901 2013/11/27)

>  <Rbt.Parameter_File>
/export/apps/rDock/src/rDock_2013.1_src/data/scripts/dock_solv.prm

>  <Rbt.Receptor>
prm/blind_docking_80.prm

>  <SCORE>
17.7134

>  <SCORE.INTER>
2.58889

>  <SCORE.INTER.CONST>
1

>  <SCORE.INTER.POLAR>
0

>  <SCORE.INTER.ROT>
2

>  <SCORE.INTER.SOLV>
28.7909

>  <SCORE.INTER.VDW>
-12.8044

>  <SCORE.INTER.norm>
0.0616403

>  <SCORE.INTRA>
-0.721097

>  <SCORE.INTRA.DIHEDRAL>
-0.000613426

>  <SCORE.INTRA.DIHEDRAL.0>
2.39985

>  <SCORE.INTRA.POLAR>
0

>  <SCORE.INTRA.POLAR.0>
0

>  <SCORE.INTRA.REPUL>
0

>  <SCORE.INTRA.REPUL.0>
0

>  <SCORE.INTRA.SOLV>
0.789218

>  <SCORE.INTRA.SOLV.lig_0>
-110.958

>  <SCORE.INTRA.VDW>
-1.1154

>  <SCORE.INTRA.VDW.0>
-2.34644

>  <SCORE.INTRA.norm>
-0.017169

>  <SCORE.RESTR>
15.8456

>  <SCORE.RESTR.CAVITY>
15.8456

>  <SCORE.RESTR.norm>
0.377276

>  <SCORE.SYSTEM>
0

>  <SCORE.SYSTEM.CONST>
0

>  <SCORE.SYSTEM.DIHEDRAL>
0

>  <SCORE.SYSTEM.SOLV>
0

>  <SCORE.SYSTEM.norm>
0

>  <SCORE.heavy>
42

>  <SCORE.norm>
0.421748

>  <RMSD>
28.576

$$$$
ligand
 OpenBabel11021811513D
libRbt.so/2013.1/901 2013/11/27
 42 48  0  0  0  0  0  0  0  0999 V2000
  -18.5992  -27.5081   -3.0333 P   0  0  2  0  0  0  0  0  0  0  0  0
  -16.3371  -23.9029   -5.7536 P   0  0  1  0  0  0  0  0  0  0  0  0
  -19.1915  -28.6973   -3.7529 O   0  5  0  0  0  0  0  0  0  0  0  0
  -16.4952  -23.2167   -4.4177 O   0  5  0  0  0  0  0  0  0  0  0  0
  -18.9753  -27.2333   -1.5969 O   0  0  0  0  0  0  0  0  0  0  0  0
  -15.4500  -23.2949   -6.8132 O   0  0  0  0  0  0  0  0  0  0  0  0
  -20.1250  -26.0842   -4.6461 C   0  0  0  0  0  0  0  0  0  0  0  0
  -14.6158  -25.6649   -4.8123 C   0  0  0  0  0  0  0  0  0  0  0  0
  -18.9145  -26.1879   -3.8985 O   0  0  0  0  0  0  0  0  0  0  0  0
  -15.8449  -25.4131   -5.4895 O   0  0  0  0  0  0  0  0  0  0  0  0
  -19.8889  -25.2166   -5.8767 C   0  0  1  0  0  0  0  0  0  0  0  0
  -14.8466  -26.6733   -3.6938 C   0  0  1  0  0  0  0  0  0  0  0  0
  -21.1324  -24.6749   -6.3303 O   0  0  0  0  0  0  0  0  0  0  0  0
  -13.8249  -26.5371   -2.7031 O   0  0  0  0  0  0  0  0  0  0  0  0
  -18.9625  -24.0543   -5.5616 C   0  0  1  0  0  0  0  0  0  0  0  0
  -16.1869  -26.4454   -3.0131 C   0  0  1  0  0  0  0  0  0  0  0  0
  -17.8027  -24.1164   -6.3862 O   0  0  0  0  0  0  0  0  0  0  0  0
  -16.9955  -27.6129   -3.1236 O   0  0  0  0  0  0  0  0  0  0  0  0
  -19.7449  -22.7887   -5.8593 C   0  0  0  0  0  0  0  0  0  0  0  0
  -15.8848  -26.1581   -1.5551 C   0  0  0  0  0  0  0  0  0  0  0  0
  -21.1143  -23.2449   -6.3404 C   0  0  2  0  0  0  0  0  0  0  0  0
  -14.3705  -26.2267   -1.4186 C   0  0  2  0  0  0  0  0  0  0  0  0
  -23.0260  -23.2076   -1.4494 N   0  0  0  0  0  0  0  0  0  0  0  0
  -21.9605  -23.8523   -1.9597 C   0  0  0  0  0  0  0  0  0  0  0  0
  -21.5833  -23.7690   -3.2488 N   0  0  0  0  0  0  0  0  0  0  0  0
  -22.2772  -23.0076   -4.1284 C   0  0  0  0  0  0  0  0  0  0  0  0
  -23.4559  -22.2707   -3.6464 C   0  0  0  0  0  0  0  0  0  0  0  0
  -23.8085  -22.4134   -2.2138 C   0  0  0  0  0  0  0  0  0  0  0  0
  -24.8782  -21.7690   -1.6882 N   0  0  0  0  0  0  0  0  0  0  0  0
  -23.9523  -21.6049   -4.7060 N   0  0  0  0  0  0  0  0  0  0  0  0
  -23.1623  -21.8896   -5.7728 C   0  0  0  0  0  0  0  0  0  0  0  0
  -22.1636  -22.7254   -5.4287 N   0  0  0  0  0  0  0  0  0  0  0  0
  -12.9358  -21.3663   -2.7939 N   0  0  0  0  0  0  0  0  0  0  0  0
  -13.4019  -22.3793   -3.5476 C   0  0  0  0  0  0  0  0  0  0  0  0
  -13.7338  -23.5863   -3.0549 N   0  0  0  0  0  0  0  0  0  0  0  0
  -13.6126  -23.8534   -1.7321 C   0  0  0  0  0  0  0  0  0  0  0  0
  -13.1097  -22.7957   -0.8419 C   0  0  0  0  0  0  0  0  0  0  0  0
  -12.7657  -21.4936   -1.4602 C   0  0  0  0  0  0  0  0  0  0  0  0
  -12.2961  -20.4654   -0.7116 N   0  0  0  0  0  0  0  0  0  0  0  0
  -13.0888  -23.3167    0.3995 N   0  0  0  0  0  0  0  0  0  0  0  0
  -13.5381  -24.5951    0.3117 C   0  0  0  0  0  0  0  0  0  0  0  0
  -13.8499  -24.9149   -0.9577 N   0  0  0  0  0  0  0  0  0  0  0  0
  1  3  1  6  0  0  0
  1  5  2  0  0  0  0
  1  9  1  0  0  0  0
  1 18  1  0  0  0  0
  2  4  1  1  0  0  0
  2  6  2  0  0  0  0
  2 10  1  0  0  0  0
  2 17  1  0  0  0  0
  7  9  1  0  0  0  0
  8 10  1  0  0  0  0
 11  7  1  1  0  0  0
 11 13  1  0  0  0  0
 11 15  1  0  0  0  0
 12  8  1  6  0  0  0
 12 14  1  0  0  0  0
 12 16  1  0  0  0  0
 13 21  1  0  0  0  0
 14 22  1  0  0  0  0
 15 17  1  6  0  0  0
 15 19  1  0  0  0  0
 16 18  1  1  0  0  0
 16 20  1  0  0  0  0
 19 21  1  0  0  0  0
 20 22  1  0  0  0  0
 21 32  1  1  0  0  0
 22 42  1  6  0  0  0
 23 24  2  0  0  0  0
 23 28  1  0  0  0  0
 24 25  1  0  0  0  0
 25 26  2  0  0  0  0
 26 27  1  0  0  0  0
 26 32  1  0  0  0  0
 27 28  2  0  0  0  0
 27 30  1  0  0  0  0
 28 29  1  0  0  0  0
 30 31  2  0  0  0  0
 31 32  1  0  0  0  0
 33 34  2  0  0  0  0
 33 38  1  0  0  0  0
 34 35  1  0  0  0  0
 35 36  2  0  0  0  0
 36 37  1  0  0  0  0
 36 42  1  0  0  0  0
 37 38  2  0  0  0  0
 37 40  1  0  0  0  0
 38 39  1  0  0  0  0
 40 41  2  0  0  0  0
 41 42  1  0  0  0  0
M  CHG  2   3  -1   4  -1
M  END
>  <CHROM.1>
57.01293161,36.57711904,-17.76997689,-24.36045559,-3.55247257,3.09722327
-0.23578289,0.14862994

>  <Name>
ligand

>  <RI>
0

>  <Rbt.Current_Directory>
/home/itssahil/PROJECTS/Mol_Feturizer/New_Systems/rnas/4QLN

>  <Rbt.Executable>
rbdock ($Id: //depot/dev/client3/rdock/2013.1/src/exe/rbdock.cxx#4 $)

>  <Rbt.Library>
libRbt.so (2013.1, Build901 2013/11/27)

>  <Rbt.Parameter_File>
/export/apps/rDock/src/rDock_2013.1_src/data/scripts/dock_solv.prm

>  <Rbt.Receptor>
prm/blind_docking_40.prm

>  <SCORE>
12.4912

>  <SCORE.INTER>
4.69185

>  <SCORE.INTER.CONST>
1

>  <SCORE.INTER.POLAR>
0

>  <SCORE.INTER.ROT>
2

>  <SCORE.INTER.SOLV>
29.8793

>  <SCORE.INTER.VDW>
-11.7652

>  <SCORE.INTER.norm>
0.111711

>  <SCORE.INTRA>
-0.701314

>  <SCORE.INTRA.DIHEDRAL>
-0.000599856

>  <SCORE.INTRA.DIHEDRAL.0>
2.39985

>  <SCORE.INTRA.POLAR>
0

>  <SCORE.INTRA.POLAR.0>
0

>  <SCORE.INTRA.REPUL>
0

>  <SCORE.INTRA.REPUL.0>
0

>  <SCORE.INTRA.SOLV>
0.73971

>  <SCORE.INTRA.SOLV.lig_0>
-110.958

>  <SCORE.INTRA.VDW>
-1.07087

>  <SCORE.INTRA.VDW.0>
-2.34644

>  <SCORE.INTRA.norm>
-0.016698

>  <SCORE.RESTR>
8.50066

>  <SCORE.RESTR.CAVITY>
8.50066

>  <SCORE.RESTR.norm>
0.202397

>  <SCORE.SYSTEM>
0

>  <SCORE.SYSTEM.CONST>
0

>  <SCORE.SYSTEM.DIHEDRAL>
0

>  <SCORE.SYSTEM.SOLV>
0

>  <SCORE.SYSTEM.norm>
0

>  <SCORE.heavy>
42

>  <SCORE.norm>
0.29741

>  <RMSD>
28.578

$$$$
ligand
 OpenBabel11021811513D
libRbt.so/2013.1/901 2013/11/27
 42 48  0  0  0  0  0  0  0  0999 V2000
  -19.3307  -26.3290   -0.3798 P   0  0  2  0  0  0  0  0  0  0  0  0
  -18.1863  -22.7559   -3.7618 P   0  0  1  0  0  0  0  0  0  0  0  0
  -19.1446  -26.0257    1.0886 O   0  5  0  0  0  0  0  0  0  0  0  0
  -18.2977  -23.9780   -4.6419 O   0  5  0  0  0  0  0  0  0  0  0  0
  -19.5150  -27.7564   -0.8364 O   0  0  0  0  0  0  0  0  0  0  0  0
  -18.1285  -21.3814   -4.3839 O   0  0  0  0  0  0  0  0  0  0  0  0
  -16.7927  -25.6426   -0.5904 C   0  0  0  0  0  0  0  0  0  0  0  0
  -20.7541  -22.7706   -3.1621 C   0  0  0  0  0  0  0  0  0  0  0  0
  -18.0880  -25.6984   -1.1855 O   0  0  0  0  0  0  0  0  0  0  0  0
  -19.4029  -22.7814   -2.7073 O   0  0  0  0  0  0  0  0  0  0  0  0
  -16.0376  -24.4340   -1.1305 C   0  0  1  0  0  0  0  0  0  0  0  0
  -21.5338  -23.8828   -2.4720 C   0  0  1  0  0  0  0  0  0  0  0  0
  -14.6300  -24.6388   -0.9813 O   0  0  0  0  0  0  0  0  0  0  0  0
  -22.6710  -24.2369   -3.2627 O   0  0  0  0  0  0  0  0  0  0  0  0
  -16.3227  -24.2214   -2.6076 C   0  0  1  0  0  0  0  0  0  0  0  0
  -20.6811  -25.1298   -2.3000 C   0  0  1  0  0  0  0  0  0  0  0  0
  -16.8961  -22.9340   -2.8143 O   0  0  0  0  0  0  0  0  0  0  0  0
  -20.5753  -25.4623   -0.9189 O   0  0  0  0  0  0  0  0  0  0  0  0
  -14.9867  -24.3160   -3.3208 C   0  0  0  0  0  0  0  0  0  0  0  0
  -21.3897  -26.2414   -3.0496 C   0  0  0  0  0  0  0  0  0  0  0  0
  -13.9512  -24.5846   -2.2389 C   0  0  2  0  0  0  0  0  0  0  0  0
  -22.6440  -25.6150   -3.6423 C   0  0  2  0  0  0  0  0  0  0  0  0
  -11.1426  -28.5361   -0.2202 N   0  0  0  0  0  0  0  0  0  0  0  0
  -11.6210  -27.4233    0.3664 C   0  0  0  0  0  0  0  0  0  0  0  0
  -12.3338  -26.4839   -0.2821 N   0  0  0  0  0  0  0  0  0  0  0  0
  -12.6170  -26.6128   -1.6004 C   0  0  0  0  0  0  0  0  0  0  0  0
  -12.1286  -27.8037   -2.3132 C   0  0  0  0  0  0  0  0  0  0  0  0
  -11.3501  -28.7932   -1.5310 C   0  0  0  0  0  0  0  0  0  0  0  0
  -10.8640  -29.9176   -2.1100 N   0  0  0  0  0  0  0  0  0  0  0  0
  -12.5423  -27.6842   -3.5887 N   0  0  0  0  0  0  0  0  0  0  0  0
  -13.2344  -26.5203   -3.6855 C   0  0  0  0  0  0  0  0  0  0  0  0
  -13.2792  -25.8816   -2.5004 N   0  0  0  0  0  0  0  0  0  0  0  0
  -21.4979  -23.2266   -8.1760 N   0  0  0  0  0  0  0  0  0  0  0  0
  -21.3963  -22.7803   -6.9104 C   0  0  0  0  0  0  0  0  0  0  0  0
  -21.7304  -23.5105   -5.8311 N   0  0  0  0  0  0  0  0  0  0  0  0
  -22.2014  -24.7738   -5.9664 C   0  0  0  0  0  0  0  0  0  0  0  0
  -22.3411  -25.3336   -7.3196 C   0  0  0  0  0  0  0  0  0  0  0  0
  -21.9520  -24.4670   -8.4571 C   0  0  0  0  0  0  0  0  0  0  0  0
  -22.0490  -24.9054   -9.7364 N   0  0  0  0  0  0  0  0  0  0  0  0
  -22.8210  -26.5827   -7.1705 N   0  0  0  0  0  0  0  0  0  0  0  0
  -22.9755  -26.8029   -5.8395 C   0  0  0  0  0  0  0  0  0  0  0  0
  -22.6067  -25.7256   -5.1223 N   0  0  0  0  0  0  0  0  0  0  0  0
  1  3  1  1  0  0  0
  1  5  2  0  0  0  0
  1  9  1  0  0  0  0
  1 18  1  0  0  0  0
  2  4  1  6  0  0  0
  2  6  2  0  0  0  0
  2 10  1  0  0  0  0
  2 17  1  0  0  0  0
  7  9  1  0  0  0  0
  8 10  1  0  0  0  0
 11  7  1  6  0  0  0
 11 13  1  0  0  0  0
 11 15  1  0  0  0  0
 12  8  1  6  0  0  0
 12 14  1  0  0  0  0
 12 16  1  0  0  0  0
 13 21  1  0  0  0  0
 14 22  1  0  0  0  0
 15 17  1  1  0  0  0
 15 19  1  0  0  0  0
 16 18  1  1  0  0  0
 16 20  1  0  0  0  0
 19 21  1  0  0  0  0
 20 22  1  0  0  0  0
 21 32  1  6  0  0  0
 22 42  1  6  0  0  0
 23 24  2  0  0  0  0
 23 28  1  0  0  0  0
 24 25  1  0  0  0  0
 25 26  2  0  0  0  0
 26 27  1  0  0  0  0
 26 32  1  0  0  0  0
 27 28  2  0  0  0  0
 27 30  1  0  0  0  0
 28 29  1  0  0  0  0
 30 31  2  0  0  0  0
 31 32  1  0  0  0  0
 33 34  2  0  0  0  0
 33 38  1  0  0  0  0
 34 35  1  0  0  0  0
 35 36  2  0  0  0  0
 36 37  1  0  0  0  0
 36 42  1  0  0  0  0
 37 38  2  0  0  0  0
 37 40  1  0  0  0  0
 38 39  1  0  0  0  0
 40 41  2  0  0  0  0
 41 42  1  0  0  0  0
M  CHG  2   3  -1   4  -1
M  END
>  <CHROM.1>
-41.20800767,21.50341526,-18.01074138,-25.25642615,-3.13804649,0.47879930
-0.16939622,1.78852651

>  <Name>
ligand

>  <RI>
0

>  <Rbt.Current_Directory>
/home/itssahil/PROJECTS/Mol_Feturizer/New_Systems/rnas/4QLN

>  <Rbt.Executable>
rbdock ($Id: //depot/dev/client3/rdock/2013.1/src/exe/rbdock.cxx#4 $)

>  <Rbt.Library>
libRbt.so (2013.1, Build901 2013/11/27)

>  <Rbt.Parameter_File>
/export/apps/rDock/src/rDock_2013.1_src/data/scripts/dock_solv.prm

>  <Rbt.Receptor>
prm/blind_docking_100.prm

>  <SCORE>
-10.0154

>  <SCORE.INTER>
-12.818

>  <SCORE.INTER.CONST>
1

>  <SCORE.INTER.POLAR>
0

>  <SCORE.INTER.ROT>
2

>  <SCORE.INTER.SOLV>
25.2898

>  <SCORE.INTER.VDW>
-21.9086

>  <SCORE.INTER.norm>
-0.305191

>  <SCORE.INTRA>
0.909698

>  <SCORE.INTRA.DIHEDRAL>
-0.000311805

>  <SCORE.INTRA.DIHEDRAL.0>
2.39985

>  <SCORE.INTRA.POLAR>
0

>  <SCORE.INTRA.POLAR.0>
0

>  <SCORE.INTRA.REPUL>
0

>  <SCORE.INTRA.REPUL.0>
0

>  <SCORE.INTRA.SOLV>
0.1356

>  <SCORE.INTRA.SOLV.lig_0>
-110.958

>  <SCORE.INTRA.VDW>
0.842054

>  <SCORE.INTRA.VDW.0>
-2.34644

>  <SCORE.INTRA.norm>
0.0216595

>  <SCORE.RESTR>
1.89298

>  <SCORE.RESTR.CAVITY>
1.89298

>  <SCORE.RESTR.norm>
0.0450708

>  <SCORE.SYSTEM>
0

>  <SCORE.SYSTEM.CONST>
0

>  <SCORE.SYSTEM.DIHEDRAL>
0

>  <SCORE.SYSTEM.SOLV>
0

>  <SCORE.SYSTEM.norm>
0

>  <SCORE.heavy>
42

>  <SCORE.norm>
-0.238461

>  <RMSD>
28.579

$$$$
ligand
 OpenBabel11021811513D
libRbt.so/2013.1/901 2013/11/27
 42 48  0  0  0  0  0  0  0  0999 V2000
  -19.3169  -26.3182   -0.3785 P   0  0  2  0  0  0  0  0  0  0  0  0
  -18.1699  -22.7233   -3.7364 P   0  0  1  0  0  0  0  0  0  0  0  0
  -19.1263  -26.0265    1.0917 O   0  5  0  0  0  0  0  0  0  0  0  0
  -18.2871  -23.9384   -4.6254 O   0  5  0  0  0  0  0  0  0  0  0  0
  -19.5067  -27.7416   -0.8453 O   0  0  0  0  0  0  0  0  0  0  0  0
  -18.1093  -21.3444   -4.3484 O   0  0  0  0  0  0  0  0  0  0  0  0
  -16.7773  -25.6379   -0.5903 C   0  0  0  0  0  0  0  0  0  0  0  0
  -20.7362  -22.7346   -3.1304 C   0  0  0  0  0  0  0  0  0  0  0  0
  -18.0742  -25.6854   -1.1825 O   0  0  0  0  0  0  0  0  0  0  0  0
  -19.3839  -22.7530   -2.6792 O   0  0  0  0  0  0  0  0  0  0  0  0
  -16.0198  -24.4276   -1.1232 C   0  0  1  0  0  0  0  0  0  0  0  0
  -21.5176  -23.8496   -2.4468 C   0  0  1  0  0  0  0  0  0  0  0  0
  -14.6125  -24.6379   -0.9790 O   0  0  0  0  0  0  0  0  0  0  0  0
  -22.6579  -24.1943   -3.2373 O   0  0  0  0  0  0  0  0  0  0  0  0
  -16.3079  -24.2031   -2.5980 C   0  0  1  0  0  0  0  0  0  0  0  0
  -20.6684  -25.1005   -2.2862 C   0  0  1  0  0  0  0  0  0  0  0  0
  -16.8779  -22.9124   -2.7936 O   0  0  0  0  0  0  0  0  0  0  0  0
  -20.5602  -25.4437   -0.9079 O   0  0  0  0  0  0  0  0  0  0  0  0
  -14.9740  -24.2965   -3.3151 C   0  0  0  0  0  0  0  0  0  0  0  0
  -21.3822  -26.2042   -3.0424 C   0  0  0  0  0  0  0  0  0  0  0  0
  -13.9367  -24.5763   -2.2379 C   0  0  2  0  0  0  0  0  0  0  0  0
  -22.6360  -25.5696   -3.6273 C   0  0  2  0  0  0  0  0  0  0  0  0
  -11.1023  -28.5326   -0.2649 N   0  0  0  0  0  0  0  0  0  0  0  0
  -11.5716  -27.4203    0.3300 C   0  0  0  0  0  0  0  0  0  0  0  0
  -12.2929  -26.4795   -0.3069 N   0  0  0  0  0  0  0  0  0  0  0  0
  -12.5949  -26.6063   -1.6213 C   0  0  0  0  0  0  0  0  0  0  0  0
  -12.1174  -27.7964   -2.3427 C   0  0  0  0  0  0  0  0  0  0  0  0
  -11.3286  -28.7876   -1.5731 C   0  0  0  0  0  0  0  0  0  0  0  0
  -10.8515  -29.9115   -2.1605 N   0  0  0  0  0  0  0  0  0  0  0  0
  -12.5491  -27.6749   -3.6120 N   0  0  0  0  0  0  0  0  0  0  0  0
  -13.2417  -26.5103   -3.6973 C   0  0  0  0  0  0  0  0  0  0  0  0
  -13.2693  -25.8734   -2.5107 N   0  0  0  0  0  0  0  0  0  0  0  0
  -21.5011  -23.1480   -8.1461 N   0  0  0  0  0  0  0  0  0  0  0  0
  -21.3959  -22.7111   -6.8775 C   0  0  0  0  0  0  0  0  0  0  0  0
  -21.7274  -23.4492   -5.8028 N   0  0  0  0  0  0  0  0  0  0  0  0
  -22.1993  -24.7113   -5.9462 C   0  0  0  0  0  0  0  0  0  0  0  0
  -22.3428  -25.2610   -7.3032 C   0  0  0  0  0  0  0  0  0  0  0  0
  -21.9564  -24.3861   -8.4352 C   0  0  0  0  0  0  0  0  0  0  0  0
  -22.0570  -24.8149   -9.7175 N   0  0  0  0  0  0  0  0  0  0  0  0
  -22.8228  -26.5110   -7.1621 N   0  0  0  0  0  0  0  0  0  0  0  0
  -22.9738  -26.7410   -5.8324 C   0  0  0  0  0  0  0  0  0  0  0  0
  -22.6027  -25.6692   -5.1082 N   0  0  0  0  0  0  0  0  0  0  0  0
  1  3  1  1  0  0  0
  1  5  2  0  0  0  0
  1  9  1  0  0  0  0
  1 18  1  0  0  0  0
  2  4  1  6  0  0  0
  2  6  2  0  0  0  0
  2 10  1  0  0  0  0
  2 17  1  0  0  0  0
  7  9  1  0  0  0  0
  8 10  1  0  0  0  0
 11  7  1  6  0  0  0
 11 13  1  0  0  0  0
 11 15  1  0  0  0  0
 12  8  1  6  0  0  0
 12 14  1  0  0  0  0
 12 16  1  0  0  0  0
 13 21  1  0  0  0  0
 14 22  1  0  0  0  0
 15 17  1  1  0  0  0
 15 19  1  0  0  0  0
 16 18  1  1  0  0  0
 16 20  1  0  0  0  0
 19 21  1  0  0  0  0
 20 22  1  0  0  0  0
 21 32  1  6  0  0  0
 22 42  1  6  0  0  0
 23 24  2  0  0  0  0
 23 28  1  0  0  0  0
 24 25  1  0  0  0  0
 25 26  2  0  0  0  0
 26 27  1  0  0  0  0
 26 32  1  0  0  0  0
 27 28  2  0  0  0  0
 27 30  1  0  0  0  0
 28 29  1  0  0  0  0
 30 31  2  0  0  0  0
 31 32  1  0  0  0  0
 33 34  2  0  0  0  0
 33 38  1  0  0  0  0
 34 35  1  0  0  0  0
 35 36  2  0  0  0  0
 36 37  1  0  0  0  0
 36 42  1  0  0  0  0
 37 38  2  0  0  0  0
 37 40  1  0  0  0  0
 38 39  1  0  0  0  0
 40 41  2  0  0  0  0
 41 42  1  0  0  0  0
M  CHG  2   3  -1   4  -1
M  END
>  <CHROM.1>
-41.97484620,21.34901444,-17.99833359,-25.22718716,-3.13266258,0.47566571
-0.17283240,1.79427306

>  <Name>
ligand

>  <RI>
0

>  <Rbt.Current_Directory>
/home/itssahil/PROJECTS/Mol_Feturizer/New_Systems/rnas/4QLN

>  <Rbt.Executable>
rbdock ($Id: //depot/dev/client3/rdock/2013.1/src/exe/rbdock.cxx#4 $)

>  <Rbt.Library>
libRbt.so (2013.1, Build901 2013/11/27)

>  <Rbt.Parameter_File>
/export/apps/rDock/src/rDock_2013.1_src/data/scripts/dock_solv.prm

>  <Rbt.Receptor>
prm/blind_docking_100.prm

>  <SCORE>
-9.86922

>  <SCORE.INTER>
-12.6367

>  <SCORE.INTER.CONST>
1

>  <SCORE.INTER.POLAR>
0

>  <SCORE.INTER.ROT>
2

>  <SCORE.INTER.SOLV>
25.5974

>  <SCORE.INTER.VDW>
-21.8902

>  <SCORE.INTER.norm>
-0.300874

>  <SCORE.INTRA>
0.922076

>  <SCORE.INTRA.DIHEDRAL>
-0.000315154

>  <SCORE.INTRA.DIHEDRAL.0>
2.39985

>  <SCORE.INTRA.POLAR>
0

>  <SCORE.INTRA.POLAR.0>
0

>  <SCORE.INTRA.REPUL>
0

>  <SCORE.INTRA.REPUL.0>
0

>  <SCORE.INTRA.SOLV>
0.129736

>  <SCORE.INTRA.SOLV.lig_0>
-110.958

>  <SCORE.INTRA.VDW>
0.857366

>  <SCORE.INTRA.VDW.0>
-2.34644

>  <SCORE.INTRA.norm>
0.0219542

>  <SCORE.RESTR>
1.84539

>  <SCORE.RESTR.CAVITY>
1.84539

>  <SCORE.RESTR.norm>
0.0439378

>  <SCORE.SYSTEM>
0

>  <SCORE.SYSTEM.CONST>
0

>  <SCORE.SYSTEM.DIHEDRAL>
0

>  <SCORE.SYSTEM.SOLV>
0

>  <SCORE.SYSTEM.norm>
0

>  <SCORE.heavy>
42

>  <SCORE.norm>
-0.234981

>  <RMSD>
28.581

$$$$
ligand
 OpenBabel11021811513D
libRbt.so/2013.1/901 2013/11/27
 42 48  0  0  0  0  0  0  0  0999 V2000
  -19.3428  -26.3394   -0.3972 P   0  0  2  0  0  0  0  0  0  0  0  0
  -18.2073  -22.7448   -3.7593 P   0  0  1  0  0  0  0  0  0  0  0  0
  -19.1613  -26.0425    1.0731 O   0  5  0  0  0  0  0  0  0  0  0  0
  -18.3111  -23.9631   -4.6455 O   0  5  0  0  0  0  0  0  0  0  0  0
  -19.5196  -27.7654   -0.8611 O   0  0  0  0  0  0  0  0  0  0  0  0
  -18.1543  -21.3671   -4.3746 O   0  0  0  0  0  0  0  0  0  0  0  0
  -16.8075  -25.6405   -0.5989 C   0  0  0  0  0  0  0  0  0  0  0  0
  -20.7763  -22.7740   -3.1653 C   0  0  0  0  0  0  0  0  0  0  0  0
  -18.1012  -25.6993   -1.1970 O   0  0  0  0  0  0  0  0  0  0  0  0
  -19.4260  -22.7810   -2.7077 O   0  0  0  0  0  0  0  0  0  0  0  0
  -16.0567  -24.4258   -1.1314 C   0  0  1  0  0  0  0  0  0  0  0  0
  -21.5524  -23.8931   -2.4824 C   0  0  1  0  0  0  0  0  0  0  0  0
  -14.6485  -24.6250   -0.9801 O   0  0  0  0  0  0  0  0  0  0  0  0
  -22.6863  -24.2485   -3.2773 O   0  0  0  0  0  0  0  0  0  0  0  0
  -16.3396  -24.2074   -2.6081 C   0  0  1  0  0  0  0  0  0  0  0  0
  -20.6945  -25.1370   -2.3145 C   0  0  1  0  0  0  0  0  0  0  0  0
  -16.9184  -22.9216   -2.8099 O   0  0  0  0  0  0  0  0  0  0  0  0
  -20.5902  -25.4758   -0.9348 O   0  0  0  0  0  0  0  0  0  0  0  0
  -15.0016  -24.2925   -3.3188 C   0  0  0  0  0  0  0  0  0  0  0  0
  -21.3963  -26.2482   -3.0711 C   0  0  0  0  0  0  0  0  0  0  0  0
  -13.9673  -24.5616   -2.2359 C   0  0  2  0  0  0  0  0  0  0  0  0
  -22.6521  -25.6247   -3.6635 C   0  0  2  0  0  0  0  0  0  0  0  0
  -11.1472  -28.5114   -0.2296 N   0  0  0  0  0  0  0  0  0  0  0  0
  -11.6323  -27.4038    0.3613 C   0  0  0  0  0  0  0  0  0  0  0  0
  -12.3472  -26.4640   -0.2843 N   0  0  0  0  0  0  0  0  0  0  0  0
  -12.6260  -26.5873   -1.6041 C   0  0  0  0  0  0  0  0  0  0  0  0
  -12.1303  -27.7723   -2.3217 C   0  0  0  0  0  0  0  0  0  0  0  0
  -11.3498  -28.7625   -1.5424 C   0  0  0  0  0  0  0  0  0  0  0  0
  -10.8571  -29.8817   -2.1258 N   0  0  0  0  0  0  0  0  0  0  0  0
  -12.5407  -27.6479   -3.5978 N   0  0  0  0  0  0  0  0  0  0  0  0
  -13.2376  -26.4865   -3.6905 C   0  0  0  0  0  0  0  0  0  0  0  0
  -13.2888  -25.8543   -2.5022 N   0  0  0  0  0  0  0  0  0  0  0  0
  -21.4945  -23.2138   -8.1824 N   0  0  0  0  0  0  0  0  0  0  0  0
  -21.3960  -22.7738   -6.9142 C   0  0  0  0  0  0  0  0  0  0  0  0
  -21.7329  -23.5093   -5.8395 N   0  0  0  0  0  0  0  0  0  0  0  0
  -22.2037  -24.7719   -5.9823 C   0  0  0  0  0  0  0  0  0  0  0  0
  -22.3399  -25.3250   -7.3386 C   0  0  0  0  0  0  0  0  0  0  0  0
  -21.9479  -24.4528   -8.4708 C   0  0  0  0  0  0  0  0  0  0  0  0
  -22.0417  -24.8848   -9.7524 N   0  0  0  0  0  0  0  0  0  0  0  0
  -22.8203  -26.5748   -7.1969 N   0  0  0  0  0  0  0  0  0  0  0  0
  -22.9782  -26.8016   -5.8674 C   0  0  0  0  0  0  0  0  0  0  0  0
  -22.6111  -25.7279   -5.1440 N   0  0  0  0  0  0  0  0  0  0  0  0
  1  3  1  1  0  0  0
  1  5  2  0  0  0  0
  1  9  1  0  0  0  0
  1 18  1  0  0  0  0
  2  4  1  6  0  0  0
  2  6  2  0  0  0  0
  2 10  1  0  0  0  0
  2 17  1  0  0  0  0
  7  9  1  0  0  0  0
  8 10  1  0  0  0  0
 11  7  1  6  0  0  0
 11 13  1  0  0  0  0
 11 15  1  0  0  0  0
 12  8  1  6  0  0  0
 12 14  1  0  0  0  0
 12 16  1  0  0  0  0
 13 21  1  0  0  0  0
 14 22  1  0  0  0  0
 15 17  1  1  0  0  0
 15 19  1  0  0  0  0
 16 18  1  1  0  0  0
 16 20  1  0  0  0  0
 19 21  1  0  0  0  0
 20 22  1  0  0  0  0
 21 32  1  6  0  0  0
 22 42  1  6  0  0  0
 23 24  2  0  0  0  0
 23 28  1  0  0  0  0
 24 25  1  0  0  0  0
 25 26  2  0  0  0  0
 26 27  1  0  0  0  0
 26 32  1  0  0  0  0
 27 28  2  0  0  0  0
 27 30  1  0  0  0  0
 28 29  1  0  0  0  0
 30 31  2  0  0  0  0
 31 32  1  0  0  0  0
 33 34  2  0  0  0  0
 33 38  1  0  0  0  0
 34 35  1  0  0  0  0
 35 36  2  0  0  0  0
 36 37  1  0  0  0  0
 36 42  1  0  0  0  0
 37 38  2  0  0  0  0
 37 40  1  0  0  0  0
 38 39  1  0  0  0  0
 40 41  2  0  0  0  0
 41 42  1  0  0  0  0
M  CHG  2   3  -1   4  -1
M  END
>  <CHROM.1>
-41.15776800,21.76806817,-18.02084095,-25.24798881,-3.14717214,0.47996990
-0.16452094,1.79340270

>  <Name>
ligand

>  <RI>
0

>  <Rbt.Current_Directory>
/home/itssahil/PROJECTS/Mol_Feturizer/New_Systems/rnas/4QLN

>  <Rbt.Executable>
rbdock ($Id: //depot/dev/client3/rdock/2013.1/src/exe/rbdock.cxx#4 $)

>  <Rbt.Library>
libRbt.so (2013.1, Build901 2013/11/27)

>  <Rbt.Parameter_File>
/export/apps/rDock/src/rDock_2013.1_src/data/scripts/dock_solv.prm

>  <Rbt.Receptor>
prm/blind_docking_100.prm

>  <SCORE>
-9.90197

>  <SCORE.INTER>
-12.6782

>  <SCORE.INTER.CONST>
1

>  <SCORE.INTER.POLAR>
0

>  <SCORE.INTER.ROT>
2

>  <SCORE.INTER.SOLV>
25.373

>  <SCORE.INTER.VDW>
-21.8431

>  <SCORE.INTER.norm>
-0.301861

>  <SCORE.INTRA>
0.909557

>  <SCORE.INTRA.DIHEDRAL>
-0.000315853

>  <SCORE.INTRA.DIHEDRAL.0>
2.39985

>  <SCORE.INTRA.POLAR>
0

>  <SCORE.INTRA.POLAR.0>
0

>  <SCORE.INTRA.REPUL>
0

>  <SCORE.INTRA.REPUL.0>
0

>  <SCORE.INTRA.SOLV>
0.144675

>  <SCORE.INTRA.SOLV.lig_0>
-110.958

>  <SCORE.INTRA.VDW>
0.837377

>  <SCORE.INTRA.VDW.0>
-2.34644

>  <SCORE.INTRA.norm>
0.0216561

>  <SCORE.RESTR>
1.86662

>  <SCORE.RESTR.CAVITY>
1.86662

>  <SCORE.RESTR.norm>
0.0444434

>  <SCORE.SYSTEM>
0

>  <SCORE.SYSTEM.CONST>
0

>  <SCORE.SYSTEM.DIHEDRAL>
0

>  <SCORE.SYSTEM.SOLV>
0

>  <SCORE.SYSTEM.norm>
0

>  <SCORE.heavy>
42

>  <SCORE.norm>
-0.235761

>  <RMSD>
28.583

$$$$
ligand
 OpenBabel11021811513D
libRbt.so/2013.1/901 2013/11/27
 42 48  0  0  0  0  0  0  0  0999 V2000
  -17.5543  -21.9865   -3.3663 P   0  0  2  0  0  0  0  0  0  0  0  0
  -18.3602  -26.1929   -0.6884 P   0  0  1  0  0  0  0  0  0  0  0  0
  -18.2704  -20.7191   -2.9614 O   0  5  0  0  0  0  0  0  0  0  0  0
  -17.6843  -26.7459   -1.9203 O   0  5  0  0  0  0  0  0  0  0  0  0
  -16.8994  -22.0805   -4.7236 O   0  0  0  0  0  0  0  0  0  0  0  0
  -18.5387  -27.0664    0.5300 O   0  0  0  0  0  0  0  0  0  0  0  0
  -19.9750  -23.0294   -3.4664 C   0  0  0  0  0  0  0  0  0  0  0  0
  -16.1972  -24.9095    0.1040 C   0  0  0  0  0  0  0  0  0  0  0  0
  -18.5829  -23.2156   -3.2166 O   0  0  0  0  0  0  0  0  0  0  0  0
  -17.5794  -24.8575   -0.2415 O   0  0  0  0  0  0  0  0  0  0  0  0
  -20.7795  -23.9876   -2.5963 C   0  0  1  0  0  0  0  0  0  0  0  0
  -15.4413  -23.8227   -0.6500 C   0  0  1  0  0  0  0  0  0  0  0  0
  -22.0688  -24.1998   -3.1778 O   0  0  0  0  0  0  0  0  0  0  0  0
  -14.0602  -24.1776   -0.7518 O   0  0  0  0  0  0  0  0  0  0  0  0
  -20.0923  -25.3379   -2.4832 C   0  0  1  0  0  0  0  0  0  0  0  0
  -15.9822  -23.6515   -2.0606 C   0  0  1  0  0  0  0  0  0  0  0  0
  -19.8057  -25.6277   -1.1184 O   0  0  0  0  0  0  0  0  0  0  0  0
  -16.4457  -22.3175   -2.2473 O   0  0  0  0  0  0  0  0  0  0  0  0
  -21.0641  -26.3622   -3.0392 C   0  0  0  0  0  0  0  0  0  0  0  0
  -14.8273  -23.9372   -3.0010 C   0  0  0  0  0  0  0  0  0  0  0  0
  -22.2981  -25.5816   -3.4666 C   0  0  2  0  0  0  0  0  0  0  0  0
  -13.6355  -24.2681   -2.1140 C   0  0  2  0  0  0  0  0  0  0  0  0
  -21.5995  -23.5734   -8.2685 N   0  0  0  0  0  0  0  0  0  0  0  0
  -21.2303  -23.0954   -7.0658 C   0  0  0  0  0  0  0  0  0  0  0  0
  -21.4793  -23.7247   -5.9026 N   0  0  0  0  0  0  0  0  0  0  0  0
  -22.1345  -24.9100   -5.8799 C   0  0  0  0  0  0  0  0  0  0  0  0
  -22.5711  -25.4988   -7.1556 C   0  0  0  0  0  0  0  0  0  0  0  0
  -22.2607  -24.7459   -8.3941 C   0  0  0  0  0  0  0  0  0  0  0  0
  -22.6264  -25.2171   -9.6106 N   0  0  0  0  0  0  0  0  0  0  0  0
  -23.1871  -26.6570   -6.8531 N   0  0  0  0  0  0  0  0  0  0  0  0
  -23.1493  -26.7983   -5.5034 C   0  0  0  0  0  0  0  0  0  0  0  0
  -22.5217  -25.7573   -4.9231 N   0  0  0  0  0  0  0  0  0  0  0  0
  -14.9564  -29.3305   -2.5607 N   0  0  0  0  0  0  0  0  0  0  0  0
  -15.7139  -28.2596   -2.2597 C   0  0  0  0  0  0  0  0  0  0  0  0
  -15.2359  -27.0048   -2.1789 N   0  0  0  0  0  0  0  0  0  0  0  0
  -13.9251  -26.7455   -2.4038 C   0  0  0  0  0  0  0  0  0  0  0  0
  -13.0317  -27.8651   -2.7389 C   0  0  0  0  0  0  0  0  0  0  0  0
  -13.6338  -29.2175   -2.8089 C   0  0  0  0  0  0  0  0  0  0  0  0
  -12.8814  -30.3039   -3.1118 N   0  0  0  0  0  0  0  0  0  0  0  0
  -11.8044  -27.3387   -2.9105 N   0  0  0  0  0  0  0  0  0  0  0  0
  -11.9032  -26.0004   -2.7030 C   0  0  0  0  0  0  0  0  0  0  0  0
  -13.1661  -25.6470   -2.4010 N   0  0  0  0  0  0  0  0  0  0  0  0
  1  3  1  1  0  0  0
  1  5  2  0  0  0  0
  1  9  1  0  0  0  0
  1 18  1  0  0  0  0
  2  4  1  6  0  0  0
  2  6  2  0  0  0  0
  2 10  1  0  0  0  0
  2 17  1  0  0  0  0
  7  9  1  0  0  0  0
  8 10  1  0  0  0  0
 11  7  1  6  0  0  0
 11 13  1  0  0  0  0
 11 15  1  0  0  0  0
 12  8  1  6  0  0  0
 12 14  1  0  0  0  0
 12 16  1  0  0  0  0
 13 21  1  0  0  0  0
 14 22  1  0  0  0  0
 15 17  1  1  0  0  0
 15 19  1  0  0  0  0
 16 18  1  1  0  0  0
 16 20  1  0  0  0  0
 19 21  1  0  0  0  0
 20 22  1  0  0  0  0
 21 32  1  6  0  0  0
 22 42  1  6  0  0  0
 23 24  2  0  0  0  0
 23 28  1  0  0  0  0
 24 25  1  0  0  0  0
 25 26  2  0  0  0  0
 26 27  1  0  0  0  0
 26 32  1  0  0  0  0
 27 28  2  0  0  0  0
 27 30  1  0  0  0  0
 28 29  1  0  0  0  0
 30 31  2  0  0  0  0
 31 32  1  0  0  0  0
 33 34  2  0  0  0  0
 33 38  1  0  0  0  0
 34 35  1  0  0  0  0
 35 36  2  0  0  0  0
 36 37  1  0  0  0  0
 36 42  1  0  0  0  0
 37 38  2  0  0  0  0
 37 40  1  0  0  0  0
 38 39  1  0  0  0  0
 40 41  2  0  0  0  0
 41 42  1  0  0  0  0
M  CHG  2   3  -1   4  -1
M  END
>  <CHROM.1>
21.35323889,65.89846947,-17.97929872,-25.15095996,-3.23634979,-3.04253654
0.50743664,-2.93773324

>  <Name>
ligand

>  <RI>
0

>  <Rbt.Current_Directory>
/home/itssahil/PROJECTS/Mol_Feturizer/New_Systems/rnas/4QLN

>  <Rbt.Executable>
rbdock ($Id: //depot/dev/client3/rdock/2013.1/src/exe/rbdock.cxx#4 $)

>  <Rbt.Library>
libRbt.so (2013.1, Build901 2013/11/27)

>  <Rbt.Parameter_File>
/export/apps/rDock/src/rDock_2013.1_src/data/scripts/dock_solv.prm

>  <Rbt.Receptor>
prm/blind_docking_100.prm

>  <SCORE>
-7.9964

>  <SCORE.INTER>
-12.648

>  <SCORE.INTER.CONST>
1

>  <SCORE.INTER.POLAR>
0

>  <SCORE.INTER.ROT>
2

>  <SCORE.INTER.SOLV>
24.4154

>  <SCORE.INTER.VDW>
-21.5038

>  <SCORE.INTER.norm>
-0.301144

>  <SCORE.INTRA>
1.71854

>  <SCORE.INTRA.DIHEDRAL>
0.000142459

>  <SCORE.INTRA.DIHEDRAL.0>
2.39985

>  <SCORE.INTRA.POLAR>
0

>  <SCORE.INTRA.POLAR.0>
0

>  <SCORE.INTRA.REPUL>
0

>  <SCORE.INTRA.REPUL.0>
0

>  <SCORE.INTRA.SOLV>
1.28839

>  <SCORE.INTRA.SOLV.lig_0>
-110.958

>  <SCORE.INTRA.VDW>
1.07427

>  <SCORE.INTRA.VDW.0>
-2.34644

>  <SCORE.INTRA.norm>
0.0409176

>  <SCORE.RESTR>
2.93311

>  <SCORE.RESTR.CAVITY>
2.93311

>  <SCORE.RESTR.norm>
0.069836

>  <SCORE.SYSTEM>
0

>  <SCORE.SYSTEM.CONST>
0

>  <SCORE.SYSTEM.DIHEDRAL>
0

>  <SCORE.SYSTEM.SOLV>
0

>  <SCORE.SYSTEM.norm>
0

>  <SCORE.heavy>
42

>  <SCORE.norm>
-0.19039

>  <RMSD>
28.589

$$$$
ligand
 OpenBabel11021811513D
libRbt.so/2013.1/901 2013/11/27
 42 48  0  0  0  0  0  0  0  0999 V2000
  -18.5586  -21.5292   -3.1369 P   0  0  2  0  0  0  0  0  0  0  0  0
  -18.8145  -26.4312   -1.9455 P   0  0  1  0  0  0  0  0  0  0  0  0
  -19.6230  -20.5965   -2.6079 O   0  5  0  0  0  0  0  0  0  0  0  0
  -17.8047  -26.4472   -3.0682 O   0  5  0  0  0  0  0  0  0  0  0  0
  -17.6561  -21.0812   -4.2615 O   0  0  0  0  0  0  0  0  0  0  0  0
  -19.0034  -27.6565   -1.0838 O   0  0  0  0  0  0  0  0  0  0  0  0
  -20.5913  -22.8982   -4.1119 C   0  0  0  0  0  0  0  0  0  0  0  0
  -17.2159  -25.0974   -0.3272 C   0  0  0  0  0  0  0  0  0  0  0  0
  -19.2686  -22.9049   -3.5778 O   0  0  0  0  0  0  0  0  0  0  0  0
  -18.4787  -25.1847   -0.9831 O   0  0  0  0  0  0  0  0  0  0  0  0
  -21.2898  -24.2047   -3.7544 C   0  0  1  0  0  0  0  0  0  0  0  0
  -16.6168  -23.7153   -0.5551 C   0  0  1  0  0  0  0  0  0  0  0  0
  -22.3557  -24.4494   -4.6761 O   0  0  0  0  0  0  0  0  0  0  0  0
  -15.1972  -23.7725   -0.3956 O   0  0  0  0  0  0  0  0  0  0  0  0
  -20.3306  -25.3806   -3.8297 C   0  0  1  0  0  0  0  0  0  0  0  0
  -16.9064  -23.2132   -1.9607 C   0  0  1  0  0  0  0  0  0  0  0  0
  -20.2457  -26.0240   -2.5618 O   0  0  0  0  0  0  0  0  0  0  0  0
  -17.6348  -21.9904   -1.9021 O   0  0  0  0  0  0  0  0  0  0  0  0
  -20.9027  -26.3361   -4.8603 C   0  0  0  0  0  0  0  0  0  0  0  0
  -15.5605  -22.9855   -2.6213 C   0  0  0  0  0  0  0  0  0  0  0  0
  -22.1852  -25.6913   -5.3645 C   0  0  2  0  0  0  0  0  0  0  0  0
  -14.5138  -23.3602   -1.5817 C   0  0  2  0  0  0  0  0  0  0  0  0
  -21.6646  -22.0998   -9.1604 N   0  0  0  0  0  0  0  0  0  0  0  0
  -21.7288  -21.9477   -7.8248 C   0  0  0  0  0  0  0  0  0  0  0  0
  -21.8650  -22.9710   -6.9615 N   0  0  0  0  0  0  0  0  0  0  0  0
  -21.9465  -24.2484   -7.4048 C   0  0  0  0  0  0  0  0  0  0  0  0
  -21.8834  -24.4972   -8.8536 C   0  0  0  0  0  0  0  0  0  0  0  0
  -21.7335  -23.3190   -9.7404 C   0  0  0  0  0  0  0  0  0  0  0  0
  -21.6668  -23.4594  -11.0863 N   0  0  0  0  0  0  0  0  0  0  0  0
  -21.9856  -25.8293   -9.0191 N   0  0  0  0  0  0  0  0  0  0  0  0
  -22.1039  -26.3854   -7.7863 C   0  0  0  0  0  0  0  0  0  0  0  0
  -22.0803  -25.4433   -6.8239 N   0  0  0  0  0  0  0  0  0  0  0  0
  -14.4014  -28.3719   -3.1446 N   0  0  0  0  0  0  0  0  0  0  0  0
  -15.4304  -27.6220   -2.7083 C   0  0  0  0  0  0  0  0  0  0  0  0
  -15.3122  -26.3347   -2.3362 N   0  0  0  0  0  0  0  0  0  0  0  0
  -14.1129  -25.7059   -2.3830 C   0  0  0  0  0  0  0  0  0  0  0  0
  -12.9388  -26.4594   -2.8496 C   0  0  0  0  0  0  0  0  0  0  0  0
  -13.1503  -27.8728   -3.2420 C   0  0  0  0  0  0  0  0  0  0  0  0
  -12.1221  -28.6381   -3.6837 N   0  0  0  0  0  0  0  0  0  0  0  0
  -11.8938  -25.6118   -2.7991 N   0  0  0  0  0  0  0  0  0  0  0  0
  -12.3578  -24.4210   -2.3401 C   0  0  0  0  0  0  0  0  0  0  0  0
  -13.6793  -24.4770   -2.0921 N   0  0  0  0  0  0  0  0  0  0  0  0
  1  3  1  1  0  0  0
  1  5  2  0  0  0  0
  1  9  1  0  0  0  0
  1 18  1  0  0  0  0
  2  4  1  6  0  0  0
  2  6  2  0  0  0  0
  2 10  1  0  0  0  0
  2 17  1  0  0  0  0
  7  9  1  0  0  0  0
  8 10  1  0  0  0  0
 11  7  1  6  0  0  0
 11 13  1  0  0  0  0
 11 15  1  0  0  0  0
 12  8  1  6  0  0  0
 12 14  1  0  0  0  0
 12 16  1  0  0  0  0
 13 21  1  0  0  0  0
 14 22  1  0  0  0  0
 15 17  1  1  0  0  0
 15 19  1  0  0  0  0
 16 18  1  1  0  0  0
 16 20  1  0  0  0  0
 19 21  1  0  0  0  0
 20 22  1  0  0  0  0
 21 32  1  6  0  0  0
 22 42  1  6  0  0  0
 23 24  2  0  0  0  0
 23 28  1  0  0  0  0
 24 25  1  0  0  0  0
 25 26  2  0  0  0  0
 26 27  1  0  0  0  0
 26 32  1  0  0  0  0
 27 28  2  0  0  0  0
 27 30  1  0  0  0  0
 28 29  1  0  0  0  0
 30 31  2  0  0  0  0
 31 32  1  0  0  0  0
 33 34  2  0  0  0  0
 33 38  1  0  0  0  0
 34 35  1  0  0  0  0
 35 36  2  0  0  0  0
 36 37  1  0  0  0  0
 36 42  1  0  0  0  0
 37 38  2  0  0  0  0
 37 40  1  0  0  0  0
 38 39  1  0  0  0  0
 40 41  2  0  0  0  0
 41 42  1  0  0  0  0
M  CHG  2   3  -1   4  -1
M  END
>  <CHROM.1>
10.00573556,55.09870719,-18.26391771,-24.60781661,-3.91099597,2.98822108
0.64848927,-2.58358622

>  <Name>
ligand

>  <RI>
0

>  <Rbt.Current_Directory>
/home/itssahil/PROJECTS/Mol_Feturizer/New_Systems/rnas/4QLN

>  <Rbt.Executable>
rbdock ($Id: //depot/dev/client3/rdock/2013.1/src/exe/rbdock.cxx#4 $)

>  <Rbt.Library>
libRbt.so (2013.1, Build901 2013/11/27)

>  <Rbt.Parameter_File>
/export/apps/rDock/src/rDock_2013.1_src/data/scripts/dock_solv.prm

>  <Rbt.Receptor>
prm/blind_docking_40.prm

>  <SCORE>
9.1271

>  <SCORE.INTER>
-0.0201924

>  <SCORE.INTER.CONST>
1

>  <SCORE.INTER.POLAR>
0

>  <SCORE.INTER.ROT>
2

>  <SCORE.INTER.SOLV>
36.7656

>  <SCORE.INTER.VDW>
-17.202

>  <SCORE.INTER.norm>
-0.000480771

>  <SCORE.INTRA>
0.442812

>  <SCORE.INTRA.DIHEDRAL>
-0.000172865

>  <SCORE.INTRA.DIHEDRAL.0>
2.39985

>  <SCORE.INTRA.POLAR>
0

>  <SCORE.INTRA.POLAR.0>
0

>  <SCORE.INTRA.REPUL>
0

>  <SCORE.INTRA.REPUL.0>
0

>  <SCORE.INTRA.SOLV>
1.2791

>  <SCORE.INTRA.SOLV.lig_0>
-110.958

>  <SCORE.INTRA.VDW>
-0.196654

>  <SCORE.INTRA.VDW.0>
-2.34644

>  <SCORE.INTRA.norm>
0.0105431

>  <SCORE.RESTR>
8.70448

>  <SCORE.RESTR.CAVITY>
8.70448

>  <SCORE.RESTR.norm>
0.20725

>  <SCORE.SYSTEM>
0

>  <SCORE.SYSTEM.CONST>
0

>  <SCORE.SYSTEM.DIHEDRAL>
0

>  <SCORE.SYSTEM.SOLV>
0

>  <SCORE.SYSTEM.norm>
0

>  <SCORE.heavy>
42

>  <SCORE.norm>
0.217312

>  <RMSD>
28.603

$$$$
ligand
 OpenBabel11021811513D
libRbt.so/2013.1/901 2013/11/27
 42 48  0  0  0  0  0  0  0  0999 V2000
  -18.0126  -21.5005   -3.3983 P   0  0  2  0  0  0  0  0  0  0  0  0
  -18.5896  -25.7824   -0.7817 P   0  0  1  0  0  0  0  0  0  0  0  0
  -18.8648  -20.3068   -3.0353 O   0  5  0  0  0  0  0  0  0  0  0  0
  -17.7930  -26.2623   -1.9714 O   0  5  0  0  0  0  0  0  0  0  0  0
  -17.2713  -21.5243   -4.7136 O   0  0  0  0  0  0  0  0  0  0  0  0
  -18.7604  -26.6775    0.4221 O   0  0  0  0  0  0  0  0  0  0  0  0
  -20.3171  -22.7592   -3.6468 C   0  0  0  0  0  0  0  0  0  0  0  0
  -16.6049  -24.3128    0.1427 C   0  0  0  0  0  0  0  0  0  0  0  0
  -18.9314  -22.8194   -3.3134 O   0  0  0  0  0  0  0  0  0  0  0  0
  -17.9627  -24.3846   -0.2859 O   0  0  0  0  0  0  0  0  0  0  0  0
  -21.0815  -23.7933   -2.8289 C   0  0  1  0  0  0  0  0  0  0  0  0
  -15.9077  -23.1559   -0.5622 C   0  0  1  0  0  0  0  0  0  0  0  0
  -22.3086  -24.1180   -3.4878 O   0  0  0  0  0  0  0  0  0  0  0  0
  -14.4963  -23.3825   -0.5807 O   0  0  0  0  0  0  0  0  0  0  0  0
  -20.2815  -25.0760   -2.6767 C   0  0  1  0  0  0  0  0  0  0  0  0
  -16.3760  -23.0245   -2.0027 C   0  0  1  0  0  0  0  0  0  0  0  0
  -20.0523  -25.3484   -1.2976 O   0  0  0  0  0  0  0  0  0  0  0  0
  -16.9476  -21.7371   -2.2148 O   0  0  0  0  0  0  0  0  0  0  0  0
  -21.1201  -26.1806   -3.2924 C   0  0  0  0  0  0  0  0  0  0  0  0
  -15.1454  -23.1966   -2.8718 C   0  0  0  0  0  0  0  0  0  0  0  0
  -22.3925  -25.5128   -3.7925 C   0  0  2  0  0  0  0  0  0  0  0  0
  -13.9838  -23.4239   -1.9148 C   0  0  2  0  0  0  0  0  0  0  0  0
  -19.9963  -25.1434   -8.4508 N   0  0  0  0  0  0  0  0  0  0  0  0
  -19.5399  -24.8649   -7.2157 C   0  0  0  0  0  0  0  0  0  0  0  0
  -20.2746  -25.0080   -6.0974 N   0  0  0  0  0  0  0  0  0  0  0  0
  -21.5521  -25.4547   -6.1572 C   0  0  0  0  0  0  0  0  0  0  0  0
  -22.1238  -25.7814   -7.4729 C   0  0  0  0  0  0  0  0  0  0  0  0
  -21.2528  -25.5971   -8.6580 C   0  0  0  0  0  0  0  0  0  0  0  0
  -21.7004  -25.8748   -9.9063 N   0  0  0  0  0  0  0  0  0  0  0  0
  -23.3856  -26.1950   -7.2513 N   0  0  0  0  0  0  0  0  0  0  0  0
  -23.6038  -26.1384   -5.9125 C   0  0  0  0  0  0  0  0  0  0  0  0
  -22.5110  -25.6975   -5.2602 N   0  0  0  0  0  0  0  0  0  0  0  0
  -14.8349  -28.4677   -3.1016 N   0  0  0  0  0  0  0  0  0  0  0  0
  -15.7077  -27.4577   -2.9293 C   0  0  0  0  0  0  0  0  0  0  0  0
  -15.3438  -26.1993   -2.6236 N   0  0  0  0  0  0  0  0  0  0  0  0
  -14.0380  -25.8725   -2.4686 C   0  0  0  0  0  0  0  0  0  0  0  0
  -13.0225  -26.9227   -2.6413 C   0  0  0  0  0  0  0  0  0  0  0  0
  -13.5028  -28.2838   -2.9776 C   0  0  0  0  0  0  0  0  0  0  0  0
  -12.6336  -29.3091   -3.1543 N   0  0  0  0  0  0  0  0  0  0  0  0
  -11.8271  -26.3381   -2.4361 N   0  0  0  0  0  0  0  0  0  0  0  0
  -12.0570  -25.0294   -2.1562 C   0  0  0  0  0  0  0  0  0  0  0  0
  -13.3737  -24.7520   -2.1754 N   0  0  0  0  0  0  0  0  0  0  0  0
  1  3  1  1  0  0  0
  1  5  2  0  0  0  0
  1  9  1  0  0  0  0
  1 18  1  0  0  0  0
  2  4  1  6  0  0  0
  2  6  2  0  0  0  0
  2 10  1  0  0  0  0
  2 17  1  0  0  0  0
  7  9  1  0  0  0  0
  8 10  1  0  0  0  0
 11  7  1  6  0  0  0
 11 13  1  0  0  0  0
 11 15  1  0  0  0  0
 12  8  1  6  0  0  0
 12 14  1  0  0  0  0
 12 16  1  0  0  0  0
 13 21  1  0  0  0  0
 14 22  1  0  0  0  0
 15 17  1  1  0  0  0
 15 19  1  0  0  0  0
 16 18  1  1  0  0  0
 16 20  1  0  0  0  0
 19 21  1  0  0  0  0
 20 22  1  0  0  0  0
 21 32  1  6  0  0  0
 22 42  1  6  0  0  0
 23 24  2  0  0  0  0
 23 28  1  0  0  0  0
 24 25  1  0  0  0  0
 25 26  2  0  0  0  0
 26 27  1  0  0  0  0
 26 32  1  0  0  0  0
 27 28  2  0  0  0  0
 27 30  1  0  0  0  0
 28 29  1  0  0  0  0
 30 31  2  0  0  0  0
 31 32  1  0  0  0  0
 33 34  2  0  0  0  0
 33 38  1  0  0  0  0
 34 35  1  0  0  0  0
 35 36  2  0  0  0  0
 36 37  1  0  0  0  0
 36 42  1  0  0  0  0
 37 38  2  0  0  0  0
 37 40  1  0  0  0  0
 38 39  1  0  0  0  0
 40 41  2  0  0  0  0
 41 42  1  0  0  0  0
M  CHG  2   3  -1   4  -1
M  END
>  <CHROM.1>
69.05395240,78.96654745,-18.02422196,-24.82404430,-3.34627035,2.84723901
0.43692868,-2.44239621

>  <Name>
ligand

>  <RI>
0

>  <Rbt.Current_Directory>
/home/itssahil/PROJECTS/Mol_Feturizer/New_Systems/rnas/4QLN

>  <Rbt.Executable>
rbdock ($Id: //depot/dev/client3/rdock/2013.1/src/exe/rbdock.cxx#4 $)

>  <Rbt.Library>
libRbt.so (2013.1, Build901 2013/11/27)

>  <Rbt.Parameter_File>
/export/apps/rDock/src/rDock_2013.1_src/data/scripts/dock_solv.prm

>  <Rbt.Receptor>
prm/blind_docking_40.prm

>  <SCORE>
18.0299

>  <SCORE.INTER>
6.80593

>  <SCORE.INTER.CONST>
1

>  <SCORE.INTER.POLAR>
0

>  <SCORE.INTER.ROT>
2

>  <SCORE.INTER.SOLV>
35.9061

>  <SCORE.INTER.VDW>
-12.3648

>  <SCORE.INTER.norm>
0.162046

>  <SCORE.INTRA>
1.22158

>  <SCORE.INTRA.DIHEDRAL>
0.000898918

>  <SCORE.INTRA.DIHEDRAL.0>
2.39985

>  <SCORE.INTRA.POLAR>
0

>  <SCORE.INTRA.POLAR.0>
0

>  <SCORE.INTRA.REPUL>
0

>  <SCORE.INTRA.REPUL.0>
0

>  <SCORE.INTRA.SOLV>
1.06124

>  <SCORE.INTRA.SOLV.lig_0>
-110.958

>  <SCORE.INTRA.VDW>
0.690511

>  <SCORE.INTRA.VDW.0>
-2.34644

>  <SCORE.INTRA.norm>
0.0290852

>  <SCORE.RESTR>
10.0024

>  <SCORE.RESTR.CAVITY>
10.0024

>  <SCORE.RESTR.norm>
0.238152

>  <SCORE.SYSTEM>
0

>  <SCORE.SYSTEM.CONST>
0

>  <SCORE.SYSTEM.DIHEDRAL>
0

>  <SCORE.SYSTEM.SOLV>
0

>  <SCORE.SYSTEM.norm>
0

>  <SCORE.heavy>
42

>  <SCORE.norm>
0.429283

>  <RMSD>
28.606

$$$$
ligand
 OpenBabel11021811513D
libRbt.so/2013.1/901 2013/11/27
 42 48  0  0  0  0  0  0  0  0999 V2000
  -18.6232  -27.5255   -3.0529 P   0  0  2  0  0  0  0  0  0  0  0  0
  -16.3902  -23.8861   -5.7516 P   0  0  1  0  0  0  0  0  0  0  0  0
  -19.2110  -28.7123   -3.7800 O   0  5  0  0  0  0  0  0  0  0  0  0
  -16.5481  -23.2113   -4.4099 O   0  5  0  0  0  0  0  0  0  0  0  0
  -18.9963  -27.2641   -1.6133 O   0  0  0  0  0  0  0  0  0  0  0  0
  -15.5100  -23.2647   -6.8092 O   0  0  0  0  0  0  0  0  0  0  0  0
  -20.1622  -26.0976   -4.6497 C   0  0  0  0  0  0  0  0  0  0  0  0
  -14.6560  -25.6455   -4.8296 C   0  0  0  0  0  0  0  0  0  0  0  0
  -18.9488  -26.2003   -3.9067 O   0  0  0  0  0  0  0  0  0  0  0  0
  -15.8886  -25.3954   -5.5010 O   0  0  0  0  0  0  0  0  0  0  0  0
  -19.9349  -25.2190   -5.8741 C   0  0  1  0  0  0  0  0  0  0  0  0
  -14.8775  -26.6639   -3.7184 C   0  0  1  0  0  0  0  0  0  0  0  0
  -21.1829  -24.6809   -6.3196 O   0  0  0  0  0  0  0  0  0  0  0  0
  -13.8535  -26.5297   -2.7299 O   0  0  0  0  0  0  0  0  0  0  0  0
  -19.0141  -24.0540   -5.5528 C   0  0  1  0  0  0  0  0  0  0  0  0
  -16.2170  -26.4491   -3.0318 C   0  0  1  0  0  0  0  0  0  0  0  0
  -17.8566  -24.1029   -6.3814 O   0  0  0  0  0  0  0  0  0  0  0  0
  -17.0192  -27.6203   -3.1490 O   0  0  0  0  0  0  0  0  0  0  0  0
  -19.8047  -22.7906   -5.8380 C   0  0  0  0  0  0  0  0  0  0  0  0
  -15.9120  -26.1716   -1.5725 C   0  0  0  0  0  0  0  0  0  0  0  0
  -21.1730  -23.2508   -6.3185 C   0  0  2  0  0  0  0  0  0  0  0  0
  -14.3968  -26.2326   -1.4412 C   0  0  2  0  0  0  0  0  0  0  0  0
  -23.0487  -23.2344   -1.4134 N   0  0  0  0  0  0  0  0  0  0  0  0
  -21.9785  -23.8652   -1.9310 C   0  0  0  0  0  0  0  0  0  0  0  0
  -21.6120  -23.7782   -3.2230 N   0  0  0  0  0  0  0  0  0  0  0  0
  -22.3225  -23.0270   -4.0981 C   0  0  0  0  0  0  0  0  0  0  0  0
  -23.5074  -22.3055   -3.6080 C   0  0  0  0  0  0  0  0  0  0  0  0
  -23.8474  -22.4515   -2.1727 C   0  0  0  0  0  0  0  0  0  0  0  0
  -24.9217  -21.8209   -1.6397 N   0  0  0  0  0  0  0  0  0  0  0  0
  -24.0204  -21.6474   -4.6644 N   0  0  0  0  0  0  0  0  0  0  0  0
  -23.2346  -21.9225   -5.7368 C   0  0  0  0  0  0  0  0  0  0  0  0
  -22.2224  -22.7446   -5.3994 N   0  0  0  0  0  0  0  0  0  0  0  0
  -12.9462  -21.3696   -2.7900 N   0  0  0  0  0  0  0  0  0  0  0  0
  -13.4027  -22.3813   -3.5512 C   0  0  0  0  0  0  0  0  0  0  0  0
  -13.7404  -23.5892   -3.0649 N   0  0  0  0  0  0  0  0  0  0  0  0
  -13.6356  -23.8587   -1.7411 C   0  0  0  0  0  0  0  0  0  0  0  0
  -13.1440  -22.8024   -0.8428 C   0  0  0  0  0  0  0  0  0  0  0  0
  -12.7927  -21.4991   -1.4546 C   0  0  0  0  0  0  0  0  0  0  0  0
  -12.3326  -20.4722   -0.6984 N   0  0  0  0  0  0  0  0  0  0  0  0
  -13.1385  -23.3256    0.3978 N   0  0  0  0  0  0  0  0  0  0  0  0
  -13.5864  -24.6039    0.3021 C   0  0  0  0  0  0  0  0  0  0  0  0
  -13.8823  -24.9215   -0.9716 N   0  0  0  0  0  0  0  0  0  0  0  0
  1  3  1  6  0  0  0
  1  5  2  0  0  0  0
  1  9  1  0  0  0  0
  1 18  1  0  0  0  0
  2  4  1  1  0  0  0
  2  6  2  0  0  0  0
  2 10  1  0  0  0  0
  2 17  1  0  0  0  0
  7  9  1  0  0  0  0
  8 10  1  0  0  0  0
 11  7  1  1  0  0  0
 11 13  1  0  0  0  0
 11 15  1  0  0  0  0
 12  8  1  6  0  0  0
 12 14  1  0  0  0  0
 12 16  1  0  0  0  0
 13 21  1  0  0  0  0
 14 22  1  0  0  0  0
 15 17  1  6  0  0  0
 15 19  1  0  0  0  0
 16 18  1  1  0  0  0
 16 20  1  0  0  0  0
 19 21  1  0  0  0  0
 20 22  1  0  0  0  0
 21 32  1  1  0  0  0
 22 42  1  6  0  0  0
 23 24  2  0  0  0  0
 23 28  1  0  0  0  0
 24 25  1  0  0  0  0
 25 26  2  0  0  0  0
 26 27  1  0  0  0  0
 26 32  1  0  0  0  0
 27 28  2  0  0  0  0
 27 30  1  0  0  0  0
 28 29  1  0  0  0  0
 30 31  2  0  0  0  0
 31 32  1  0  0  0  0
 33 34  2  0  0  0  0
 33 38  1  0  0  0  0
 34 35  1  0  0  0  0
 35 36  2  0  0  0  0
 36 37  1  0  0  0  0
 36 42  1  0  0  0  0
 37 38  2  0  0  0  0
 37 40  1  0  0  0  0
 38 39  1  0  0  0  0
 40 41  2  0  0  0  0
 41 42  1  0  0  0  0
M  CHG  2   3  -1   4  -1
M  END
>  <CHROM.1>
57.72614439,35.56890079,-17.80793913,-24.36809582,-3.54974009,3.10327942
-0.23163181,0.16304387

>  <Name>
ligand

>  <RI>
0

>  <Rbt.Current_Directory>
/home/itssahil/PROJECTS/Mol_Feturizer/New_Systems/rnas/4QLN

>  <Rbt.Executable>
rbdock ($Id: //depot/dev/client3/rdock/2013.1/src/exe/rbdock.cxx#4 $)

>  <Rbt.Library>
libRbt.so (2013.1, Build901 2013/11/27)

>  <Rbt.Parameter_File>
/export/apps/rDock/src/rDock_2013.1_src/data/scripts/dock_solv.prm

>  <Rbt.Receptor>
prm/blind_docking_40.prm

>  <SCORE>
12.8076

>  <SCORE.INTER>
5.07634

>  <SCORE.INTER.CONST>
1

>  <SCORE.INTER.POLAR>
0

>  <SCORE.INTER.ROT>
2

>  <SCORE.INTER.SOLV>
29.6271

>  <SCORE.INTER.VDW>
-11.4248

>  <SCORE.INTER.norm>
0.120865

>  <SCORE.INTRA>
-0.695174

>  <SCORE.INTRA.DIHEDRAL>
-0.000602575

>  <SCORE.INTRA.DIHEDRAL.0>
2.39985

>  <SCORE.INTRA.POLAR>
0

>  <SCORE.INTRA.POLAR.0>
0

>  <SCORE.INTRA.REPUL>
0

>  <SCORE.INTRA.REPUL.0>
0

>  <SCORE.INTRA.SOLV>
0.696071

>  <SCORE.INTRA.SOLV.lig_0>
-110.958

>  <SCORE.INTRA.VDW>
-1.04291

>  <SCORE.INTRA.VDW.0>
-2.34644

>  <SCORE.INTRA.norm>
-0.0165518

>  <SCORE.RESTR>
8.42647

>  <SCORE.RESTR.CAVITY>
8.42647

>  <SCORE.RESTR.norm>
0.20063

>  <SCORE.SYSTEM>
0

>  <SCORE.SYSTEM.CONST>
0

>  <SCORE.SYSTEM.DIHEDRAL>
0

>  <SCORE.SYSTEM.SOLV>
0

>  <SCORE.SYSTEM.norm>
0

>  <SCORE.heavy>
42

>  <SCORE.norm>
0.304944

>  <RMSD>
28.610

$$$$
ligand
 OpenBabel11021811513D
libRbt.so/2013.1/901 2013/11/27
 42 48  0  0  0  0  0  0  0  0999 V2000
  -18.6261  -27.5192   -3.0289 P   0  0  2  0  0  0  0  0  0  0  0  0
  -16.3808  -23.8982   -5.7419 P   0  0  1  0  0  0  0  0  0  0  0  0
  -19.2173  -28.7073   -3.7513 O   0  5  0  0  0  0  0  0  0  0  0  0
  -16.5371  -23.2173   -4.4031 O   0  5  0  0  0  0  0  0  0  0  0  0
  -18.9991  -27.2507   -1.5906 O   0  0  0  0  0  0  0  0  0  0  0  0
  -15.4981  -23.2839   -6.8017 O   0  0  0  0  0  0  0  0  0  0  0  0
  -20.1600  -26.0934   -4.6324 C   0  0  0  0  0  0  0  0  0  0  0  0
  -14.6524  -25.6591   -4.8118 C   0  0  0  0  0  0  0  0  0  0  0  0
  -18.9472  -26.1967   -3.8884 O   0  0  0  0  0  0  0  0  0  0  0  0
  -15.8839  -25.4080   -5.4847 O   0  0  0  0  0  0  0  0  0  0  0  0
  -19.9295  -25.2207   -5.8604 C   0  0  1  0  0  0  0  0  0  0  0  0
  -14.8775  -26.6721   -3.6964 C   0  0  1  0  0  0  0  0  0  0  0  0
  -21.1756  -24.6806   -6.3087 O   0  0  0  0  0  0  0  0  0  0  0  0
  -13.8535  -26.5370   -2.7080 O   0  0  0  0  0  0  0  0  0  0  0  0
  -19.0053  -24.0571   -5.5435 C   0  0  1  0  0  0  0  0  0  0  0  0
  -16.2166  -26.4503   -3.0113 C   0  0  1  0  0  0  0  0  0  0  0  0
  -17.8475  -24.1131   -6.3714 O   0  0  0  0  0  0  0  0  0  0  0  0
  -17.0224  -27.6195   -3.1239 O   0  0  0  0  0  0  0  0  0  0  0  0
  -19.7918  -22.7925   -5.8344 C   0  0  0  0  0  0  0  0  0  0  0  0
  -15.9114  -26.1676   -1.5530 C   0  0  0  0  0  0  0  0  0  0  0  0
  -21.1612  -23.2505   -6.3136 C   0  0  2  0  0  0  0  0  0  0  0  0
  -14.3965  -26.2327   -1.4208 C   0  0  2  0  0  0  0  0  0  0  0  0
  -23.0646  -23.2427   -1.4191 N   0  0  0  0  0  0  0  0  0  0  0  0
  -21.9994  -23.8834   -1.9349 C   0  0  0  0  0  0  0  0  0  0  0  0
  -21.6245  -23.7925   -3.2242 N   0  0  0  0  0  0  0  0  0  0  0  0
  -22.3206  -23.0268   -4.0983 C   0  0  0  0  0  0  0  0  0  0  0  0
  -23.4991  -22.2937   -3.6100 C   0  0  0  0  0  0  0  0  0  0  0  0
  -23.8492  -22.4448   -2.1777 C   0  0  0  0  0  0  0  0  0  0  0  0
  -24.9185  -21.8043   -1.6466 N   0  0  0  0  0  0  0  0  0  0  0  0
  -23.9978  -21.6224   -4.6650 N   0  0  0  0  0  0  0  0  0  0  0  0
  -23.2094  -21.9003   -5.7347 C   0  0  0  0  0  0  0  0  0  0  0  0
  -22.2095  -22.7371   -5.3971 N   0  0  0  0  0  0  0  0  0  0  0  0
  -12.9569  -21.3708   -2.7853 N   0  0  0  0  0  0  0  0  0  0  0  0
  -13.4196  -22.3832   -3.5420 C   0  0  0  0  0  0  0  0  0  0  0  0
  -13.7533  -23.5907   -3.0519 N   0  0  0  0  0  0  0  0  0  0  0  0
  -13.6377  -23.8590   -1.7288 C   0  0  0  0  0  0  0  0  0  0  0  0
  -13.1387  -22.8021   -0.8355 C   0  0  0  0  0  0  0  0  0  0  0  0
  -12.7924  -21.4993   -1.4511 C   0  0  0  0  0  0  0  0  0  0  0  0
  -12.3262  -20.4717   -0.6996 N   0  0  0  0  0  0  0  0  0  0  0  0
  -13.1230  -23.3243    0.4055 N   0  0  0  0  0  0  0  0  0  0  0  0
  -13.5718  -24.6027    0.3146 C   0  0  0  0  0  0  0  0  0  0  0  0
  -13.8781  -24.9213   -0.9565 N   0  0  0  0  0  0  0  0  0  0  0  0
  1  3  1  6  0  0  0
  1  5  2  0  0  0  0
  1  9  1  0  0  0  0
  1 18  1  0  0  0  0
  2  4  1  1  0  0  0
  2  6  2  0  0  0  0
  2 10  1  0  0  0  0
  2 17  1  0  0  0  0
  7  9  1  0  0  0  0
  8 10  1  0  0  0  0
 11  7  1  1  0  0  0
 11 13  1  0  0  0  0
 11 15  1  0  0  0  0
 12  8  1  6  0  0  0
 12 14  1  0  0  0  0
 12 16  1  0  0  0  0
 13 21  1  0  0  0  0
 14 22  1  0  0  0  0
 15 17  1  6  0  0  0
 15 19  1  0  0  0  0
 16 18  1  1  0  0  0
 16 20  1  0  0  0  0
 19 21  1  0  0  0  0
 20 22  1  0  0  0  0
 21 32  1  1  0  0  0
 22 42  1  6  0  0  0
 23 24  2  0  0  0  0
 23 28  1  0  0  0  0
 24 25  1  0  0  0  0
 25 26  2  0  0  0  0
 26 27  1  0  0  0  0
 26 32  1  0  0  0  0
 27 28  2  0  0  0  0
 27 30  1  0  0  0  0
 28 29  1  0  0  0  0
 30 31  2  0  0  0  0
 31 32  1  0  0  0  0
 33 34  2  0  0  0  0
 33 38  1  0  0  0  0
 34 35  1  0  0  0  0
 35 36  2  0  0  0  0
 36 37  1  0  0  0  0
 36 42  1  0  0  0  0
 37 38  2  0  0  0  0
 37 40  1  0  0  0  0
 38 39  1  0  0  0  0
 40 41  2  0  0  0  0
 41 42  1  0  0  0  0
M  CHG  2   3  -1   4  -1
M  END
>  <CHROM.1>
56.85241967,36.12847056,-17.80518420,-24.36867139,-3.53912587,3.09912464
-0.23212126,0.14949874

>  <Name>
ligand

>  <RI>
0

>  <Rbt.Current_Directory>
/home/itssahil/PROJECTS/Mol_Feturizer/New_Systems/rnas/4QLN

>  <Rbt.Executable>
rbdock ($Id: //depot/dev/client3/rdock/2013.1/src/exe/rbdock.cxx#4 $)

>  <Rbt.Library>
libRbt.so (2013.1, Build901 2013/11/27)

>  <Rbt.Parameter_File>
/export/apps/rDock/src/rDock_2013.1_src/data/scripts/dock_solv.prm

>  <Rbt.Receptor>
prm/blind_docking_40.prm

>  <SCORE>
12.5208

>  <SCORE.INTER>
4.74322

>  <SCORE.INTER.CONST>
1

>  <SCORE.INTER.POLAR>
0

>  <SCORE.INTER.ROT>
2

>  <SCORE.INTER.SOLV>
29.4775

>  <SCORE.INTER.VDW>
-11.597

>  <SCORE.INTER.norm>
0.112934

>  <SCORE.INTRA>
-0.699299

>  <SCORE.INTRA.DIHEDRAL>
-0.000607788

>  <SCORE.INTRA.DIHEDRAL.0>
2.39985

>  <SCORE.INTRA.POLAR>
0

>  <SCORE.INTRA.POLAR.0>
0

>  <SCORE.INTRA.REPUL>
0

>  <SCORE.INTRA.REPUL.0>
0

>  <SCORE.INTRA.SOLV>
0.720942

>  <SCORE.INTRA.SOLV.lig_0>
-110.958

>  <SCORE.INTRA.VDW>
-1.05947

>  <SCORE.INTRA.VDW.0>
-2.34644

>  <SCORE.INTRA.norm>
-0.01665

>  <SCORE.RESTR>
8.47685

>  <SCORE.RESTR.CAVITY>
8.47685

>  <SCORE.RESTR.norm>
0.20183

>  <SCORE.SYSTEM>
0

>  <SCORE.SYSTEM.CONST>
0

>  <SCORE.SYSTEM.DIHEDRAL>
0

>  <SCORE.SYSTEM.SOLV>
0

>  <SCORE.SYSTEM.norm>
0

>  <SCORE.heavy>
42

>  <SCORE.norm>
0.298114

>  <RMSD>
28.611

$$$$
ligand
 OpenBabel11021811513D
libRbt.so/2013.1/901 2013/11/27
 42 48  0  0  0  0  0  0  0  0999 V2000
  -18.1081  -21.4783   -3.3490 P   0  0  2  0  0  0  0  0  0  0  0  0
  -18.6364  -25.8341   -0.8467 P   0  0  1  0  0  0  0  0  0  0  0  0
  -18.9867  -20.3099   -2.9672 O   0  5  0  0  0  0  0  0  0  0  0  0
  -17.8167  -26.2694   -2.0379 O   0  5  0  0  0  0  0  0  0  0  0  0
  -17.3507  -21.4556   -4.6551 O   0  0  0  0  0  0  0  0  0  0  0  0
  -18.8050  -26.7621    0.3323 O   0  0  0  0  0  0  0  0  0  0  0  0
  -20.3855  -22.7726   -3.6575 C   0  0  0  0  0  0  0  0  0  0  0  0
  -16.6908  -24.3518    0.1386 C   0  0  0  0  0  0  0  0  0  0  0  0
  -19.0030  -22.8156   -3.3083 O   0  0  0  0  0  0  0  0  0  0  0  0
  -18.0418  -24.4379   -0.3086 O   0  0  0  0  0  0  0  0  0  0  0  0
  -21.1402  -23.8406   -2.8750 C   0  0  1  0  0  0  0  0  0  0  0  0
  -16.0070  -23.1651   -0.5286 C   0  0  1  0  0  0  0  0  0  0  0  0
  -22.3529  -24.1713   -3.5571 O   0  0  0  0  0  0  0  0  0  0  0  0
  -14.5914  -23.3652   -0.5351 O   0  0  0  0  0  0  0  0  0  0  0  0
  -20.3183  -25.1119   -2.7447 C   0  0  1  0  0  0  0  0  0  0  0  0
  -16.4603  -23.0063   -1.9711 C   0  0  1  0  0  0  0  0  0  0  0  0
  -20.1007  -25.4143   -1.3699 O   0  0  0  0  0  0  0  0  0  0  0  0
  -17.0532  -21.7248   -2.1584 O   0  0  0  0  0  0  0  0  0  0  0  0
  -21.1286  -26.2159   -3.3981 C   0  0  0  0  0  0  0  0  0  0  0  0
  -15.2162  -23.1340   -2.8288 C   0  0  0  0  0  0  0  0  0  0  0  0
  -22.4071  -25.5594   -3.8973 C   0  0  2  0  0  0  0  0  0  0  0  0
  -14.0622  -23.3637   -1.8632 C   0  0  2  0  0  0  0  0  0  0  0  0
  -19.9424  -25.0857   -8.5102 N   0  0  0  0  0  0  0  0  0  0  0  0
  -19.5037  -24.8371   -7.2625 C   0  0  0  0  0  0  0  0  0  0  0  0
  -20.2550  -25.0049   -6.1586 N   0  0  0  0  0  0  0  0  0  0  0  0
  -21.5321  -25.4476   -6.2474 C   0  0  0  0  0  0  0  0  0  0  0  0
  -22.0850  -25.7423   -7.5787 C   0  0  0  0  0  0  0  0  0  0  0  0
  -21.1965  -25.5320   -8.7463 C   0  0  0  0  0  0  0  0  0  0  0  0
  -21.6262  -25.7796  -10.0071 N   0  0  0  0  0  0  0  0  0  0  0  0
  -23.3506  -26.1585   -7.3852 N   0  0  0  0  0  0  0  0  0  0  0  0
  -23.5883  -26.1329   -6.0488 C   0  0  0  0  0  0  0  0  0  0  0  0
  -22.5044  -25.7094   -5.3704 N   0  0  0  0  0  0  0  0  0  0  0  0
  -14.8094  -28.4128   -3.0966 N   0  0  0  0  0  0  0  0  0  0  0  0
  -15.7036  -27.4265   -2.8988 C   0  0  0  0  0  0  0  0  0  0  0  0
  -15.3655  -26.1631   -2.5839 N   0  0  0  0  0  0  0  0  0  0  0  0
  -14.0657  -25.8064   -2.4452 C   0  0  0  0  0  0  0  0  0  0  0  0
  -13.0279  -26.8294   -2.6461 C   0  0  0  0  0  0  0  0  0  0  0  0
  -13.4803  -28.1979   -2.9910 C   0  0  0  0  0  0  0  0  0  0  0  0
  -12.5894  -29.1996   -3.1934 N   0  0  0  0  0  0  0  0  0  0  0  0
  -11.8440  -26.2182   -2.4524 N   0  0  0  0  0  0  0  0  0  0  0  0
  -12.1011  -24.9188   -2.1534 C   0  0  0  0  0  0  0  0  0  0  0  0
  -13.4242  -24.6735   -2.1490 N   0  0  0  0  0  0  0  0  0  0  0  0
  1  3  1  1  0  0  0
  1  5  2  0  0  0  0
  1  9  1  0  0  0  0
  1 18  1  0  0  0  0
  2  4  1  6  0  0  0
  2  6  2  0  0  0  0
  2 10  1  0  0  0  0
  2 17  1  0  0  0  0
  7  9  1  0  0  0  0
  8 10  1  0  0  0  0
 11  7  1  6  0  0  0
 11 13  1  0  0  0  0
 11 15  1  0  0  0  0
 12  8  1  6  0  0  0
 12 14  1  0  0  0  0
 12 16  1  0  0  0  0
 13 21  1  0  0  0  0
 14 22  1  0  0  0  0
 15 17  1  1  0  0  0
 15 19  1  0  0  0  0
 16 18  1  1  0  0  0
 16 20  1  0  0  0  0
 19 21  1  0  0  0  0
 20 22  1  0  0  0  0
 21 32  1  6  0  0  0
 22 42  1  6  0  0  0
 23 24  2  0  0  0  0
 23 28  1  0  0  0  0
 24 25  1  0  0  0  0
 25 26  2  0  0  0  0
 26 27  1  0  0  0  0
 26 32  1  0  0  0  0
 27 28  2  0  0  0  0
 27 30  1  0  0  0  0
 28 29  1  0  0  0  0
 30 31  2  0  0  0  0
 31 32  1  0  0  0  0
 33 34  2  0  0  0  0
 33 38  1  0  0  0  0
 34 35  1  0  0  0  0
 35 36  2  0  0  0  0
 36 37  1  0  0  0  0
 36 42  1  0  0  0  0
 37 38  2  0  0  0  0
 37 40  1  0  0  0  0
 38 39  1  0  0  0  0
 40 41  2  0  0  0  0
 41 42  1  0  0  0  0
M  CHG  2   3  -1   4  -1
M  END
>  <CHROM.1>
70.22804155,77.16792931,-18.05695517,-24.80814403,-3.37182043,2.82571527
0.43758825,-2.41644816

>  <Name>
ligand

>  <RI>
0

>  <Rbt.Current_Directory>
/home/itssahil/PROJECTS/Mol_Feturizer/New_Systems/rnas/4QLN

>  <Rbt.Executable>
rbdock ($Id: //depot/dev/client3/rdock/2013.1/src/exe/rbdock.cxx#4 $)

>  <Rbt.Library>
libRbt.so (2013.1, Build901 2013/11/27)

>  <Rbt.Parameter_File>
/export/apps/rDock/src/rDock_2013.1_src/data/scripts/dock_solv.prm

>  <Rbt.Receptor>
prm/blind_docking_40.prm

>  <SCORE>
19.721

>  <SCORE.INTER>
8.73294

>  <SCORE.INTER.CONST>
1

>  <SCORE.INTER.POLAR>
0

>  <SCORE.INTER.ROT>
2

>  <SCORE.INTER.SOLV>
36.8479

>  <SCORE.INTER.VDW>
-11.394

>  <SCORE.INTER.norm>
0.207927

>  <SCORE.INTRA>
1.40916

>  <SCORE.INTRA.DIHEDRAL>
0.000871521

>  <SCORE.INTRA.DIHEDRAL.0>
2.39985

>  <SCORE.INTRA.POLAR>
0

>  <SCORE.INTRA.POLAR.0>
0

>  <SCORE.INTRA.REPUL>
0

>  <SCORE.INTRA.REPUL.0>
0

>  <SCORE.INTRA.SOLV>
1.10388

>  <SCORE.INTRA.SOLV.lig_0>
-110.958

>  <SCORE.INTRA.VDW>
0.856784

>  <SCORE.INTRA.VDW.0>
-2.34644

>  <SCORE.INTRA.norm>
0.0335515

>  <SCORE.RESTR>
9.5789

>  <SCORE.RESTR.CAVITY>
9.5789

>  <SCORE.RESTR.norm>
0.228069

>  <SCORE.SYSTEM>
0

>  <SCORE.SYSTEM.CONST>
0

>  <SCORE.SYSTEM.DIHEDRAL>
0

>  <SCORE.SYSTEM.SOLV>
0

>  <SCORE.SYSTEM.norm>
0

>  <SCORE.heavy>
42

>  <SCORE.norm>
0.469548

>  <RMSD>
28.617

$$$$
ligand
 OpenBabel11021811513D
libRbt.so/2013.1/901 2013/11/27
 42 48  0  0  0  0  0  0  0  0999 V2000
  -18.2651  -37.6992  -25.2638 P   0  0  2  0  0  0  0  0  0  0  0  0
  -23.0077  -36.1441  -26.0406 P   0  0  1  0  0  0  0  0  0  0  0  0
  -17.7379  -38.8579  -26.0777 O   0  5  0  0  0  0  0  0  0  0  0  0
  -22.6739  -35.4525  -24.7404 O   0  5  0  0  0  0  0  0  0  0  0  0
  -17.5271  -37.2520  -24.0248 O   0  0  0  0  0  0  0  0  0  0  0  0
  -24.2446  -35.7470  -26.8099 O   0  0  0  0  0  0  0  0  0  0  0  0
  -20.1996  -39.3651  -24.6010 C   0  0  0  0  0  0  0  0  0  0  0  0
  -21.2596  -34.7272  -27.4153 C   0  0  0  0  0  0  0  0  0  0  0  0
  -19.7877  -38.0230  -24.8544 O   0  0  0  0  0  0  0  0  0  0  0  0
  -21.7386  -36.0113  -27.0226 O   0  0  0  0  0  0  0  0  0  0  0  0
  -21.6686  -39.5243  -24.9741 C   0  0  1  0  0  0  0  0  0  0  0  0
  -19.7538  -34.6549  -27.1953 C   0  0  1  0  0  0  0  0  0  0  0  0
  -22.2275  -40.6357  -24.2685 O   0  0  0  0  0  0  0  0  0  0  0  0
  -19.3511  -33.2899  -27.0594 O   0  0  0  0  0  0  0  0  0  0  0  0
  -22.4686  -38.2873  -24.6023 C   0  0  1  0  0  0  0  0  0  0  0  0
  -19.3454  -35.3881  -25.9276 C   0  0  1  0  0  0  0  0  0  0  0  0
  -23.0743  -37.7294  -25.7646 O   0  0  0  0  0  0  0  0  0  0  0  0
  -18.4260  -36.4301  -26.2407 O   0  0  0  0  0  0  0  0  0  0  0  0
  -23.5378  -38.7444  -23.6274 C   0  0  0  0  0  0  0  0  0  0  0  0
  -18.6812  -34.3603  -25.0320 C   0  0  0  0  0  0  0  0  0  0  0  0
  -23.3335  -40.2418  -23.4518 C   0  0  2  0  0  0  0  0  0  0  0  0
  -18.7166  -33.0475  -25.8014 C   0  0  2  0  0  0  0  0  0  0  0  0
  -21.3622  -38.4518  -18.9255 N   0  0  0  0  0  0  0  0  0  0  0  0
  -21.4795  -37.8451  -20.1211 C   0  0  0  0  0  0  0  0  0  0  0  0
  -22.0115  -38.4328  -21.2086 N   0  0  0  0  0  0  0  0  0  0  0  0
  -22.4723  -39.7055  -21.1557 C   0  0  0  0  0  0  0  0  0  0  0  0
  -22.3795  -40.4365  -19.8822 C   0  0  0  0  0  0  0  0  0  0  0  0
  -21.7808  -39.7222  -18.7297 C   0  0  0  0  0  0  0  0  0  0  0  0
  -21.6580  -40.3219  -17.5210 N   0  0  0  0  0  0  0  0  0  0  0  0
  -22.8997  -41.6585  -20.1023 N   0  0  0  0  0  0  0  0  0  0  0  0
  -23.2911  -41.7071  -21.4013 C   0  0  0  0  0  0  0  0  0  0  0  0
  -23.0367  -40.5430  -22.0294 N   0  0  0  0  0  0  0  0  0  0  0  0
  -18.8294  -28.1695  -23.8609 N   0  0  0  0  0  0  0  0  0  0  0  0
  -17.8736  -28.7999  -24.5683 C   0  0  0  0  0  0  0  0  0  0  0  0
  -17.9810  -30.0674  -25.0061 N   0  0  0  0  0  0  0  0  0  0  0  0
  -19.0926  -30.7985  -24.7497 C   0  0  0  0  0  0  0  0  0  0  0  0
  -20.1832  -30.1786  -23.9813 C   0  0  0  0  0  0  0  0  0  0  0  0
  -19.9895  -28.7789  -23.5345 C   0  0  0  0  0  0  0  0  0  0  0  0
  -20.9451  -28.1329  -22.8220 N   0  0  0  0  0  0  0  0  0  0  0  0
  -21.1517  -31.1076  -23.8717 N   0  0  0  0  0  0  0  0  0  0  0  0
  -20.7191  -32.2237  -24.5128 C   0  0  0  0  0  0  0  0  0  0  0  0
  -19.4928  -32.0398  -25.0356 N   0  0  0  0  0  0  0  0  0  0  0  0
  1  3  1  6  0  0  0
  1  5  2  0  0  0  0
  1  9  1  0  0  0  0
  1 18  1  0  0  0  0
  2  4  1  1  0  0  0
  2  6  2  0  0  0  0
  2 10  1  0  0  0  0
  2 17  1  0  0  0  0
  7  9  1  0  0  0  0
  8 10  1  0  0  0  0
 11  7  1  1  0  0  0
 11 13  1  0  0  0  0
 11 15  1  0  0  0  0
 12  8  1  1  0  0  0
 12 14  1  0  0  0  0
 12 16  1  0  0  0  0
 13 21  1  0  0  0  0
 14 22  1  0  0  0  0
 15 17  1  6  0  0  0
 15 19  1  0  0  0  0
 16 18  1  6  0  0  0
 16 20  1  0  0  0  0
 19 21  1  0  0  0  0
 20 22  1  0  0  0  0
 21 32  1  1  0  0  0
 22 42  1  1  0  0  0
 23 24  2  0  0  0  0
 23 28  1  0  0  0  0
 24 25  1  0  0  0  0
 25 26  2  0  0  0  0
 26 27  1  0  0  0  0
 26 32  1  0  0  0  0
 27 28  2  0  0  0  0
 27 30  1  0  0  0  0
 28 29  1  0  0  0  0
 30 31  2  0  0  0  0
 31 32  1  0  0  0  0
 33 34  2  0  0  0  0
 33 38  1  0  0  0  0
 34 35  1  0  0  0  0
 35 36  2  0  0  0  0
 36 37  1  0  0  0  0
 36 42  1  0  0  0  0
 37 38  2  0  0  0  0
 37 40  1  0  0  0  0
 38 39  1  0  0  0  0
 40 41  2  0  0  0  0
 41 42  1  0  0  0  0
M  CHG  2   3  -1   4  -1
M  END
>  <CHROM.1>
91.69744338,-111.67196138,-20.82894246,-36.07606868,-24.09402309,-2.80761840
1.28242985,0.88958290

>  <Name>
ligand

>  <RI>
0

>  <Rbt.Current_Directory>
/home/itssahil/PROJECTS/Mol_Feturizer/New_Systems/rnas/4QLN

>  <Rbt.Executable>
rbdock ($Id: //depot/dev/client3/rdock/2013.1/src/exe/rbdock.cxx#4 $)

>  <Rbt.Library>
libRbt.so (2013.1, Build901 2013/11/27)

>  <Rbt.Parameter_File>
/export/apps/rDock/src/rDock_2013.1_src/data/scripts/dock_solv.prm

>  <Rbt.Receptor>
prm/blind_docking_60.prm

>  <SCORE>
155.08

>  <SCORE.INTER>
148.457

>  <SCORE.INTER.CONST>
1

>  <SCORE.INTER.POLAR>
0

>  <SCORE.INTER.ROT>
2

>  <SCORE.INTER.SOLV>
39.5879

>  <SCORE.INTER.VDW>
80.8421

>  <SCORE.INTER.norm>
3.53469

>  <SCORE.INTRA>
1.33919

>  <SCORE.INTRA.DIHEDRAL>
9.26145e-05

>  <SCORE.INTRA.DIHEDRAL.0>
2.39985

>  <SCORE.INTRA.POLAR>
0

>  <SCORE.INTRA.POLAR.0>
0

>  <SCORE.INTRA.REPUL>
0

>  <SCORE.INTRA.REPUL.0>
0

>  <SCORE.INTRA.SOLV>
-0.0358395

>  <SCORE.INTRA.SOLV.lig_0>
-110.958

>  <SCORE.INTRA.VDW>
1.35706

>  <SCORE.INTRA.VDW.0>
-2.34644

>  <SCORE.INTRA.norm>
0.0318854

>  <SCORE.RESTR>
5.28385

>  <SCORE.RESTR.CAVITY>
5.28385

>  <SCORE.RESTR.norm>
0.125806

>  <SCORE.SYSTEM>
0

>  <SCORE.SYSTEM.CONST>
0

>  <SCORE.SYSTEM.DIHEDRAL>
0

>  <SCORE.SYSTEM.SOLV>
0

>  <SCORE.SYSTEM.norm>
0

>  <SCORE.heavy>
42

>  <SCORE.norm>
3.69238

>  <RMSD>
28.640

$$$$
ligand
 OpenBabel11021811513D
libRbt.so/2013.1/901 2013/11/27
 42 48  0  0  0  0  0  0  0  0999 V2000
  -19.3891  -26.2751   -0.3788 P   0  0  2  0  0  0  0  0  0  0  0  0
  -18.1805  -22.7279   -3.7657 P   0  0  1  0  0  0  0  0  0  0  0  0
  -19.2082  -25.9691    1.0897 O   0  5  0  0  0  0  0  0  0  0  0  0
  -18.3015  -23.9515   -4.6423 O   0  5  0  0  0  0  0  0  0  0  0  0
  -19.5882  -27.7017   -0.8317 O   0  0  0  0  0  0  0  0  0  0  0  0
  -18.1020  -21.3564   -4.3921 O   0  0  0  0  0  0  0  0  0  0  0  0
  -16.8416  -25.6206   -0.5763 C   0  0  0  0  0  0  0  0  0  0  0  0
  -20.7518  -22.7090   -3.1816 C   0  0  0  0  0  0  0  0  0  0  0  0
  -18.1339  -25.6626   -1.1790 O   0  0  0  0  0  0  0  0  0  0  0  0
  -19.4036  -22.7349   -2.7186 O   0  0  0  0  0  0  0  0  0  0  0  0
  -16.0685  -24.4232   -1.1158 C   0  0  1  0  0  0  0  0  0  0  0  0
  -21.5493  -23.8092   -2.4926 C   0  0  1  0  0  0  0  0  0  0  0  0
  -14.6645  -24.6448   -0.9573 O   0  0  0  0  0  0  0  0  0  0  0  0
  -22.6860  -24.1520   -3.2890 O   0  0  0  0  0  0  0  0  0  0  0  0
  -16.3420  -24.2122   -2.5953 C   0  0  1  0  0  0  0  0  0  0  0  0
  -20.7131  -25.0660   -2.3112 C   0  0  1  0  0  0  0  0  0  0  0  0
  -16.8983  -22.9186   -2.8098 O   0  0  0  0  0  0  0  0  0  0  0  0
  -20.6197  -25.3950   -0.9284 O   0  0  0  0  0  0  0  0  0  0  0  0
  -15.0030  -24.3257   -3.3000 C   0  0  0  0  0  0  0  0  0  0  0  0
  -21.4307  -26.1713   -3.0614 C   0  0  0  0  0  0  0  0  0  0  0  0
  -13.9775  -24.6032   -2.2110 C   0  0  2  0  0  0  0  0  0  0  0  0
  -22.6736  -25.5317   -3.6638 C   0  0  2  0  0  0  0  0  0  0  0  0
  -11.4792  -28.7174   -0.1109 N   0  0  0  0  0  0  0  0  0  0  0  0
  -11.9795  -27.6143    0.4756 C   0  0  0  0  0  0  0  0  0  0  0  0
  -12.6025  -26.6280   -0.1954 N   0  0  0  0  0  0  0  0  0  0  0  0
  -12.7649  -26.6959   -1.5386 C   0  0  0  0  0  0  0  0  0  0  0  0
  -12.2450  -27.8723   -2.2530 C   0  0  0  0  0  0  0  0  0  0  0  0
  -11.5705  -28.9159   -1.4449 C   0  0  0  0  0  0  0  0  0  0  0  0
  -11.0635  -30.0312   -2.0236 N   0  0  0  0  0  0  0  0  0  0  0  0
  -12.5344  -27.6897   -3.5550 N   0  0  0  0  0  0  0  0  0  0  0  0
  -13.1822  -26.5017   -3.6658 C   0  0  0  0  0  0  0  0  0  0  0  0
  -13.3199  -25.9093   -2.4640 N   0  0  0  0  0  0  0  0  0  0  0  0
  -21.5036  -23.1604   -8.2004 N   0  0  0  0  0  0  0  0  0  0  0  0
  -21.4084  -22.7094   -6.9359 C   0  0  0  0  0  0  0  0  0  0  0  0
  -21.7482  -23.4355   -5.8557 N   0  0  0  0  0  0  0  0  0  0  0  0
  -22.2189  -24.6992   -5.9887 C   0  0  0  0  0  0  0  0  0  0  0  0
  -22.3517  -25.2640   -7.3405 C   0  0  0  0  0  0  0  0  0  0  0  0
  -21.9565  -24.4018   -8.4792 C   0  0  0  0  0  0  0  0  0  0  0  0
  -22.0471  -24.8449   -9.7573 N   0  0  0  0  0  0  0  0  0  0  0  0
  -22.8327  -26.5124   -7.1893 N   0  0  0  0  0  0  0  0  0  0  0  0
  -22.9941  -26.7276   -5.8582 C   0  0  0  0  0  0  0  0  0  0  0  0
  -22.6287  -25.6477   -5.1432 N   0  0  0  0  0  0  0  0  0  0  0  0
  1  3  1  1  0  0  0
  1  5  2  0  0  0  0
  1  9  1  0  0  0  0
  1 18  1  0  0  0  0
  2  4  1  6  0  0  0
  2  6  2  0  0  0  0
  2 10  1  0  0  0  0
  2 17  1  0  0  0  0
  7  9  1  0  0  0  0
  8 10  1  0  0  0  0
 11  7  1  6  0  0  0
 11 13  1  0  0  0  0
 11 15  1  0  0  0  0
 12  8  1  6  0  0  0
 12 14  1  0  0  0  0
 12 16  1  0  0  0  0
 13 21  1  0  0  0  0
 14 22  1  0  0  0  0
 15 17  1  1  0  0  0
 15 19  1  0  0  0  0
 16 18  1  1  0  0  0
 16 20  1  0  0  0  0
 19 21  1  0  0  0  0
 20 22  1  0  0  0  0
 21 32  1  6  0  0  0
 22 42  1  6  0  0  0
 23 24  2  0  0  0  0
 23 28  1  0  0  0  0
 24 25  1  0  0  0  0
 25 26  2  0  0  0  0
 26 27  1  0  0  0  0
 26 32  1  0  0  0  0
 27 28  2  0  0  0  0
 27 30  1  0  0  0  0
 28 29  1  0  0  0  0
 30 31  2  0  0  0  0
 31 32  1  0  0  0  0
 33 34  2  0  0  0  0
 33 38  1  0  0  0  0
 34 35  1  0  0  0  0
 35 36  2  0  0  0  0
 36 37  1  0  0  0  0
 36 42  1  0  0  0  0
 37 38  2  0  0  0  0
 37 40  1  0  0  0  0
 38 39  1  0  0  0  0
 40 41  2  0  0  0  0
 41 42  1  0  0  0  0
M  CHG  2   3  -1   4  -1
M  END
>  <CHROM.1>
-35.53453676,20.81121198,-18.06259000,-25.23834130,-3.12850568,0.49783792
-0.17999346,1.80001796

>  <Name>
ligand

>  <RI>
0

>  <Rbt.Current_Directory>
/home/itssahil/PROJECTS/Mol_Feturizer/New_Systems/rnas/4QLN

>  <Rbt.Executable>
rbdock ($Id: //depot/dev/client3/rdock/2013.1/src/exe/rbdock.cxx#4 $)

>  <Rbt.Library>
libRbt.so (2013.1, Build901 2013/11/27)

>  <Rbt.Parameter_File>
/export/apps/rDock/src/rDock_2013.1_src/data/scripts/dock_solv.prm

>  <Rbt.Receptor>
prm/blind_docking_100.prm

>  <SCORE>
-9.86065

>  <SCORE.INTER>
-12.5326

>  <SCORE.INTER.CONST>
1

>  <SCORE.INTER.POLAR>
0

>  <SCORE.INTER.ROT>
2

>  <SCORE.INTER.SOLV>
24.0296

>  <SCORE.INTER.VDW>
-21.2983

>  <SCORE.INTER.norm>
-0.298395

>  <SCORE.INTRA>
0.769388

>  <SCORE.INTRA.DIHEDRAL>
-0.00026673

>  <SCORE.INTRA.DIHEDRAL.0>
2.39985

>  <SCORE.INTRA.POLAR>
0

>  <SCORE.INTRA.POLAR.0>
0

>  <SCORE.INTRA.REPUL>
0

>  <SCORE.INTRA.REPUL.0>
0

>  <SCORE.INTRA.SOLV>
0.115843

>  <SCORE.INTRA.SOLV.lig_0>
-110.958

>  <SCORE.INTRA.VDW>
0.711599

>  <SCORE.INTRA.VDW.0>
-2.34644

>  <SCORE.INTRA.norm>
0.0183188

>  <SCORE.RESTR>
1.90254

>  <SCORE.RESTR.CAVITY>
1.90254

>  <SCORE.RESTR.norm>
0.0452985

>  <SCORE.SYSTEM>
0

>  <SCORE.SYSTEM.CONST>
0

>  <SCORE.SYSTEM.DIHEDRAL>
0

>  <SCORE.SYSTEM.SOLV>
0

>  <SCORE.SYSTEM.norm>
0

>  <SCORE.heavy>
42

>  <SCORE.norm>
-0.234777

>  <RMSD>
28.642

$$$$
ligand
 OpenBabel11021811513D
libRbt.so/2013.1/901 2013/11/27
 42 48  0  0  0  0  0  0  0  0999 V2000
  -18.2722  -37.5994  -25.1607 P   0  0  2  0  0  0  0  0  0  0  0  0
  -23.0298  -36.2080  -26.1321 P   0  0  1  0  0  0  0  0  0  0  0  0
  -17.7006  -38.7922  -25.8910 O   0  5  0  0  0  0  0  0  0  0  0  0
  -22.7415  -35.4313  -24.8696 O   0  5  0  0  0  0  0  0  0  0  0  0
  -17.5730  -37.0606  -23.9356 O   0  0  0  0  0  0  0  0  0  0  0  0
  -24.2575  -35.8878  -26.9506 O   0  0  0  0  0  0  0  0  0  0  0  0
  -20.1833  -39.2680  -24.4392 C   0  0  0  0  0  0  0  0  0  0  0  0
  -21.2833  -34.8353  -27.5529 C   0  0  0  0  0  0  0  0  0  0  0  0
  -19.7961  -37.9343  -24.7650 O   0  0  0  0  0  0  0  0  0  0  0  0
  -21.7420  -36.1044  -27.0930 O   0  0  0  0  0  0  0  0  0  0  0  0
  -21.6394  -39.4847  -24.8333 C   0  0  1  0  0  0  0  0  0  0  0  0
  -19.7849  -34.7138  -27.3055 C   0  0  1  0  0  0  0  0  0  0  0  0
  -22.1890  -40.5645  -24.0734 O   0  0  0  0  0  0  0  0  0  0  0  0
  -19.4164  -33.3339  -27.2444 O   0  0  0  0  0  0  0  0  0  0  0  0
  -22.4754  -38.2470  -24.5548 C   0  0  1  0  0  0  0  0  0  0  0  0
  -19.3891  -35.3592  -25.9870 C   0  0  1  0  0  0  0  0  0  0  0  0
  -23.0668  -37.7750  -25.7616 O   0  0  0  0  0  0  0  0  0  0  0  0
  -18.4394  -36.3958  -26.2163 O   0  0  0  0  0  0  0  0  0  0  0  0
  -23.5560  -38.6698  -23.5770 C   0  0  0  0  0  0  0  0  0  0  0  0
  -18.7689  -34.2635  -25.1416 C   0  0  0  0  0  0  0  0  0  0  0  0
  -23.3220  -40.1486  -23.3062 C   0  0  2  0  0  0  0  0  0  0  0  0
  -18.8164  -33.0008  -25.9901 C   0  0  2  0  0  0  0  0  0  0  0  0
  -21.1839  -38.1763  -18.9339 N   0  0  0  0  0  0  0  0  0  0  0  0
  -21.2474  -37.6633  -20.1765 C   0  0  0  0  0  0  0  0  0  0  0  0
  -21.8337  -38.2882  -21.2142 N   0  0  0  0  0  0  0  0  0  0  0  0
  -22.4098  -39.5042  -21.0580 C   0  0  0  0  0  0  0  0  0  0  0  0
  -22.3820  -40.1318  -19.7276 C   0  0  0  0  0  0  0  0  0  0  0  0
  -21.7173  -39.3820  -18.6353 C   0  0  0  0  0  0  0  0  0  0  0  0
  -21.6477  -39.8876  -17.3802 N   0  0  0  0  0  0  0  0  0  0  0  0
  -23.0132  -41.3148  -19.8479 N   0  0  0  0  0  0  0  0  0  0  0  0
  -23.4103  -41.4353  -21.1406 C   0  0  0  0  0  0  0  0  0  0  0  0
  -23.0510  -40.3560  -21.8620 N   0  0  0  0  0  0  0  0  0  0  0  0
  -18.7939  -28.5109  -23.2675 N   0  0  0  0  0  0  0  0  0  0  0  0
  -17.7707  -29.2232  -23.7745 C   0  0  0  0  0  0  0  0  0  0  0  0
  -17.9256  -30.3707  -24.4593 N   0  0  0  0  0  0  0  0  0  0  0  0
  -19.1592  -30.8853  -24.6816 C   0  0  0  0  0  0  0  0  0  0  0  0
  -20.3295  -30.1636  -24.1587 C   0  0  0  0  0  0  0  0  0  0  0  0
  -20.0766  -28.9069  -23.4150 C   0  0  0  0  0  0  0  0  0  0  0  0
  -21.0988  -28.1801  -22.9003 N   0  0  0  0  0  0  0  0  0  0  0  0
  -21.4127  -30.8796  -24.5151 N   0  0  0  0  0  0  0  0  0  0  0  0
  -20.9744  -31.9640  -25.2049 C   0  0  0  0  0  0  0  0  0  0  0  0
  -19.6324  -31.9676  -25.3040 N   0  0  0  0  0  0  0  0  0  0  0  0
  1  3  1  6  0  0  0
  1  5  2  0  0  0  0
  1  9  1  0  0  0  0
  1 18  1  0  0  0  0
  2  4  1  1  0  0  0
  2  6  2  0  0  0  0
  2 10  1  0  0  0  0
  2 17  1  0  0  0  0
  7  9  1  0  0  0  0
  8 10  1  0  0  0  0
 11  7  1  1  0  0  0
 11 13  1  0  0  0  0
 11 15  1  0  0  0  0
 12  8  1  1  0  0  0
 12 14  1  0  0  0  0
 12 16  1  0  0  0  0
 13 21  1  0  0  0  0
 14 22  1  0  0  0  0
 15 17  1  6  0  0  0
 15 19  1  0  0  0  0
 16 18  1  6  0  0  0
 16 20  1  0  0  0  0
 19 21  1  0  0  0  0
 20 22  1  0  0  0  0
 21 32  1  1  0  0  0
 22 42  1  1  0  0  0
 23 24  2  0  0  0  0
 23 28  1  0  0  0  0
 24 25  1  0  0  0  0
 25 26  2  0  0  0  0
 26 27  1  0  0  0  0
 26 32  1  0  0  0  0
 27 28  2  0  0  0  0
 27 30  1  0  0  0  0
 28 29  1  0  0  0  0
 30 31  2  0  0  0  0
 31 32  1  0  0  0  0
 33 34  2  0  0  0  0
 33 38  1  0  0  0  0
 34 35  1  0  0  0  0
 35 36  2  0  0  0  0
 36 37  1  0  0  0  0
 36 42  1  0  0  0  0
 37 38  2  0  0  0  0
 37 40  1  0  0  0  0
 38 39  1  0  0  0  0
 40 41  2  0  0  0  0
 41 42  1  0  0  0  0
M  CHG  2   3  -1   4  -1
M  END
>  <CHROM.1>
84.84067713,-136.00542078,-20.84873750,-36.02191803,-24.06430820,-3.08009296
1.29961150,1.15280166

>  <Name>
ligand

>  <RI>
0

>  <Rbt.Current_Directory>
/home/itssahil/PROJECTS/Mol_Feturizer/New_Systems/rnas/4QLN

>  <Rbt.Executable>
rbdock ($Id: //depot/dev/client3/rdock/2013.1/src/exe/rbdock.cxx#4 $)

>  <Rbt.Library>
libRbt.so (2013.1, Build901 2013/11/27)

>  <Rbt.Parameter_File>
/export/apps/rDock/src/rDock_2013.1_src/data/scripts/dock_solv.prm

>  <Rbt.Receptor>
prm/blind_docking_60.prm

>  <SCORE>
147.512

>  <SCORE.INTER>
141.58

>  <SCORE.INTER.CONST>
1

>  <SCORE.INTER.POLAR>
0

>  <SCORE.INTER.ROT>
2

>  <SCORE.INTER.SOLV>
40.2524

>  <SCORE.INTER.VDW>
76.0356

>  <SCORE.INTER.norm>
3.37094

>  <SCORE.INTRA>
0.674974

>  <SCORE.INTRA.DIHEDRAL>
0.000961208

>  <SCORE.INTRA.DIHEDRAL.0>
2.39985

>  <SCORE.INTRA.POLAR>
0

>  <SCORE.INTRA.POLAR.0>
0

>  <SCORE.INTRA.REPUL>
0

>  <SCORE.INTRA.REPUL.0>
0

>  <SCORE.INTRA.SOLV>
-0.0583895

>  <SCORE.INTRA.SOLV.lig_0>
-110.958

>  <SCORE.INTRA.VDW>
0.703689

>  <SCORE.INTRA.VDW.0>
-2.34644

>  <SCORE.INTRA.norm>
0.0160708

>  <SCORE.RESTR>
5.25713

>  <SCORE.RESTR.CAVITY>
5.25713

>  <SCORE.RESTR.norm>
0.12517

>  <SCORE.SYSTEM>
0

>  <SCORE.SYSTEM.CONST>
0

>  <SCORE.SYSTEM.DIHEDRAL>
0

>  <SCORE.SYSTEM.SOLV>
0

>  <SCORE.SYSTEM.norm>
0

>  <SCORE.heavy>
42

>  <SCORE.norm>
3.51218

>  <RMSD>
28.650

$$$$
ligand
 OpenBabel11021811513D
libRbt.so/2013.1/901 2013/11/27
 42 48  0  0  0  0  0  0  0  0999 V2000
  -18.2774  -37.5815  -25.1699 P   0  0  2  0  0  0  0  0  0  0  0  0
  -23.0385  -36.1975  -26.1346 P   0  0  1  0  0  0  0  0  0  0  0  0
  -17.7050  -38.7734  -25.9010 O   0  5  0  0  0  0  0  0  0  0  0  0
  -22.7496  -35.4204  -24.8725 O   0  5  0  0  0  0  0  0  0  0  0  0
  -17.5773  -37.0417  -23.9458 O   0  0  0  0  0  0  0  0  0  0  0  0
  -24.2678  -35.8792  -26.9514 O   0  0  0  0  0  0  0  0  0  0  0  0
  -20.1849  -39.2531  -24.4457 C   0  0  0  0  0  0  0  0  0  0  0  0
  -21.2961  -34.8220  -27.5578 C   0  0  0  0  0  0  0  0  0  0  0  0
  -19.8002  -37.9187  -24.7721 O   0  0  0  0  0  0  0  0  0  0  0  0
  -21.7521  -36.0919  -27.0973 O   0  0  0  0  0  0  0  0  0  0  0  0
  -21.6412  -39.4720  -24.8379 C   0  0  1  0  0  0  0  0  0  0  0  0
  -19.7975  -34.6982  -27.3125 C   0  0  1  0  0  0  0  0  0  0  0  0
  -22.1881  -40.5527  -24.0772 O   0  0  0  0  0  0  0  0  0  0  0  0
  -19.4310  -33.3177  -27.2518 O   0  0  0  0  0  0  0  0  0  0  0  0
  -22.4787  -38.2356  -24.5581 C   0  0  1  0  0  0  0  0  0  0  0  0
  -19.3989  -35.3430  -25.9945 C   0  0  1  0  0  0  0  0  0  0  0  0
  -23.0726  -37.7645  -25.7641 O   0  0  0  0  0  0  0  0  0  0  0  0
  -18.4479  -36.3782  -26.2252 O   0  0  0  0  0  0  0  0  0  0  0  0
  -23.5573  -38.6601  -23.5788 C   0  0  0  0  0  0  0  0  0  0  0  0
  -18.7792  -34.2464  -25.1500 C   0  0  0  0  0  0  0  0  0  0  0  0
  -23.3206  -40.1386  -23.3084 C   0  0  2  0  0  0  0  0  0  0  0  0
  -18.8298  -32.9837  -25.9984 C   0  0  2  0  0  0  0  0  0  0  0  0
  -21.1695  -38.1682  -18.9417 N   0  0  0  0  0  0  0  0  0  0  0  0
  -21.2342  -37.6559  -20.1845 C   0  0  0  0  0  0  0  0  0  0  0  0
  -21.8240  -38.2801  -21.2206 N   0  0  0  0  0  0  0  0  0  0  0  0
  -22.4026  -39.4947  -21.0625 C   0  0  0  0  0  0  0  0  0  0  0  0
  -22.3736  -40.1215  -19.7317 C   0  0  0  0  0  0  0  0  0  0  0  0
  -21.7051  -39.3725  -18.6412 C   0  0  0  0  0  0  0  0  0  0  0  0
  -21.6342  -39.8773  -17.3859 N   0  0  0  0  0  0  0  0  0  0  0  0
  -23.0077  -41.3031  -19.8500 N   0  0  0  0  0  0  0  0  0  0  0  0
  -23.4077  -41.4236  -21.1418 C   0  0  0  0  0  0  0  0  0  0  0  0
  -23.0473  -40.3457  -21.8646 N   0  0  0  0  0  0  0  0  0  0  0  0
  -18.8232  -28.4186  -23.4038 N   0  0  0  0  0  0  0  0  0  0  0  0
  -17.8013  -29.1196  -23.9287 C   0  0  0  0  0  0  0  0  0  0  0  0
  -17.9516  -30.2897  -24.5753 N   0  0  0  0  0  0  0  0  0  0  0  0
  -19.1788  -30.8408  -24.7370 C   0  0  0  0  0  0  0  0  0  0  0  0
  -20.3474  -30.1336  -24.1908 C   0  0  0  0  0  0  0  0  0  0  0  0
  -20.0998  -28.8503  -23.4922 C   0  0  0  0  0  0  0  0  0  0  0  0
  -21.1208  -28.1346  -22.9599 N   0  0  0  0  0  0  0  0  0  0  0  0
  -21.4241  -30.8860  -24.4866 N   0  0  0  0  0  0  0  0  0  0  0  0
  -20.9836  -31.9786  -25.1620 C   0  0  0  0  0  0  0  0  0  0  0  0
  -19.6465  -31.9518  -25.3111 N   0  0  0  0  0  0  0  0  0  0  0  0
  1  3  1  6  0  0  0
  1  5  2  0  0  0  0
  1  9  1  0  0  0  0
  1 18  1  0  0  0  0
  2  4  1  1  0  0  0
  2  6  2  0  0  0  0
  2 10  1  0  0  0  0
  2 17  1  0  0  0  0
  7  9  1  0  0  0  0
  8 10  1  0  0  0  0
 11  7  1  1  0  0  0
 11 13  1  0  0  0  0
 11 15  1  0  0  0  0
 12  8  1  1  0  0  0
 12 14  1  0  0  0  0
 12 16  1  0  0  0  0
 13 21  1  0  0  0  0
 14 22  1  0  0  0  0
 15 17  1  6  0  0  0
 15 19  1  0  0  0  0
 16 18  1  6  0  0  0
 16 20  1  0  0  0  0
 19 21  1  0  0  0  0
 20 22  1  0  0  0  0
 21 32  1  1  0  0  0
 22 42  1  1  0  0  0
 23 24  2  0  0  0  0
 23 28  1  0  0  0  0
 24 25  1  0  0  0  0
 25 26  2  0  0  0  0
 26 27  1  0  0  0  0
 26 32  1  0  0  0  0
 27 28  2  0  0  0  0
 27 30  1  0  0  0  0
 28 29  1  0  0  0  0
 30 31  2  0  0  0  0
 31 32  1  0  0  0  0
 33 34  2  0  0  0  0
 33 38  1  0  0  0  0
 34 35  1  0  0  0  0
 35 36  2  0  0  0  0
 36 37  1  0  0  0  0
 36 42  1  0  0  0  0
 37 38  2  0  0  0  0
 37 40  1  0  0  0  0
 38 39  1  0  0  0  0
 40 41  2  0  0  0  0
 41 42  1  0  0  0  0
M  CHG  2   3  -1   4  -1
M  END
>  <CHROM.1>
84.61491195,-133.06862713,-20.85504851,-36.00229337,-24.08058595,-3.06357455
1.30297340,1.13301088

>  <Name>
ligand

>  <RI>
0

>  <Rbt.Current_Directory>
/home/itssahil/PROJECTS/Mol_Feturizer/New_Systems/rnas/4QLN

>  <Rbt.Executable>
rbdock ($Id: //depot/dev/client3/rdock/2013.1/src/exe/rbdock.cxx#4 $)

>  <Rbt.Library>
libRbt.so (2013.1, Build901 2013/11/27)

>  <Rbt.Parameter_File>
/export/apps/rDock/src/rDock_2013.1_src/data/scripts/dock_solv.prm

>  <Rbt.Receptor>
prm/blind_docking_60.prm

>  <SCORE>
147.365

>  <SCORE.INTER>
141.403

>  <SCORE.INTER.CONST>
1

>  <SCORE.INTER.POLAR>
0

>  <SCORE.INTER.ROT>
2

>  <SCORE.INTER.SOLV>
39.7138

>  <SCORE.INTER.VDW>
76.0971

>  <SCORE.INTER.norm>
3.36673

>  <SCORE.INTRA>
0.673663

>  <SCORE.INTRA.DIHEDRAL>
0.000876718

>  <SCORE.INTRA.DIHEDRAL.0>
2.39985

>  <SCORE.INTRA.POLAR>
0

>  <SCORE.INTRA.POLAR.0>
0

>  <SCORE.INTRA.REPUL>
0

>  <SCORE.INTRA.REPUL.0>
0

>  <SCORE.INTRA.SOLV>
-0.0505535

>  <SCORE.INTRA.SOLV.lig_0>
-110.958

>  <SCORE.INTRA.VDW>
0.698501

>  <SCORE.INTRA.VDW.0>
-2.34644

>  <SCORE.INTRA.norm>
0.0160396

>  <SCORE.RESTR>
5.28873

>  <SCORE.RESTR.CAVITY>
5.28873

>  <SCORE.RESTR.norm>
0.125922

>  <SCORE.SYSTEM>
0

>  <SCORE.SYSTEM.CONST>
0

>  <SCORE.SYSTEM.DIHEDRAL>
0

>  <SCORE.SYSTEM.SOLV>
0

>  <SCORE.SYSTEM.norm>
0

>  <SCORE.heavy>
42

>  <SCORE.norm>
3.50869

>  <RMSD>
28.661

$$$$
ligand
 OpenBabel11021811513D
libRbt.so/2013.1/901 2013/11/27
 42 48  0  0  0  0  0  0  0  0999 V2000
  -18.6442  -21.6159   -3.6422 P   0  0  2  0  0  0  0  0  0  0  0  0
  -19.3529  -26.3845   -2.1349 P   0  0  1  0  0  0  0  0  0  0  0  0
  -19.5649  -20.5418   -3.1117 O   0  5  0  0  0  0  0  0  0  0  0  0
  -18.4252  -26.5759   -3.3109 O   0  5  0  0  0  0  0  0  0  0  0  0
  -17.7727  -21.3349   -4.8429 O   0  0  0  0  0  0  0  0  0  0  0  0
  -19.6178  -27.5311   -1.1890 O   0  0  0  0  0  0  0  0  0  0  0  0
  -20.8719  -22.8004   -4.4109 C   0  0  0  0  0  0  0  0  0  0  0  0
  -17.5183  -25.1504   -0.6980 C   0  0  0  0  0  0  0  0  0  0  0  0
  -19.5261  -22.9256   -3.9548 O   0  0  0  0  0  0  0  0  0  0  0  0
  -18.8227  -25.1320   -1.2731 O   0  0  0  0  0  0  0  0  0  0  0  0
  -21.6835  -23.9986   -3.9328 C   0  0  1  0  0  0  0  0  0  0  0  0
  -16.7888  -23.8590   -1.0459 C   0  0  1  0  0  0  0  0  0  0  0  0
  -22.8268  -24.1731   -4.7742 O   0  0  0  0  0  0  0  0  0  0  0  0
  -15.3765  -24.0660   -0.9655 O   0  0  0  0  0  0  0  0  0  0  0  0
  -20.8643  -25.2769   -3.9901 C   0  0  1  0  0  0  0  0  0  0  0  0
  -17.1121  -23.4064   -2.4609 C   0  0  1  0  0  0  0  0  0  0  0  0
  -20.7682  -25.8543   -2.6915 O   0  0  0  0  0  0  0  0  0  0  0  0
  -17.6983  -22.1084   -2.4366 O   0  0  0  0  0  0  0  0  0  0  0  0
  -21.6019  -26.2181   -4.9243 C   0  0  0  0  0  0  0  0  0  0  0  0
  -15.7948  -23.3681   -3.2112 C   0  0  0  0  0  0  0  0  0  0  0  0
  -22.8366  -25.4625   -5.3927 C   0  0  2  0  0  0  0  0  0  0  0  0
  -14.7301  -23.7993   -2.2126 C   0  0  2  0  0  0  0  0  0  0  0  0
  -21.9334  -22.2263   -9.4287 N   0  0  0  0  0  0  0  0  0  0  0  0
  -21.8636  -22.0014   -8.1036 C   0  0  0  0  0  0  0  0  0  0  0  0
  -22.1260  -22.9362   -7.1718 N   0  0  0  0  0  0  0  0  0  0  0  0
  -22.4848  -24.1926   -7.5293 C   0  0  0  0  0  0  0  0  0  0  0  0
  -22.5831  -24.5173   -8.9609 C   0  0  0  0  0  0  0  0  0  0  0  0
  -22.2794  -23.4346   -9.9266 C   0  0  0  0  0  0  0  0  0  0  0  0
  -22.3454  -23.6489  -11.2628 N   0  0  0  0  0  0  0  0  0  0  0  0
  -22.9511  -25.8100   -9.0370 N   0  0  0  0  0  0  0  0  0  0  0  0
  -23.0778  -26.2732   -7.7671 C   0  0  0  0  0  0  0  0  0  0  0  0
  -22.7996  -25.3093   -6.8683 N   0  0  0  0  0  0  0  0  0  0  0  0
  -11.4988  -27.7690   -1.0408 N   0  0  0  0  0  0  0  0  0  0  0  0
  -11.9247  -26.7435   -0.2802 C   0  0  0  0  0  0  0  0  0  0  0  0
  -12.7630  -25.7865   -0.7172 N   0  0  0  0  0  0  0  0  0  0  0  0
  -13.2377  -25.8059   -1.9862 C   0  0  0  0  0  0  0  0  0  0  0  0
  -12.8179  -26.8964   -2.8799 C   0  0  0  0  0  0  0  0  0  0  0  0
  -11.8930  -27.9124   -2.3245 C   0  0  0  0  0  0  0  0  0  0  0  0
  -11.4576  -28.9503   -3.0803 N   0  0  0  0  0  0  0  0  0  0  0  0
  -13.4256  -26.6795   -4.0617 N   0  0  0  0  0  0  0  0  0  0  0  0
  -14.1683  -25.5497   -3.9358 C   0  0  0  0  0  0  0  0  0  0  0  0
  -14.0563  -25.0293   -2.6998 N   0  0  0  0  0  0  0  0  0  0  0  0
  1  3  1  1  0  0  0
  1  5  2  0  0  0  0
  1  9  1  0  0  0  0
  1 18  1  0  0  0  0
  2  4  1  6  0  0  0
  2  6  2  0  0  0  0
  2 10  1  0  0  0  0
  2 17  1  0  0  0  0
  7  9  1  0  0  0  0
  8 10  1  0  0  0  0
 11  7  1  6  0  0  0
 11 13  1  0  0  0  0
 11 15  1  0  0  0  0
 12  8  1  6  0  0  0
 12 14  1  0  0  0  0
 12 16  1  0  0  0  0
 13 21  1  0  0  0  0
 14 22  1  0  0  0  0
 15 17  1  1  0  0  0
 15 19  1  0  0  0  0
 16 18  1  1  0  0  0
 16 20  1  0  0  0  0
 19 21  1  0  0  0  0
 20 22  1  0  0  0  0
 21 32  1  6  0  0  0
 22 42  1  6  0  0  0
 23 24  2  0  0  0  0
 23 28  1  0  0  0  0
 24 25  1  0  0  0  0
 25 26  2  0  0  0  0
 26 27  1  0  0  0  0
 26 32  1  0  0  0  0
 27 28  2  0  0  0  0
 27 30  1  0  0  0  0
 28 29  1  0  0  0  0
 30 31  2  0  0  0  0
 31 32  1  0  0  0  0
 33 34  2  0  0  0  0
 33 38  1  0  0  0  0
 34 35  1  0  0  0  0
 35 36  2  0  0  0  0
 36 37  1  0  0  0  0
 36 42  1  0  0  0  0
 37 38  2  0  0  0  0
 37 40  1  0  0  0  0
 38 39  1  0  0  0  0
 40 41  2  0  0  0  0
 41 42  1  0  0  0  0
M  CHG  2   3  -1   4  -1
M  END
>  <CHROM.1>
14.89351681,-49.65093496,-18.40653446,-24.66055725,-4.03959702,2.99771085
0.59634905,-2.51254467

>  <Name>
ligand

>  <RI>
0

>  <Rbt.Current_Directory>
/home/itssahil/PROJECTS/Mol_Feturizer/New_Systems/rnas/4QLN

>  <Rbt.Executable>
rbdock ($Id: //depot/dev/client3/rdock/2013.1/src/exe/rbdock.cxx#4 $)

>  <Rbt.Library>
libRbt.so (2013.1, Build901 2013/11/27)

>  <Rbt.Parameter_File>
/export/apps/rDock/src/rDock_2013.1_src/data/scripts/dock_solv.prm

>  <Rbt.Receptor>
prm/blind_docking_40.prm

>  <SCORE>
7.35222

>  <SCORE.INTER>
-6.63681

>  <SCORE.INTER.CONST>
1

>  <SCORE.INTER.POLAR>
0

>  <SCORE.INTER.ROT>
2

>  <SCORE.INTER.SOLV>
30.2379

>  <SCORE.INTER.VDW>
-19.4372

>  <SCORE.INTER.norm>
-0.158019

>  <SCORE.INTRA>
1.36278

>  <SCORE.INTRA.DIHEDRAL>
0.000353192

>  <SCORE.INTRA.DIHEDRAL.0>
2.39985

>  <SCORE.INTRA.POLAR>
0

>  <SCORE.INTRA.POLAR.0>
0

>  <SCORE.INTRA.REPUL>
0

>  <SCORE.INTRA.REPUL.0>
0

>  <SCORE.INTRA.SOLV>
-0.0245556

>  <SCORE.INTRA.SOLV.lig_0>
-110.958

>  <SCORE.INTRA.VDW>
1.37489

>  <SCORE.INTRA.VDW.0>
-2.34644

>  <SCORE.INTRA.norm>
0.0324472

>  <SCORE.RESTR>
12.6262

>  <SCORE.RESTR.CAVITY>
12.6262

>  <SCORE.RESTR.norm>
0.300625

>  <SCORE.SYSTEM>
0

>  <SCORE.SYSTEM.CONST>
0

>  <SCORE.SYSTEM.DIHEDRAL>
0

>  <SCORE.SYSTEM.SOLV>
0

>  <SCORE.SYSTEM.norm>
0

>  <SCORE.heavy>
42

>  <SCORE.norm>
0.175053

>  <RMSD>
28.671

$$$$
ligand
 OpenBabel11021811513D
libRbt.so/2013.1/901 2013/11/27
 42 48  0  0  0  0  0  0  0  0999 V2000
  -18.6327  -21.6083   -3.6584 P   0  0  2  0  0  0  0  0  0  0  0  0
  -19.3550  -26.3676   -2.1284 P   0  0  1  0  0  0  0  0  0  0  0  0
  -19.5452  -20.5278   -3.1267 O   0  5  0  0  0  0  0  0  0  0  0  0
  -18.4352  -26.5680   -3.3092 O   0  5  0  0  0  0  0  0  0  0  0  0
  -17.7670  -21.3361   -4.8653 O   0  0  0  0  0  0  0  0  0  0  0  0
  -19.6196  -27.5093   -1.1766 O   0  0  0  0  0  0  0  0  0  0  0  0
  -20.8706  -22.7853   -4.4093 C   0  0  0  0  0  0  0  0  0  0  0  0
  -17.5061  -25.1368   -0.7072 C   0  0  0  0  0  0  0  0  0  0  0  0
  -19.5226  -22.9150   -3.9607 O   0  0  0  0  0  0  0  0  0  0  0  0
  -18.8138  -25.1143   -1.2747 O   0  0  0  0  0  0  0  0  0  0  0  0
  -21.6849  -23.9777   -3.9218 C   0  0  1  0  0  0  0  0  0  0  0  0
  -16.7726  -23.8501   -1.0644 C   0  0  1  0  0  0  0  0  0  0  0  0
  -22.8339  -24.1500   -4.7558 O   0  0  0  0  0  0  0  0  0  0  0  0
  -15.3609  -24.0635   -0.9915 O   0  0  0  0  0  0  0  0  0  0  0  0
  -20.8721  -25.2601   -3.9789 C   0  0  1  0  0  0  0  0  0  0  0  0
  -17.1022  -23.4015   -2.4793 C   0  0  1  0  0  0  0  0  0  0  0  0
  -20.7711  -25.8329   -2.6787 O   0  0  0  0  0  0  0  0  0  0  0  0
  -17.6820  -22.1006   -2.4565 O   0  0  0  0  0  0  0  0  0  0  0  0
  -21.6196  -26.2013   -4.9051 C   0  0  0  0  0  0  0  0  0  0  0  0
  -15.7891  -23.3723   -3.2374 C   0  0  0  0  0  0  0  0  0  0  0  0
  -22.8535  -25.4418   -5.3692 C   0  0  2  0  0  0  0  0  0  0  0  0
  -14.7206  -23.8047   -2.2434 C   0  0  2  0  0  0  0  0  0  0  0  0
  -21.9054  -22.2415   -9.4235 N   0  0  0  0  0  0  0  0  0  0  0  0
  -21.8198  -22.0139   -8.0999 C   0  0  0  0  0  0  0  0  0  0  0  0
  -22.0971  -22.9391   -7.1627 N   0  0  0  0  0  0  0  0  0  0  0  0
  -22.4885  -24.1877   -7.5129 C   0  0  0  0  0  0  0  0  0  0  0  0
  -22.6057  -24.5148   -8.9426 C   0  0  0  0  0  0  0  0  0  0  0  0
  -22.2840  -23.4429   -9.9144 C   0  0  0  0  0  0  0  0  0  0  0  0
  -22.3656  -23.6601  -11.2493 N   0  0  0  0  0  0  0  0  0  0  0  0
  -23.0050  -25.7986   -9.0112 N   0  0  0  0  0  0  0  0  0  0  0  0
  -23.1327  -26.2544   -7.7388 C   0  0  0  0  0  0  0  0  0  0  0  0
  -22.8246  -25.2944   -6.8456 N   0  0  0  0  0  0  0  0  0  0  0  0
  -11.5413  -27.8127   -1.0601 N   0  0  0  0  0  0  0  0  0  0  0  0
  -11.9629  -26.7858   -0.2990 C   0  0  0  0  0  0  0  0  0  0  0  0
  -12.7874  -25.8184   -0.7393 N   0  0  0  0  0  0  0  0  0  0  0  0
  -13.2512  -25.8277   -2.0124 C   0  0  0  0  0  0  0  0  0  0  0  0
  -12.8352  -26.9190   -2.9069 C   0  0  0  0  0  0  0  0  0  0  0  0
  -11.9258  -27.9468   -2.3477 C   0  0  0  0  0  0  0  0  0  0  0  0
  -11.4947  -28.9862   -3.1039 N   0  0  0  0  0  0  0  0  0  0  0  0
  -13.4303  -26.6909   -4.0929 N   0  0  0  0  0  0  0  0  0  0  0  0
  -14.1622  -25.5539   -3.9688 C   0  0  0  0  0  0  0  0  0  0  0  0
  -14.0555  -25.0397   -2.7298 N   0  0  0  0  0  0  0  0  0  0  0  0
  1  3  1  1  0  0  0
  1  5  2  0  0  0  0
  1  9  1  0  0  0  0
  1 18  1  0  0  0  0
  2  4  1  6  0  0  0
  2  6  2  0  0  0  0
  2 10  1  0  0  0  0
  2 17  1  0  0  0  0
  7  9  1  0  0  0  0
  8 10  1  0  0  0  0
 11  7  1  6  0  0  0
 11 13  1  0  0  0  0
 11 15  1  0  0  0  0
 12  8  1  6  0  0  0
 12 14  1  0  0  0  0
 12 16  1  0  0  0  0
 13 21  1  0  0  0  0
 14 22  1  0  0  0  0
 15 17  1  1  0  0  0
 15 19  1  0  0  0  0
 16 18  1  1  0  0  0
 16 20  1  0  0  0  0
 19 21  1  0  0  0  0
 20 22  1  0  0  0  0
 21 32  1  6  0  0  0
 22 42  1  6  0  0  0
 23 24  2  0  0  0  0
 23 28  1  0  0  0  0
 24 25  1  0  0  0  0
 25 26  2  0  0  0  0
 26 27  1  0  0  0  0
 26 32  1  0  0  0  0
 27 28  2  0  0  0  0
 27 30  1  0  0  0  0
 28 29  1  0  0  0  0
 30 31  2  0  0  0  0
 31 32  1  0  0  0  0
 33 34  2  0  0  0  0
 33 38  1  0  0  0  0
 34 35  1  0  0  0  0
 35 36  2  0  0  0  0
 36 37  1  0  0  0  0
 36 42  1  0  0  0  0
 37 38  2  0  0  0  0
 37 40  1  0  0  0  0
 38 39  1  0  0  0  0
 40 41  2  0  0  0  0
 41 42  1  0  0  0  0
M  CHG  2   3  -1   4  -1
M  END
>  <CHROM.1>
15.99377487,-48.64669687,-18.41067689,-24.65915062,-4.04416197,3.00736039
0.59660962,-2.52340136

>  <Name>
ligand

>  <RI>
0

>  <Rbt.Current_Directory>
/home/itssahil/PROJECTS/Mol_Feturizer/New_Systems/rnas/4QLN

>  <Rbt.Executable>
rbdock ($Id: //depot/dev/client3/rdock/2013.1/src/exe/rbdock.cxx#4 $)

>  <Rbt.Library>
libRbt.so (2013.1, Build901 2013/11/27)

>  <Rbt.Parameter_File>
/export/apps/rDock/src/rDock_2013.1_src/data/scripts/dock_solv.prm

>  <Rbt.Receptor>
prm/blind_docking_40.prm

>  <SCORE>
7.25171

>  <SCORE.INTER>
-6.71737

>  <SCORE.INTER.CONST>
1

>  <SCORE.INTER.POLAR>
0

>  <SCORE.INTER.ROT>
2

>  <SCORE.INTER.SOLV>
30.187

>  <SCORE.INTER.VDW>
-19.4739

>  <SCORE.INTER.norm>
-0.159937

>  <SCORE.INTRA>
1.32977

>  <SCORE.INTRA.DIHEDRAL>
0.000376144

>  <SCORE.INTRA.DIHEDRAL.0>
2.39985

>  <SCORE.INTRA.POLAR>
0

>  <SCORE.INTRA.POLAR.0>
0

>  <SCORE.INTRA.REPUL>
0

>  <SCORE.INTRA.REPUL.0>
0

>  <SCORE.INTRA.SOLV>
-0.0233742

>  <SCORE.INTRA.SOLV.lig_0>
-110.958

>  <SCORE.INTRA.VDW>
1.34127

>  <SCORE.INTRA.VDW.0>
-2.34644

>  <SCORE.INTRA.norm>
0.0316611

>  <SCORE.RESTR>
12.6393

>  <SCORE.RESTR.CAVITY>
12.6393

>  <SCORE.RESTR.norm>
0.300936

>  <SCORE.SYSTEM>
0

>  <SCORE.SYSTEM.CONST>
0

>  <SCORE.SYSTEM.DIHEDRAL>
0

>  <SCORE.SYSTEM.SOLV>
0

>  <SCORE.SYSTEM.norm>
0

>  <SCORE.heavy>
42

>  <SCORE.norm>
0.17266

>  <RMSD>
28.675

$$$$
ligand
 OpenBabel11021811513D
libRbt.so/2013.1/901 2013/11/27
 42 48  0  0  0  0  0  0  0  0999 V2000
  -22.3316  -32.4796  -23.1919 P   0  0  2  0  0  0  0  0  0  0  0  0
  -18.0884  -30.8135  -25.3677 P   0  0  1  0  0  0  0  0  0  0  0  0
  -22.2593  -33.0324  -21.7876 O   0  5  0  0  0  0  0  0  0  0  0  0
  -19.0195  -30.9015  -26.5533 O   0  5  0  0  0  0  0  0  0  0  0  0
  -23.5532  -32.7381  -24.0409 O   0  0  0  0  0  0  0  0  0  0  0  0
  -16.7700  -30.0891  -25.4965 O   0  0  0  0  0  0  0  0  0  0  0  0
  -20.4728  -34.2722  -23.7290 C   0  0  0  0  0  0  0  0  0  0  0  0
  -19.4618  -28.8623  -24.2451 C   0  0  0  0  0  0  0  0  0  0  0  0
  -21.0377  -32.9909  -24.0014 O   0  0  0  0  0  0  0  0  0  0  0  0
  -18.9002  -30.1682  -24.1359 O   0  0  0  0  0  0  0  0  0  0  0  0
  -18.9726  -34.2324  -23.9943 C   0  0  1  0  0  0  0  0  0  0  0  0
  -20.9200  -28.8954  -23.8050 C   0  0  1  0  0  0  0  0  0  0  0  0
  -18.4915  -35.5563  -24.2420 O   0  0  0  0  0  0  0  0  0  0  0  0
  -21.6257  -27.7988  -24.3908 O   0  0  0  0  0  0  0  0  0  0  0  0
  -18.6511  -33.3849  -25.2137 C   0  0  1  0  0  0  0  0  0  0  0  0
  -21.6023  -30.1786  -24.2514 C   0  0  1  0  0  0  0  0  0  0  0  0
  -17.7921  -32.3090  -24.8485 O   0  0  0  0  0  0  0  0  0  0  0  0
  -22.0951  -30.8891  -23.1193 O   0  0  0  0  0  0  0  0  0  0  0  0
  -17.9482  -34.2999  -26.1993 C   0  0  0  0  0  0  0  0  0  0  0  0
  -22.7539  -29.7637  -25.1466 C   0  0  0  0  0  0  0  0  0  0  0  0
  -17.8783  -35.6642  -25.5295 C   0  0  2  0  0  0  0  0  0  0  0  0
  -22.7171  -28.2431  -25.2005 C   0  0  2  0  0  0  0  0  0  0  0  0
  -21.2224  -39.7133  -25.5287 N   0  0  0  0  0  0  0  0  0  0  0  0
  -20.7388  -38.9870  -24.5040 C   0  0  0  0  0  0  0  0  0  0  0  0
  -19.8768  -37.9645  -24.6536 N   0  0  0  0  0  0  0  0  0  0  0  0
  -19.4369  -37.6001  -25.8819 C   0  0  0  0  0  0  0  0  0  0  0  0
  -19.9208  -38.3463  -27.0540 C   0  0  0  0  0  0  0  0  0  0  0  0
  -20.8680  -39.4597  -26.8083 C   0  0  0  0  0  0  0  0  0  0  0  0
  -21.3623  -40.1974  -27.8316 N   0  0  0  0  0  0  0  0  0  0  0  0
  -19.3381  -37.7884  -28.1317 N   0  0  0  0  0  0  0  0  0  0  0  0
  -18.5504  -36.7746  -27.6901 C   0  0  0  0  0  0  0  0  0  0  0  0
  -18.6094  -36.6621  -26.3492 N   0  0  0  0  0  0  0  0  0  0  0  0
  -19.2672  -26.6481  -28.8236 N   0  0  0  0  0  0  0  0  0  0  0  0
  -19.0755  -27.0003  -27.5388 C   0  0  0  0  0  0  0  0  0  0  0  0
  -20.0645  -27.3934  -26.7160 N   0  0  0  0  0  0  0  0  0  0  0  0
  -21.3459  -27.4576  -27.1519 C   0  0  0  0  0  0  0  0  0  0  0  0
  -21.6363  -27.0882  -28.5459 C   0  0  0  0  0  0  0  0  0  0  0  0
  -20.4933  -26.6659  -29.3894 C   0  0  0  0  0  0  0  0  0  0  0  0
  -20.6733  -26.3096  -30.6850 N   0  0  0  0  0  0  0  0  0  0  0  0
  -22.9636  -27.2394  -28.7145 N   0  0  0  0  0  0  0  0  0  0  0  0
  -23.4775  -27.6673  -27.5327 C   0  0  0  0  0  0  0  0  0  0  0  0
  -22.5142  -27.7971  -26.6020 N   0  0  0  0  0  0  0  0  0  0  0  0
  1  3  1  1  0  0  0
  1  5  2  0  0  0  0
  1  9  1  0  0  0  0
  1 18  1  0  0  0  0
  2  4  1  6  0  0  0
  2  6  2  0  0  0  0
  2 10  1  0  0  0  0
  2 17  1  0  0  0  0
  7  9  1  0  0  0  0
  8 10  1  0  0  0  0
 11  7  1  6  0  0  0
 11 13  1  0  0  0  0
 11 15  1  0  0  0  0
 12  8  1  6  0  0  0
 12 14  1  0  0  0  0
 12 16  1  0  0  0  0
 13 21  1  0  0  0  0
 14 22  1  0  0  0  0
 15 17  1  1  0  0  0
 15 19  1  0  0  0  0
 16 18  1  1  0  0  0
 16 20  1  0  0  0  0
 19 21  1  0  0  0  0
 20 22  1  0  0  0  0
 21 32  1  6  0  0  0
 22 42  1  6  0  0  0
 23 24  2  0  0  0  0
 23 28  1  0  0  0  0
 24 25  1  0  0  0  0
 25 26  2  0  0  0  0
 26 27  1  0  0  0  0
 26 32  1  0  0  0  0
 27 28  2  0  0  0  0
 27 30  1  0  0  0  0
 28 29  1  0  0  0  0
 30 31  2  0  0  0  0
 31 32  1  0  0  0  0
 33 34  2  0  0  0  0
 33 38  1  0  0  0  0
 34 35  1  0  0  0  0
 35 36  2  0  0  0  0
 36 37  1  0  0  0  0
 36 42  1  0  0  0  0
 37 38  2  0  0  0  0
 37 40  1  0  0  0  0
 38 39  1  0  0  0  0
 40 41  2  0  0  0  0
 41 42  1  0  0  0  0
M  CHG  2   3  -1   4  -1
M  END
>  <CHROM.1>
-18.50040336,21.47289414,-20.33326199,-32.13769975,-25.65494551,1.37703182
-0.99750180,2.86239067

>  <Name>
ligand

>  <RI>
0

>  <Rbt.Current_Directory>
/home/itssahil/PROJECTS/Mol_Feturizer/New_Systems/rnas/4QLN

>  <Rbt.Executable>
rbdock ($Id: //depot/dev/client3/rdock/2013.1/src/exe/rbdock.cxx#4 $)

>  <Rbt.Library>
libRbt.so (2013.1, Build901 2013/11/27)

>  <Rbt.Parameter_File>
/export/apps/rDock/src/rDock_2013.1_src/data/scripts/dock_solv.prm

>  <Rbt.Receptor>
prm/blind_docking_60.prm

>  <SCORE>
56.4599

>  <SCORE.INTER>
41.6574

>  <SCORE.INTER.CONST>
1

>  <SCORE.INTER.POLAR>
0

>  <SCORE.INTER.ROT>
2

>  <SCORE.INTER.SOLV>
45.5917

>  <SCORE.INTER.VDW>
7.64102

>  <SCORE.INTER.norm>
0.991842

>  <SCORE.INTRA>
0.376468

>  <SCORE.INTRA.DIHEDRAL>
-0.000313459

>  <SCORE.INTRA.DIHEDRAL.0>
2.39985

>  <SCORE.INTRA.POLAR>
0

>  <SCORE.INTRA.POLAR.0>
0

>  <SCORE.INTRA.REPUL>
0

>  <SCORE.INTRA.REPUL.0>
0

>  <SCORE.INTRA.SOLV>
0.155167

>  <SCORE.INTRA.SOLV.lig_0>
-110.958

>  <SCORE.INTRA.VDW>
0.299042

>  <SCORE.INTRA.VDW.0>
-2.34644

>  <SCORE.INTRA.norm>
0.00896353

>  <SCORE.RESTR>
14.426

>  <SCORE.RESTR.CAVITY>
14.426

>  <SCORE.RESTR.norm>
0.343477

>  <SCORE.SYSTEM>
0

>  <SCORE.SYSTEM.CONST>
0

>  <SCORE.SYSTEM.DIHEDRAL>
0

>  <SCORE.SYSTEM.SOLV>
0

>  <SCORE.SYSTEM.norm>
0

>  <SCORE.heavy>
42

>  <SCORE.norm>
1.34428

>  <RMSD>
28.675

$$$$
ligand
 OpenBabel11021811513D
libRbt.so/2013.1/901 2013/11/27
 42 48  0  0  0  0  0  0  0  0999 V2000
  -19.0930  -26.0228   -0.0563 P   0  0  2  0  0  0  0  0  0  0  0  0
  -18.5231  -22.4674   -3.5987 P   0  0  1  0  0  0  0  0  0  0  0  0
  -18.9460  -25.6318    1.3957 O   0  5  0  0  0  0  0  0  0  0  0  0
  -18.4537  -23.7291   -4.4255 O   0  5  0  0  0  0  0  0  0  0  0  0
  -19.0621  -27.4801   -0.4505 O   0  0  0  0  0  0  0  0  0  0  0  0
  -18.6777  -21.1281   -4.2783 O   0  0  0  0  0  0  0  0  0  0  0  0
  -16.6894  -24.9711   -0.3273 C   0  0  0  0  0  0  0  0  0  0  0  0
  -21.0554  -22.8434   -2.9666 C   0  0  0  0  0  0  0  0  0  0  0  0
  -17.9650  -25.2474   -0.9032 O   0  0  0  0  0  0  0  0  0  0  0  0
  -19.7153  -22.6306   -2.5288 O   0  0  0  0  0  0  0  0  0  0  0  0
  -16.1291  -23.6868   -0.9269 C   0  0  1  0  0  0  0  0  0  0  0  0
  -21.6536  -24.0296   -2.2209 C   0  0  1  0  0  0  0  0  0  0  0  0
  -14.7059  -23.6703   -0.7870 O   0  0  0  0  0  0  0  0  0  0  0  0
  -22.7290  -24.5851   -2.9817 O   0  0  0  0  0  0  0  0  0  0  0  0
  -16.4522  -23.5837   -2.4079 C   0  0  1  0  0  0  0  0  0  0  0  0
  -20.6211  -25.1251   -2.0077 C   0  0  1  0  0  0  0  0  0  0  0  0
  -17.2150  -22.4077   -2.6609 O   0  0  0  0  0  0  0  0  0  0  0  0
  -20.4577  -25.3779   -0.6154 O   0  0  0  0  0  0  0  0  0  0  0  0
  -15.1217  -23.5064   -3.1333 C   0  0  0  0  0  0  0  0  0  0  0  0
  -21.1580  -26.3622   -2.7013 C   0  0  0  0  0  0  0  0  0  0  0  0
  -14.0509  -23.5687   -2.0542 C   0  0  2  0  0  0  0  0  0  0  0  0
  -22.4961  -25.9584   -3.3038 C   0  0  2  0  0  0  0  0  0  0  0  0
  -13.8971  -28.7358   -2.9793 N   0  0  0  0  0  0  0  0  0  0  0  0
  -14.9508  -27.9122   -2.8288 C   0  0  0  0  0  0  0  0  0  0  0  0
  -14.8399  -26.5920   -2.5924 N   0  0  0  0  0  0  0  0  0  0  0  0
  -13.6240  -26.0036   -2.4910 C   0  0  0  0  0  0  0  0  0  0  0  0
  -12.4220  -26.8381   -2.6443 C   0  0  0  0  0  0  0  0  0  0  0  0
  -12.6255  -28.2834   -2.9022 C   0  0  0  0  0  0  0  0  0  0  0  0
  -11.5729  -29.1224   -3.0563 N   0  0  0  0  0  0  0  0  0  0  0  0
  -11.3643  -26.0177   -2.5008 N   0  0  0  0  0  0  0  0  0  0  0  0
  -11.8451  -24.7683   -2.2754 C   0  0  0  0  0  0  0  0  0  0  0  0
  -13.1920  -24.7596   -2.2697 N   0  0  0  0  0  0  0  0  0  0  0  0
  -20.3600  -24.3496   -7.8227 N   0  0  0  0  0  0  0  0  0  0  0  0
  -20.1397  -23.9328   -6.5621 C   0  0  0  0  0  0  0  0  0  0  0  0
  -20.7669  -24.4415   -5.4863 N   0  0  0  0  0  0  0  0  0  0  0  0
  -21.6820  -25.4318   -5.6200 C   0  0  0  0  0  0  0  0  0  0  0  0
  -21.9779  -25.9418   -6.9678 C   0  0  0  0  0  0  0  0  0  0  0  0
  -21.2455  -25.3303   -8.1018 C   0  0  0  0  0  0  0  0  0  0  0  0
  -21.4581  -25.7419   -9.3759 N   0  0  0  0  0  0  0  0  0  0  0  0
  -22.9060  -26.9057   -6.8181 N   0  0  0  0  0  0  0  0  0  0  0  0
  -23.1804  -27.0038   -5.4919 C   0  0  0  0  0  0  0  0  0  0  0  0
  -22.4517  -26.1259   -4.7783 N   0  0  0  0  0  0  0  0  0  0  0  0
  1  3  1  1  0  0  0
  1  5  2  0  0  0  0
  1  9  1  0  0  0  0
  1 18  1  0  0  0  0
  2  4  1  6  0  0  0
  2  6  2  0  0  0  0
  2 10  1  0  0  0  0
  2 17  1  0  0  0  0
  7  9  1  0  0  0  0
  8 10  1  0  0  0  0
 11  7  1  6  0  0  0
 11 13  1  0  0  0  0
 11 15  1  0  0  0  0
 12  8  1  6  0  0  0
 12 14  1  0  0  0  0
 12 16  1  0  0  0  0
 13 21  1  0  0  0  0
 14 22  1  0  0  0  0
 15 17  1  1  0  0  0
 15 19  1  0  0  0  0
 16 18  1  1  0  0  0
 16 20  1  0  0  0  0
 19 21  1  0  0  0  0
 20 22  1  0  0  0  0
 21 32  1  6  0  0  0
 22 42  1  6  0  0  0
 23 24  2  0  0  0  0
 23 28  1  0  0  0  0
 24 25  1  0  0  0  0
 25 26  2  0  0  0  0
 26 27  1  0  0  0  0
 26 32  1  0  0  0  0
 27 28  2  0  0  0  0
 27 30  1  0  0  0  0
 28 29  1  0  0  0  0
 30 31  2  0  0  0  0
 31 32  1  0  0  0  0
 33 34  2  0  0  0  0
 33 38  1  0  0  0  0
 34 35  1  0  0  0  0
 35 36  2  0  0  0  0
 36 37  1  0  0  0  0
 36 42  1  0  0  0  0
 37 38  2  0  0  0  0
 37 40  1  0  0  0  0
 38 39  1  0  0  0  0
 40 41  2  0  0  0  0
 41 42  1  0  0  0  0
M  CHG  2   3  -1   4  -1
M  END
>  <CHROM.1>
69.75861345,52.91704370,-18.11863512,-25.08908411,-3.11547844,0.33916559
-0.18353737,1.38098432

>  <Name>
ligand

>  <RI>
0

>  <Rbt.Current_Directory>
/home/itssahil/PROJECTS/Mol_Feturizer/New_Systems/rnas/4QLN

>  <Rbt.Executable>
rbdock ($Id: //depot/dev/client3/rdock/2013.1/src/exe/rbdock.cxx#4 $)

>  <Rbt.Library>
libRbt.so (2013.1, Build901 2013/11/27)

>  <Rbt.Parameter_File>
/export/apps/rDock/src/rDock_2013.1_src/data/scripts/dock_solv.prm

>  <Rbt.Receptor>
prm/blind_docking_60.prm

>  <SCORE>
-0.779635

>  <SCORE.INTER>
-13.1544

>  <SCORE.INTER.CONST>
1

>  <SCORE.INTER.POLAR>
0

>  <SCORE.INTER.ROT>
2

>  <SCORE.INTER.SOLV>
33.6809

>  <SCORE.INTER.VDW>
-24.9299

>  <SCORE.INTER.norm>
-0.313199

>  <SCORE.INTRA>
-0.0940241

>  <SCORE.INTRA.DIHEDRAL>
4.14883e-06

>  <SCORE.INTRA.DIHEDRAL.0>
2.39985

>  <SCORE.INTRA.POLAR>
0

>  <SCORE.INTRA.POLAR.0>
0

>  <SCORE.INTRA.REPUL>
0

>  <SCORE.INTRA.REPUL.0>
0

>  <SCORE.INTRA.SOLV>
1.21325

>  <SCORE.INTRA.SOLV.lig_0>
-110.958

>  <SCORE.INTRA.VDW>
-0.700649

>  <SCORE.INTRA.VDW.0>
-2.34644

>  <SCORE.INTRA.norm>
-0.00223867

>  <SCORE.RESTR>
12.4687

>  <SCORE.RESTR.CAVITY>
12.4687

>  <SCORE.RESTR.norm>
0.296875

>  <SCORE.SYSTEM>
0

>  <SCORE.SYSTEM.CONST>
0

>  <SCORE.SYSTEM.DIHEDRAL>
0

>  <SCORE.SYSTEM.SOLV>
0

>  <SCORE.SYSTEM.norm>
0

>  <SCORE.heavy>
42

>  <SCORE.norm>
-0.0185627

>  <RMSD>
28.675

$$$$
ligand
 OpenBabel11021811513D
libRbt.so/2013.1/901 2013/11/27
 42 48  0  0  0  0  0  0  0  0999 V2000
  -19.9053  -22.3864   -3.7094 P   0  0  2  0  0  0  0  0  0  0  0  0
  -18.2435  -26.2574   -6.4966 P   0  0  1  0  0  0  0  0  0  0  0  0
  -19.4885  -20.9850   -4.0906 O   0  5  0  0  0  0  0  0  0  0  0  0
  -18.7641  -26.9708   -5.2717 O   0  5  0  0  0  0  0  0  0  0  0  0
  -20.5035  -22.6501   -2.3483 O   0  0  0  0  0  0  0  0  0  0  0  0
  -17.8974  -27.0446   -7.7375 O   0  0  0  0  0  0  0  0  0  0  0  0
  -17.3145  -22.8784   -3.6589 C   0  0  0  0  0  0  0  0  0  0  0  0
  -20.6456  -25.4597   -7.2359 C   0  0  0  0  0  0  0  0  0  0  0  0
  -18.6362  -23.3582   -3.8992 O   0  0  0  0  0  0  0  0  0  0  0  0
  -19.3028  -25.1150   -6.9031 O   0  0  0  0  0  0  0  0  0  0  0  0
  -16.3338  -23.6194   -4.5600 C   0  0  1  0  0  0  0  0  0  0  0  0
  -21.6085  -24.5802   -6.4483 C   0  0  1  0  0  0  0  0  0  0  0  0
  -15.0206  -23.5578   -3.9967 O   0  0  0  0  0  0  0  0  0  0  0  0
  -22.8775  -25.2298   -6.3413 O   0  0  0  0  0  0  0  0  0  0  0  0
  -16.7122  -25.0843   -4.6989 C   0  0  1  0  0  0  0  0  0  0  0  0
  -21.0967  -24.3256   -5.0394 C   0  0  1  0  0  0  0  0  0  0  0  0
  -16.9493  -25.4001   -6.0674 O   0  0  0  0  0  0  0  0  0  0  0  0
  -20.9320  -22.9270   -4.8250 O   0  0  0  0  0  0  0  0  0  0  0  0
  -15.5325  -25.8838   -4.1777 C   0  0  0  0  0  0  0  0  0  0  0  0
  -22.1475  -24.8763   -4.0947 C   0  0  0  0  0  0  0  0  0  0  0  0
  -14.4917  -24.8623   -3.7438 C   0  0  2  0  0  0  0  0  0  0  0  0
  -23.2518  -25.4399   -4.9775 C   0  0  2  0  0  0  0  0  0  0  0  0
  -11.9984  -27.6310   -0.0430 N   0  0  0  0  0  0  0  0  0  0  0  0
  -12.0256  -27.7948   -1.3785 C   0  0  0  0  0  0  0  0  0  0  0  0
  -12.7171  -26.9994   -2.2153 N   0  0  0  0  0  0  0  0  0  0  0  0
  -13.4444  -25.9587   -1.7432 C   0  0  0  0  0  0  0  0  0  0  0  0
  -13.4648  -25.7135   -0.2926 C   0  0  0  0  0  0  0  0  0  0  0  0
  -12.6788  -26.6330    0.5640 C   0  0  0  0  0  0  0  0  0  0  0  0
  -12.6429  -26.4779    1.9095 N   0  0  0  0  0  0  0  0  0  0  0  0
  -14.2497  -24.6376   -0.0961 N   0  0  0  0  0  0  0  0  0  0  0  0
  -14.6935  -24.2291   -1.3124 C   0  0  0  0  0  0  0  0  0  0  0  0
  -14.2134  -25.0163   -2.2943 N   0  0  0  0  0  0  0  0  0  0  0  0
  -20.9692  -29.8335   -3.2288 N   0  0  0  0  0  0  0  0  0  0  0  0
  -20.4826  -28.5824   -3.3257 C   0  0  0  0  0  0  0  0  0  0  0  0
  -21.1892  -27.5401   -3.7989 N   0  0  0  0  0  0  0  0  0  0  0  0
  -22.4684  -27.7006   -4.2156 C   0  0  0  0  0  0  0  0  0  0  0  0
  -23.0721  -29.0401   -4.1408 C   0  0  0  0  0  0  0  0  0  0  0  0
  -22.2295  -30.1365   -3.6078 C   0  0  0  0  0  0  0  0  0  0  0  0
  -22.7083  -31.4006   -3.5045 N   0  0  0  0  0  0  0  0  0  0  0  0
  -24.3290  -28.9213   -4.6088 N   0  0  0  0  0  0  0  0  0  0  0  0
  -24.5135  -27.6208   -4.9533 C   0  0  0  0  0  0  0  0  0  0  0  0
  -23.4055  -26.8938   -4.7193 N   0  0  0  0  0  0  0  0  0  0  0  0
  1  3  1  6  0  0  0
  1  5  2  0  0  0  0
  1  9  1  0  0  0  0
  1 18  1  0  0  0  0
  2  4  1  1  0  0  0
  2  6  2  0  0  0  0
  2 10  1  0  0  0  0
  2 17  1  0  0  0  0
  7  9  1  0  0  0  0
  8 10  1  0  0  0  0
 11  7  1  1  0  0  0
 11 13  1  0  0  0  0
 11 15  1  0  0  0  0
 12  8  1  6  0  0  0
 12 14  1  0  0  0  0
 12 16  1  0  0  0  0
 13 21  1  0  0  0  0
 14 22  1  0  0  0  0
 15 17  1  6  0  0  0
 15 19  1  0  0  0  0
 16 18  1  1  0  0  0
 16 20  1  0  0  0  0
 19 21  1  0  0  0  0
 20 22  1  0  0  0  0
 21 32  1  1  0  0  0
 22 42  1  6  0  0  0
 23 24  2  0  0  0  0
 23 28  1  0  0  0  0
 24 25  1  0  0  0  0
 25 26  2  0  0  0  0
 26 27  1  0  0  0  0
 26 32  1  0  0  0  0
 27 28  2  0  0  0  0
 27 30  1  0  0  0  0
 28 29  1  0  0  0  0
 30 31  2  0  0  0  0
 31 32  1  0  0  0  0
 33 34  2  0  0  0  0
 33 38  1  0  0  0  0
 34 35  1  0  0  0  0
 35 36  2  0  0  0  0
 36 37  1  0  0  0  0
 36 42  1  0  0  0  0
 37 38  2  0  0  0  0
 37 40  1  0  0  0  0
 38 39  1  0  0  0  0
 40 41  2  0  0  0  0
 41 42  1  0  0  0  0
M  CHG  2   3  -1   4  -1
M  END
>  <CHROM.1>
-163.56406471,95.10199517,-18.52223294,-25.72400556,-3.89714511,-3.12652658
0.40809373,2.82934641

>  <Name>
ligand

>  <RI>
0

>  <Rbt.Current_Directory>
/home/itssahil/PROJECTS/Mol_Feturizer/New_Systems/rnas/4QLN

>  <Rbt.Executable>
rbdock ($Id: //depot/dev/client3/rdock/2013.1/src/exe/rbdock.cxx#4 $)

>  <Rbt.Library>
libRbt.so (2013.1, Build901 2013/11/27)

>  <Rbt.Parameter_File>
/export/apps/rDock/src/rDock_2013.1_src/data/scripts/dock_solv.prm

>  <Rbt.Receptor>
prm/blind_docking_60.prm

>  <SCORE>
7.81683

>  <SCORE.INTER>
-4.56436

>  <SCORE.INTER.CONST>
1

>  <SCORE.INTER.POLAR>
0

>  <SCORE.INTER.ROT>
2

>  <SCORE.INTER.SOLV>
31.6067

>  <SCORE.INTER.VDW>
-18.5118

>  <SCORE.INTER.norm>
-0.108675

>  <SCORE.INTRA>
1.29618

>  <SCORE.INTRA.DIHEDRAL>
0.00107368

>  <SCORE.INTRA.DIHEDRAL.0>
2.39985

>  <SCORE.INTRA.POLAR>
0

>  <SCORE.INTRA.POLAR.0>
0

>  <SCORE.INTRA.REPUL>
0

>  <SCORE.INTRA.REPUL.0>
0

>  <SCORE.INTRA.SOLV>
0.511095

>  <SCORE.INTRA.SOLV.lig_0>
-110.958

>  <SCORE.INTRA.VDW>
1.04009

>  <SCORE.INTRA.VDW.0>
-2.34644

>  <SCORE.INTRA.norm>
0.0308613

>  <SCORE.RESTR>
11.085

>  <SCORE.RESTR.CAVITY>
11.085

>  <SCORE.RESTR.norm>
0.263929

>  <SCORE.SYSTEM>
0

>  <SCORE.SYSTEM.CONST>
0

>  <SCORE.SYSTEM.DIHEDRAL>
0

>  <SCORE.SYSTEM.SOLV>
0

>  <SCORE.SYSTEM.norm>
0

>  <SCORE.heavy>
42

>  <SCORE.norm>
0.186115

>  <RMSD>
28.719

$$$$
ligand
 OpenBabel11021811513D
libRbt.so/2013.1/901 2013/11/27
 42 48  0  0  0  0  0  0  0  0999 V2000
  -19.9033  -22.3815   -3.7106 P   0  0  2  0  0  0  0  0  0  0  0  0
  -18.2446  -26.2563   -6.4943 P   0  0  1  0  0  0  0  0  0  0  0  0
  -19.4853  -20.9808   -4.0930 O   0  5  0  0  0  0  0  0  0  0  0  0
  -18.7658  -26.9682   -5.2688 O   0  5  0  0  0  0  0  0  0  0  0  0
  -20.5017  -22.6435   -2.3492 O   0  0  0  0  0  0  0  0  0  0  0  0
  -17.8992  -27.0450   -7.7345 O   0  0  0  0  0  0  0  0  0  0  0  0
  -17.3129  -22.8756   -3.6596 C   0  0  0  0  0  0  0  0  0  0  0  0
  -20.6461  -25.4574   -7.2343 C   0  0  0  0  0  0  0  0  0  0  0  0
  -18.6350  -23.3545   -3.8995 O   0  0  0  0  0  0  0  0  0  0  0  0
  -19.3031  -25.1135   -6.9018 O   0  0  0  0  0  0  0  0  0  0  0  0
  -16.3328  -23.6181   -4.5601 C   0  0  1  0  0  0  0  0  0  0  0  0
  -21.6083  -24.5764   -6.4474 C   0  0  1  0  0  0  0  0  0  0  0  0
  -15.0195  -23.5571   -3.9969 O   0  0  0  0  0  0  0  0  0  0  0  0
  -22.8779  -25.2248   -6.3399 O   0  0  0  0  0  0  0  0  0  0  0  0
  -16.7124  -25.0828   -4.6977 C   0  0  1  0  0  0  0  0  0  0  0  0
  -21.0963  -24.3209   -5.0388 C   0  0  1  0  0  0  0  0  0  0  0  0
  -16.9498  -25.3997   -6.0659 O   0  0  0  0  0  0  0  0  0  0  0  0
  -20.9305  -22.9223   -4.8256 O   0  0  0  0  0  0  0  0  0  0  0  0
  -15.5333  -25.8828   -4.1758 C   0  0  0  0  0  0  0  0  0  0  0  0
  -22.1474  -24.8699   -4.0936 C   0  0  0  0  0  0  0  0  0  0  0  0
  -14.4917  -24.8618   -3.7428 C   0  0  2  0  0  0  0  0  0  0  0  0
  -23.2523  -25.4335   -4.9759 C   0  0  2  0  0  0  0  0  0  0  0  0
  -11.9855  -27.6178   -0.0413 N   0  0  0  0  0  0  0  0  0  0  0  0
  -12.0110  -27.7814   -1.3769 C   0  0  0  0  0  0  0  0  0  0  0  0
  -12.7063  -26.9895   -2.2139 N   0  0  0  0  0  0  0  0  0  0  0  0
  -13.4397  -25.9530   -1.7419 C   0  0  0  0  0  0  0  0  0  0  0  0
  -13.4623  -25.7084   -0.2912 C   0  0  0  0  0  0  0  0  0  0  0  0
  -12.6719  -26.6238    0.5656 C   0  0  0  0  0  0  0  0  0  0  0  0
  -12.6376  -26.4689    1.9112 N   0  0  0  0  0  0  0  0  0  0  0  0
  -14.2533  -24.6369   -0.0949 N   0  0  0  0  0  0  0  0  0  0  0  0
  -14.6985  -24.2305   -1.3114 C   0  0  0  0  0  0  0  0  0  0  0  0
  -14.2134  -25.0147   -2.2932 N   0  0  0  0  0  0  0  0  0  0  0  0
  -20.9711  -29.8286   -3.2291 N   0  0  0  0  0  0  0  0  0  0  0  0
  -20.4832  -28.5781   -3.3278 C   0  0  0  0  0  0  0  0  0  0  0  0
  -21.1896  -27.5353   -3.8002 N   0  0  0  0  0  0  0  0  0  0  0  0
  -22.4699  -27.6946   -4.2142 C   0  0  0  0  0  0  0  0  0  0  0  0
  -23.0750  -29.0333   -4.1371 C   0  0  0  0  0  0  0  0  0  0  0  0
  -22.2325  -30.1303   -3.6051 C   0  0  0  0  0  0  0  0  0  0  0  0
  -22.7127  -31.3938   -3.5001 N   0  0  0  0  0  0  0  0  0  0  0  0
  -24.3327  -28.9133   -4.6025 N   0  0  0  0  0  0  0  0  0  0  0  0
  -24.5165  -27.6129   -4.9475 C   0  0  0  0  0  0  0  0  0  0  0  0
  -23.4071  -26.8870   -4.7164 N   0  0  0  0  0  0  0  0  0  0  0  0
  1  3  1  6  0  0  0
  1  5  2  0  0  0  0
  1  9  1  0  0  0  0
  1 18  1  0  0  0  0
  2  4  1  1  0  0  0
  2  6  2  0  0  0  0
  2 10  1  0  0  0  0
  2 17  1  0  0  0  0
  7  9  1  0  0  0  0
  8 10  1  0  0  0  0
 11  7  1  1  0  0  0
 11 13  1  0  0  0  0
 11 15  1  0  0  0  0
 12  8  1  6  0  0  0
 12 14  1  0  0  0  0
 12 16  1  0  0  0  0
 13 21  1  0  0  0  0
 14 22  1  0  0  0  0
 15 17  1  6  0  0  0
 15 19  1  0  0  0  0
 16 18  1  1  0  0  0
 16 20  1  0  0  0  0
 19 21  1  0  0  0  0
 20 22  1  0  0  0  0
 21 32  1  1  0  0  0
 22 42  1  6  0  0  0
 23 24  2  0  0  0  0
 23 28  1  0  0  0  0
 24 25  1  0  0  0  0
 25 26  2  0  0  0  0
 26 27  1  0  0  0  0
 26 32  1  0  0  0  0
 27 28  2  0  0  0  0
 27 30  1  0  0  0  0
 28 29  1  0  0  0  0
 30 31  2  0  0  0  0
 31 32  1  0  0  0  0
 33 34  2  0  0  0  0
 33 38  1  0  0  0  0
 34 35  1  0  0  0  0
 35 36  2  0  0  0  0
 36 37  1  0  0  0  0
 36 42  1  0  0  0  0
 37 38  2  0  0  0  0
 37 40  1  0  0  0  0
 38 39  1  0  0  0  0
 40 41  2  0  0  0  0
 41 42  1  0  0  0  0
M  CHG  2   3  -1   4  -1
M  END
>  <CHROM.1>
-163.19323344,94.97838874,-18.52149643,-25.71956096,-3.89594930,-3.12644517
0.40773306,2.82911758

>  <Name>
ligand

>  <RI>
0

>  <Rbt.Current_Directory>
/home/itssahil/PROJECTS/Mol_Feturizer/New_Systems/rnas/4QLN

>  <Rbt.Executable>
rbdock ($Id: //depot/dev/client3/rdock/2013.1/src/exe/rbdock.cxx#4 $)

>  <Rbt.Library>
libRbt.so (2013.1, Build901 2013/11/27)

>  <Rbt.Parameter_File>
/export/apps/rDock/src/rDock_2013.1_src/data/scripts/dock_solv.prm

>  <Rbt.Receptor>
prm/blind_docking_60.prm

>  <SCORE>
7.72767

>  <SCORE.INTER>
-4.6646

>  <SCORE.INTER.CONST>
1

>  <SCORE.INTER.POLAR>
0

>  <SCORE.INTER.ROT>
2

>  <SCORE.INTER.SOLV>
31.598

>  <SCORE.INTER.VDW>
-18.5757

>  <SCORE.INTER.norm>
-0.111062

>  <SCORE.INTRA>
1.28909

>  <SCORE.INTRA.DIHEDRAL>
0.00107822

>  <SCORE.INTRA.DIHEDRAL.0>
2.39985

>  <SCORE.INTRA.POLAR>
0

>  <SCORE.INTRA.POLAR.0>
0

>  <SCORE.INTRA.REPUL>
0

>  <SCORE.INTRA.REPUL.0>
0

>  <SCORE.INTRA.SOLV>
0.514909

>  <SCORE.INTRA.SOLV.lig_0>
-110.958

>  <SCORE.INTRA.VDW>
1.03109

>  <SCORE.INTRA.VDW.0>
-2.34644

>  <SCORE.INTRA.norm>
0.0306925

>  <SCORE.RESTR>
11.1032

>  <SCORE.RESTR.CAVITY>
11.1032

>  <SCORE.RESTR.norm>
0.264361

>  <SCORE.SYSTEM>
0

>  <SCORE.SYSTEM.CONST>
0

>  <SCORE.SYSTEM.DIHEDRAL>
0

>  <SCORE.SYSTEM.SOLV>
0

>  <SCORE.SYSTEM.norm>
0

>  <SCORE.heavy>
42

>  <SCORE.norm>
0.183992

>  <RMSD>
28.720

$$$$
ligand
 OpenBabel11021811513D
libRbt.so/2013.1/901 2013/11/27
 42 48  0  0  0  0  0  0  0  0999 V2000
  -18.1339  -21.9585   -2.9376 P   0  0  2  0  0  0  0  0  0  0  0  0
  -18.5723  -26.5006   -0.7716 P   0  0  1  0  0  0  0  0  0  0  0  0
  -19.0106  -20.8309   -2.4447 O   0  5  0  0  0  0  0  0  0  0  0  0
  -17.7791  -26.8347   -2.0124 O   0  5  0  0  0  0  0  0  0  0  0  0
  -17.4089  -21.8276   -4.2556 O   0  0  0  0  0  0  0  0  0  0  0  0
  -18.7059  -27.5191    0.3349 O   0  0  0  0  0  0  0  0  0  0  0  0
  -20.4097  -23.2440   -3.2918 C   0  0  0  0  0  0  0  0  0  0  0  0
  -16.6129  -25.0833    0.2798 C   0  0  0  0  0  0  0  0  0  0  0  0
  -19.0188  -23.3024   -2.9802 O   0  0  0  0  0  0  0  0  0  0  0  0
  -17.9739  -25.1456   -0.1404 O   0  0  0  0  0  0  0  0  0  0  0  0
  -21.1380  -24.3762   -2.5774 C   0  0  1  0  0  0  0  0  0  0  0  0
  -15.9534  -23.8424   -0.3087 C   0  0  1  0  0  0  0  0  0  0  0  0
  -22.3649  -24.6629   -3.2541 O   0  0  0  0  0  0  0  0  0  0  0  0
  -14.5372  -24.0294   -0.3646 O   0  0  0  0  0  0  0  0  0  0  0  0
  -20.3048  -25.6467   -2.5666 C   0  0  1  0  0  0  0  0  0  0  0  0
  -16.4429  -23.5754   -1.7232 C   0  0  1  0  0  0  0  0  0  0  0  0
  -20.0516  -26.0537   -1.2252 O   0  0  0  0  0  0  0  0  0  0  0  0
  -17.0487  -22.2882   -1.7955 O   0  0  0  0  0  0  0  0  0  0  0  0
  -21.1237  -26.7033   -3.2847 C   0  0  0  0  0  0  0  0  0  0  0  0
  -15.2194  -23.6253   -2.6177 C   0  0  0  0  0  0  0  0  0  0  0  0
  -22.4183  -26.0206   -3.7003 C   0  0  2  0  0  0  0  0  0  0  0  0
  -14.0407  -23.9199   -1.7009 C   0  0  2  0  0  0  0  0  0  0  0  0
  -21.5339  -23.5122   -8.2285 N   0  0  0  0  0  0  0  0  0  0  0  0
  -21.2547  -23.1449   -6.9642 C   0  0  0  0  0  0  0  0  0  0  0  0
  -21.5425  -23.8976   -5.8863 N   0  0  0  0  0  0  0  0  0  0  0  0
  -22.1463  -25.1026   -6.0209 C   0  0  0  0  0  0  0  0  0  0  0  0
  -22.4836  -25.5750   -7.3728 C   0  0  0  0  0  0  0  0  0  0  0  0
  -22.1357  -24.6896   -8.5095 C   0  0  0  0  0  0  0  0  0  0  0  0
  -22.4108  -25.0485   -9.7867 N   0  0  0  0  0  0  0  0  0  0  0  0
  -23.0655  -26.7799   -7.2245 N   0  0  0  0  0  0  0  0  0  0  0  0
  -23.0987  -27.0556   -5.8955 C   0  0  0  0  0  0  0  0  0  0  0  0
  -22.5506  -26.0561   -5.1780 N   0  0  0  0  0  0  0  0  0  0  0  0
  -14.6158  -29.1095   -2.2573 N   0  0  0  0  0  0  0  0  0  0  0  0
  -15.4896  -28.1811   -1.8262 C   0  0  0  0  0  0  0  0  0  0  0  0
  -15.2024  -26.8701   -1.7338 N   0  0  0  0  0  0  0  0  0  0  0  0
  -13.9796  -26.4012   -2.0811 C   0  0  0  0  0  0  0  0  0  0  0  0
  -12.9687  -27.3553   -2.5628 C   0  0  0  0  0  0  0  0  0  0  0  0
  -13.3616  -28.7823   -2.6364 C   0  0  0  0  0  0  0  0  0  0  0  0
  -12.4907  -29.7268   -3.0696 N   0  0  0  0  0  0  0  0  0  0  0  0
  -11.8626  -26.6375   -2.8353 N   0  0  0  0  0  0  0  0  0  0  0  0
  -12.1406  -25.3387   -2.5526 C   0  0  0  0  0  0  0  0  0  0  0  0
  -13.4013  -25.1979   -2.1033 N   0  0  0  0  0  0  0  0  0  0  0  0
  1  3  1  1  0  0  0
  1  5  2  0  0  0  0
  1  9  1  0  0  0  0
  1 18  1  0  0  0  0
  2  4  1  6  0  0  0
  2  6  2  0  0  0  0
  2 10  1  0  0  0  0
  2 17  1  0  0  0  0
  7  9  1  0  0  0  0
  8 10  1  0  0  0  0
 11  7  1  6  0  0  0
 11 13  1  0  0  0  0
 11 15  1  0  0  0  0
 12  8  1  6  0  0  0
 12 14  1  0  0  0  0
 12 16  1  0  0  0  0
 13 21  1  0  0  0  0
 14 22  1  0  0  0  0
 15 17  1  1  0  0  0
 15 19  1  0  0  0  0
 16 18  1  1  0  0  0
 16 20  1  0  0  0  0
 19 21  1  0  0  0  0
 20 22  1  0  0  0  0
 21 32  1  6  0  0  0
 22 42  1  6  0  0  0
 23 24  2  0  0  0  0
 23 28  1  0  0  0  0
 24 25  1  0  0  0  0
 25 26  2  0  0  0  0
 26 27  1  0  0  0  0
 26 32  1  0  0  0  0
 27 28  2  0  0  0  0
 27 30  1  0  0  0  0
 28 29  1  0  0  0  0
 30 31  2  0  0  0  0
 31 32  1  0  0  0  0
 33 34  2  0  0  0  0
 33 38  1  0  0  0  0
 34 35  1  0  0  0  0
 35 36  2  0  0  0  0
 36 37  1  0  0  0  0
 36 42  1  0  0  0  0
 37 38  2  0  0  0  0
 37 40  1  0  0  0  0
 38 39  1  0  0  0  0
 40 41  2  0  0  0  0
 41 42  1  0  0  0  0
M  CHG  2   3  -1   4  -1
M  END
>  <CHROM.1>
25.60292062,55.55425714,-18.16792931,-25.16010114,-3.12814740,-3.14075882
0.53818230,-2.84106649

>  <Name>
ligand

>  <RI>
0

>  <Rbt.Current_Directory>
/home/itssahil/PROJECTS/Mol_Feturizer/New_Systems/rnas/4QLN

>  <Rbt.Executable>
rbdock ($Id: //depot/dev/client3/rdock/2013.1/src/exe/rbdock.cxx#4 $)

>  <Rbt.Library>
libRbt.so (2013.1, Build901 2013/11/27)

>  <Rbt.Parameter_File>
/export/apps/rDock/src/rDock_2013.1_src/data/scripts/dock_solv.prm

>  <Rbt.Receptor>
prm/blind_docking_100.prm

>  <SCORE>
-7.29936

>  <SCORE.INTER>
-10.2844

>  <SCORE.INTER.CONST>
1

>  <SCORE.INTER.POLAR>
0

>  <SCORE.INTER.ROT>
2

>  <SCORE.INTER.SOLV>
27.8242

>  <SCORE.INTER.VDW>
-21.0644

>  <SCORE.INTER.norm>
-0.244868

>  <SCORE.INTRA>
0.331531

>  <SCORE.INTRA.DIHEDRAL>
-0.000279329

>  <SCORE.INTRA.DIHEDRAL.0>
2.39985

>  <SCORE.INTRA.POLAR>
0

>  <SCORE.INTRA.POLAR.0>
0

>  <SCORE.INTRA.REPUL>
0

>  <SCORE.INTRA.REPUL.0>
0

>  <SCORE.INTRA.SOLV>
1.28604

>  <SCORE.INTRA.SOLV.lig_0>
-110.958

>  <SCORE.INTRA.VDW>
-0.31135

>  <SCORE.INTRA.VDW.0>
-2.34644

>  <SCORE.INTRA.norm>
0.0078936

>  <SCORE.RESTR>
2.65355

>  <SCORE.RESTR.CAVITY>
2.65355

>  <SCORE.RESTR.norm>
0.0631798

>  <SCORE.SYSTEM>
0

>  <SCORE.SYSTEM.CONST>
0

>  <SCORE.SYSTEM.DIHEDRAL>
0

>  <SCORE.SYSTEM.SOLV>
0

>  <SCORE.SYSTEM.norm>
0

>  <SCORE.heavy>
42

>  <SCORE.norm>
-0.173794

>  <RMSD>
28.725

$$$$
ligand
 OpenBabel11021811513D
libRbt.so/2013.1/901 2013/11/27
 42 48  0  0  0  0  0  0  0  0999 V2000
  -17.8045  -21.9648   -3.6271 P   0  0  2  0  0  0  0  0  0  0  0  0
  -19.3452  -26.4336   -1.8464 P   0  0  1  0  0  0  0  0  0  0  0  0
  -18.5364  -20.7172   -3.1903 O   0  5  0  0  0  0  0  0  0  0  0  0
  -18.4443  -26.8570   -2.9819 O   0  5  0  0  0  0  0  0  0  0  0  0
  -16.8777  -21.9160   -4.8181 O   0  0  0  0  0  0  0  0  0  0  0  0
  -19.8185  -27.4535   -0.8388 O   0  0  0  0  0  0  0  0  0  0  0  0
  -20.1890  -22.8018   -4.3824 C   0  0  0  0  0  0  0  0  0  0  0  0
  -17.3507  -25.4370   -0.4385 C   0  0  0  0  0  0  0  0  0  0  0  0
  -18.8924  -23.1234   -3.8820 O   0  0  0  0  0  0  0  0  0  0  0  0
  -18.6228  -25.2352   -1.0497 O   0  0  0  0  0  0  0  0  0  0  0  0
  -21.2018  -23.8104   -3.8535 C   0  0  1  0  0  0  0  0  0  0  0  0
  -16.4049  -24.3141   -0.8455 C   0  0  1  0  0  0  0  0  0  0  0  0
  -22.3437  -23.8433   -4.7140 O   0  0  0  0  0  0  0  0  0  0  0  0
  -15.0506  -24.7522   -0.7130 O   0  0  0  0  0  0  0  0  0  0  0  0
  -20.6130  -25.2103   -3.8083 C   0  0  1  0  0  0  0  0  0  0  0  0
  -16.6221  -23.9076   -2.2944 C   0  0  1  0  0  0  0  0  0  0  0  0
  -20.6391  -25.7086   -2.4742 O   0  0  0  0  0  0  0  0  0  0  0  0
  -16.9775  -22.5301   -2.3672 O   0  0  0  0  0  0  0  0  0  0  0  0
  -21.4850  -26.0721   -4.7024 C   0  0  0  0  0  0  0  0  0  0  0  0
  -15.3052  -24.1433   -3.0086 C   0  0  0  0  0  0  0  0  0  0  0  0
  -22.5640  -25.1504   -5.2511 C   0  0  2  0  0  0  0  0  0  0  0  0
  -14.3471  -24.6823   -1.9558 C   0  0  2  0  0  0  0  0  0  0  0  0
  -21.6866  -22.1692   -9.4844 N   0  0  0  0  0  0  0  0  0  0  0  0
  -21.6833  -21.8442   -8.1785 C   0  0  0  0  0  0  0  0  0  0  0  0
  -21.9288  -22.7226   -7.1889 N   0  0  0  0  0  0  0  0  0  0  0  0
  -22.2000  -24.0211   -7.4633 C   0  0  0  0  0  0  0  0  0  0  0  0
  -22.2217  -24.4549   -8.8690 C   0  0  0  0  0  0  0  0  0  0  0  0
  -21.9421  -23.4293   -9.9020 C   0  0  0  0  0  0  0  0  0  0  0  0
  -21.9418  -23.7443  -11.2197 N   0  0  0  0  0  0  0  0  0  0  0  0
  -22.5113  -25.7696   -8.8606 N   0  0  0  0  0  0  0  0  0  0  0  0
  -22.6622  -26.1455   -7.5649 C   0  0  0  0  0  0  0  0  0  0  0  0
  -22.4764  -25.1035   -6.7318 N   0  0  0  0  0  0  0  0  0  0  0  0
  -15.6675  -29.7172   -2.6478 N   0  0  0  0  0  0  0  0  0  0  0  0
  -16.4147  -28.6713   -2.2487 C   0  0  0  0  0  0  0  0  0  0  0  0
  -15.9383  -27.4205   -2.1138 N   0  0  0  0  0  0  0  0  0  0  0  0
  -14.6400  -27.1395   -2.3815 C   0  0  0  0  0  0  0  0  0  0  0  0
  -13.7585  -28.2310   -2.8237 C   0  0  0  0  0  0  0  0  0  0  0  0
  -14.3579  -29.5807   -2.9481 C   0  0  0  0  0  0  0  0  0  0  0  0
  -13.6160  -30.6419   -3.3498 N   0  0  0  0  0  0  0  0  0  0  0  0
  -12.5423  -27.6872   -3.0183 N   0  0  0  0  0  0  0  0  0  0  0  0
  -12.6367  -26.3645   -2.7260 C   0  0  0  0  0  0  0  0  0  0  0  0
  -13.8859  -26.0382   -2.3466 N   0  0  0  0  0  0  0  0  0  0  0  0
  1  3  1  1  0  0  0
  1  5  2  0  0  0  0
  1  9  1  0  0  0  0
  1 18  1  0  0  0  0
  2  4  1  6  0  0  0
  2  6  2  0  0  0  0
  2 10  1  0  0  0  0
  2 17  1  0  0  0  0
  7  9  1  0  0  0  0
  8 10  1  0  0  0  0
 11  7  1  6  0  0  0
 11 13  1  0  0  0  0
 11 15  1  0  0  0  0
 12  8  1  6  0  0  0
 12 14  1  0  0  0  0
 12 16  1  0  0  0  0
 13 21  1  0  0  0  0
 14 22  1  0  0  0  0
 15 17  1  1  0  0  0
 15 19  1  0  0  0  0
 16 18  1  1  0  0  0
 16 20  1  0  0  0  0
 19 21  1  0  0  0  0
 20 22  1  0  0  0  0
 21 32  1  6  0  0  0
 22 42  1  6  0  0  0
 23 24  2  0  0  0  0
 23 28  1  0  0  0  0
 24 25  1  0  0  0  0
 25 26  2  0  0  0  0
 26 27  1  0  0  0  0
 26 32  1  0  0  0  0
 27 28  2  0  0  0  0
 27 30  1  0  0  0  0
 28 29  1  0  0  0  0
 30 31  2  0  0  0  0
 31 32  1  0  0  0  0
 33 34  2  0  0  0  0
 33 38  1  0  0  0  0
 34 35  1  0  0  0  0
 35 36  2  0  0  0  0
 36 37  1  0  0  0  0
 36 42  1  0  0  0  0
 37 38  2  0  0  0  0
 37 40  1  0  0  0  0
 38 39  1  0  0  0  0
 40 41  2  0  0  0  0
 41 42  1  0  0  0  0
M  CHG  2   3  -1   4  -1
M  END
>  <CHROM.1>
1.63795237,49.83889773,-18.45003156,-25.06129835,-4.01067367,-2.90246123
0.71159414,-2.97001006

>  <Name>
ligand

>  <RI>
0

>  <Rbt.Current_Directory>
/home/itssahil/PROJECTS/Mol_Feturizer/New_Systems/rnas/4QLN

>  <Rbt.Executable>
rbdock ($Id: //depot/dev/client3/rdock/2013.1/src/exe/rbdock.cxx#4 $)

>  <Rbt.Library>
libRbt.so (2013.1, Build901 2013/11/27)

>  <Rbt.Parameter_File>
/export/apps/rDock/src/rDock_2013.1_src/data/scripts/dock_solv.prm

>  <Rbt.Receptor>
prm/blind_docking_100.prm

>  <SCORE>
-7.69289

>  <SCORE.INTER>
-11.5191

>  <SCORE.INTER.CONST>
1

>  <SCORE.INTER.POLAR>
0

>  <SCORE.INTER.ROT>
2

>  <SCORE.INTER.SOLV>
22.7412

>  <SCORE.INTER.VDW>
-20.1932

>  <SCORE.INTER.norm>
-0.274265

>  <SCORE.INTRA>
0.10314

>  <SCORE.INTRA.DIHEDRAL>
-0.000255069

>  <SCORE.INTRA.DIHEDRAL.0>
2.39985

>  <SCORE.INTRA.POLAR>
0

>  <SCORE.INTRA.POLAR.0>
0

>  <SCORE.INTRA.REPUL>
0

>  <SCORE.INTRA.REPUL.0>
0

>  <SCORE.INTRA.SOLV>
1.1914

>  <SCORE.INTRA.SOLV.lig_0>
-110.958

>  <SCORE.INTRA.VDW>
-0.492431

>  <SCORE.INTRA.VDW.0>
-2.34644

>  <SCORE.INTRA.norm>
0.00245571

>  <SCORE.RESTR>
3.72308

>  <SCORE.RESTR.CAVITY>
3.72308

>  <SCORE.RESTR.norm>
0.0886448

>  <SCORE.SYSTEM>
0

>  <SCORE.SYSTEM.CONST>
0

>  <SCORE.SYSTEM.DIHEDRAL>
0

>  <SCORE.SYSTEM.SOLV>
0

>  <SCORE.SYSTEM.norm>
0

>  <SCORE.heavy>
42

>  <SCORE.norm>
-0.183164

>  <RMSD>
28.726

$$$$
ligand
 OpenBabel11021811513D
libRbt.so/2013.1/901 2013/11/27
 42 48  0  0  0  0  0  0  0  0999 V2000
  -19.9198  -22.3810   -3.7068 P   0  0  2  0  0  0  0  0  0  0  0  0
  -18.2617  -26.2524   -6.4956 P   0  0  1  0  0  0  0  0  0  0  0  0
  -19.5031  -20.9797   -4.0884 O   0  5  0  0  0  0  0  0  0  0  0  0
  -18.7813  -26.9657   -5.2702 O   0  5  0  0  0  0  0  0  0  0  0  0
  -20.5167  -22.6445   -2.3451 O   0  0  0  0  0  0  0  0  0  0  0  0
  -17.9171  -27.0397   -7.7369 O   0  0  0  0  0  0  0  0  0  0  0  0
  -17.3290  -22.8736   -3.6589 C   0  0  0  0  0  0  0  0  0  0  0  0
  -20.6644  -25.4541   -7.2325 C   0  0  0  0  0  0  0  0  0  0  0  0
  -18.6512  -23.3531   -3.8979 O   0  0  0  0  0  0  0  0  0  0  0  0
  -19.3212  -25.1098   -6.9011 O   0  0  0  0  0  0  0  0  0  0  0  0
  -16.3494  -23.6147   -4.5610 C   0  0  1  0  0  0  0  0  0  0  0  0
  -21.6263  -24.5745   -6.4439 C   0  0  1  0  0  0  0  0  0  0  0  0
  -15.0357  -23.5535   -3.9991 O   0  0  0  0  0  0  0  0  0  0  0  0
  -22.8954  -25.2237   -6.3356 O   0  0  0  0  0  0  0  0  0  0  0  0
  -16.7283  -25.0795   -4.6995 C   0  0  1  0  0  0  0  0  0  0  0  0
  -21.1131  -24.3199   -5.0355 C   0  0  1  0  0  0  0  0  0  0  0  0
  -16.9669  -25.3953   -6.0678 O   0  0  0  0  0  0  0  0  0  0  0  0
  -20.9478  -22.9214   -4.8213 O   0  0  0  0  0  0  0  0  0  0  0  0
  -15.5483  -25.8793   -4.1795 C   0  0  0  0  0  0  0  0  0  0  0  0
  -22.1629  -24.8704   -4.0897 C   0  0  0  0  0  0  0  0  0  0  0  0
  -14.5068  -24.8581   -3.7467 C   0  0  2  0  0  0  0  0  0  0  0  0
  -23.2683  -25.4338   -4.9714 C   0  0  2  0  0  0  0  0  0  0  0  0
  -11.9429  -27.5752   -0.0559 N   0  0  0  0  0  0  0  0  0  0  0  0
  -11.9629  -27.7323   -1.3924 C   0  0  0  0  0  0  0  0  0  0  0  0
  -12.6751  -26.9522   -2.2263 N   0  0  0  0  0  0  0  0  0  0  0  0
  -13.4326  -25.9353   -1.7499 C   0  0  0  0  0  0  0  0  0  0  0  0
  -13.4628  -25.6988   -0.2981 C   0  0  0  0  0  0  0  0  0  0  0  0
  -12.6526  -26.6003    0.5551 C   0  0  0  0  0  0  0  0  0  0  0  0
  -12.6237  -26.4517    1.9015 N   0  0  0  0  0  0  0  0  0  0  0  0
  -14.2784  -24.6467   -0.0973 N   0  0  0  0  0  0  0  0  0  0  0  0
  -14.7312  -24.2443   -1.3123 C   0  0  0  0  0  0  0  0  0  0  0  0
  -14.2270  -25.0121   -2.2975 N   0  0  0  0  0  0  0  0  0  0  0  0
  -20.9841  -29.8283   -3.2269 N   0  0  0  0  0  0  0  0  0  0  0  0
  -20.4972  -28.5773   -3.3246 C   0  0  0  0  0  0  0  0  0  0  0  0
  -21.2043  -27.5348   -3.7965 N   0  0  0  0  0  0  0  0  0  0  0  0
  -22.4844  -27.6948   -4.2110 C   0  0  0  0  0  0  0  0  0  0  0  0
  -23.0884  -29.0341   -4.1352 C   0  0  0  0  0  0  0  0  0  0  0  0
  -22.2452  -30.1308   -3.6037 C   0  0  0  0  0  0  0  0  0  0  0  0
  -22.7243  -31.3948   -3.4997 N   0  0  0  0  0  0  0  0  0  0  0  0
  -24.3460  -28.9148   -4.6010 N   0  0  0  0  0  0  0  0  0  0  0  0
  -24.5307  -27.6143   -4.9451 C   0  0  0  0  0  0  0  0  0  0  0  0
  -23.4220  -26.8877   -4.7130 N   0  0  0  0  0  0  0  0  0  0  0  0
  1  3  1  6  0  0  0
  1  5  2  0  0  0  0
  1  9  1  0  0  0  0
  1 18  1  0  0  0  0
  2  4  1  1  0  0  0
  2  6  2  0  0  0  0
  2 10  1  0  0  0  0
  2 17  1  0  0  0  0
  7  9  1  0  0  0  0
  8 10  1  0  0  0  0
 11  7  1  1  0  0  0
 11 13  1  0  0  0  0
 11 15  1  0  0  0  0
 12  8  1  6  0  0  0
 12 14  1  0  0  0  0
 12 16  1  0  0  0  0
 13 21  1  0  0  0  0
 14 22  1  0  0  0  0
 15 17  1  6  0  0  0
 15 19  1  0  0  0  0
 16 18  1  1  0  0  0
 16 20  1  0  0  0  0
 19 21  1  0  0  0  0
 20 22  1  0  0  0  0
 21 32  1  1  0  0  0
 22 42  1  6  0  0  0
 23 24  2  0  0  0  0
 23 28  1  0  0  0  0
 24 25  1  0  0  0  0
 25 26  2  0  0  0  0
 26 27  1  0  0  0  0
 26 32  1  0  0  0  0
 27 28  2  0  0  0  0
 27 30  1  0  0  0  0
 28 29  1  0  0  0  0
 30 31  2  0  0  0  0
 31 32  1  0  0  0  0
 33 34  2  0  0  0  0
 33 38  1  0  0  0  0
 34 35  1  0  0  0  0
 35 36  2  0  0  0  0
 36 37  1  0  0  0  0
 36 42  1  0  0  0  0
 37 38  2  0  0  0  0
 37 40  1  0  0  0  0
 38 39  1  0  0  0  0
 40 41  2  0  0  0  0
 41 42  1  0  0  0  0
M  CHG  2   3  -1   4  -1
M  END
>  <CHROM.1>
-161.88366027,95.06048980,-18.53208115,-25.71464419,-3.89667107,-3.12884163
0.40619191,2.83083916

>  <Name>
ligand

>  <RI>
0

>  <Rbt.Current_Directory>
/home/itssahil/PROJECTS/Mol_Feturizer/New_Systems/rnas/4QLN

>  <Rbt.Executable>
rbdock ($Id: //depot/dev/client3/rdock/2013.1/src/exe/rbdock.cxx#4 $)

>  <Rbt.Library>
libRbt.so (2013.1, Build901 2013/11/27)

>  <Rbt.Parameter_File>
/export/apps/rDock/src/rDock_2013.1_src/data/scripts/dock_solv.prm

>  <Rbt.Receptor>
prm/blind_docking_60.prm

>  <SCORE>
7.56233

>  <SCORE.INTER>
-4.86415

>  <SCORE.INTER.CONST>
1

>  <SCORE.INTER.POLAR>
0

>  <SCORE.INTER.ROT>
2

>  <SCORE.INTER.SOLV>
31.5063

>  <SCORE.INTER.VDW>
-18.6782

>  <SCORE.INTER.norm>
-0.115813

>  <SCORE.INTRA>
1.28071

>  <SCORE.INTRA.DIHEDRAL>
0.00108833

>  <SCORE.INTRA.DIHEDRAL.0>
2.39985

>  <SCORE.INTRA.POLAR>
0

>  <SCORE.INTRA.POLAR.0>
0

>  <SCORE.INTRA.REPUL>
0

>  <SCORE.INTRA.REPUL.0>
0

>  <SCORE.INTRA.SOLV>
0.512667

>  <SCORE.INTRA.SOLV.lig_0>
-110.958

>  <SCORE.INTRA.VDW>
1.02383

>  <SCORE.INTRA.VDW.0>
-2.34644

>  <SCORE.INTRA.norm>
0.030493

>  <SCORE.RESTR>
11.1458

>  <SCORE.RESTR.CAVITY>
11.1458

>  <SCORE.RESTR.norm>
0.265376

>  <SCORE.SYSTEM>
0

>  <SCORE.SYSTEM.CONST>
0

>  <SCORE.SYSTEM.DIHEDRAL>
0

>  <SCORE.SYSTEM.SOLV>
0

>  <SCORE.SYSTEM.norm>
0

>  <SCORE.heavy>
42

>  <SCORE.norm>
0.180055

>  <RMSD>
28.728

$$$$
ligand
 OpenBabel11021811513D
libRbt.so/2013.1/901 2013/11/27
 42 48  0  0  0  0  0  0  0  0999 V2000
  -19.9058  -22.3813   -3.6928 P   0  0  2  0  0  0  0  0  0  0  0  0
  -18.2616  -26.2541   -6.4878 P   0  0  1  0  0  0  0  0  0  0  0  0
  -19.4829  -20.9810   -4.0713 O   0  5  0  0  0  0  0  0  0  0  0  0
  -18.7852  -26.9676   -5.2643 O   0  5  0  0  0  0  0  0  0  0  0  0
  -20.5050  -22.6450   -2.3322 O   0  0  0  0  0  0  0  0  0  0  0  0
  -17.9192  -27.0404   -7.7304 O   0  0  0  0  0  0  0  0  0  0  0  0
  -17.3172  -22.8849   -3.6437 C   0  0  0  0  0  0  0  0  0  0  0  0
  -20.6603  -25.4443   -7.2253 C   0  0  0  0  0  0  0  0  0  0  0  0
  -18.6411  -23.3584   -3.8847 O   0  0  0  0  0  0  0  0  0  0  0  0
  -19.3159  -25.1063   -6.8920 O   0  0  0  0  0  0  0  0  0  0  0  0
  -16.3399  -23.6283   -4.5464 C   0  0  1  0  0  0  0  0  0  0  0  0
  -21.6192  -24.5621   -6.4357 C   0  0  1  0  0  0  0  0  0  0  0  0
  -15.0264  -23.5738   -3.9832 O   0  0  0  0  0  0  0  0  0  0  0  0
  -22.8910  -25.2063   -6.3298 O   0  0  0  0  0  0  0  0  0  0  0  0
  -16.7248  -25.0913   -4.6881 C   0  0  1  0  0  0  0  0  0  0  0  0
  -21.1060  -24.3125   -5.0264 C   0  0  1  0  0  0  0  0  0  0  0  0
  -16.9636  -25.4034   -6.0572 O   0  0  0  0  0  0  0  0  0  0  0  0
  -20.9351  -22.9151   -4.8093 O   0  0  0  0  0  0  0  0  0  0  0  0
  -15.5487  -25.8970   -4.1686 C   0  0  0  0  0  0  0  0  0  0  0  0
  -22.1590  -24.8604   -4.0826 C   0  0  0  0  0  0  0  0  0  0  0  0
  -14.5033  -24.8811   -3.7330 C   0  0  2  0  0  0  0  0  0  0  0  0
  -23.2660  -25.4175   -4.9664 C   0  0  2  0  0  0  0  0  0  0  0  0
  -11.9793  -27.6359   -0.0426 N   0  0  0  0  0  0  0  0  0  0  0  0
  -12.0021  -27.7929   -1.3791 C   0  0  0  0  0  0  0  0  0  0  0  0
  -12.7027  -27.0023   -2.2128 N   0  0  0  0  0  0  0  0  0  0  0  0
  -13.4448  -25.9741   -1.7364 C   0  0  0  0  0  0  0  0  0  0  0  0
  -13.4710  -25.7370   -0.2845 C   0  0  0  0  0  0  0  0  0  0  0  0
  -12.6742  -26.6505    0.5686 C   0  0  0  0  0  0  0  0  0  0  0  0
  -12.6426  -26.5021    1.9149 N   0  0  0  0  0  0  0  0  0  0  0  0
  -14.2706  -24.6728   -0.0837 N   0  0  0  0  0  0  0  0  0  0  0  0
  -14.7177  -24.2638   -1.2986 C   0  0  0  0  0  0  0  0  0  0  0  0
  -14.2254  -25.0391   -2.2838 N   0  0  0  0  0  0  0  0  0  0  0  0
  -21.0028  -29.8244   -3.2260 N   0  0  0  0  0  0  0  0  0  0  0  0
  -20.5107  -28.5752   -3.3204 C   0  0  0  0  0  0  0  0  0  0  0  0
  -21.2127  -27.5289   -3.7916 N   0  0  0  0  0  0  0  0  0  0  0  0
  -22.4926  -27.6831   -4.2088 C   0  0  0  0  0  0  0  0  0  0  0  0
  -23.1022  -29.0200   -4.1366 C   0  0  0  0  0  0  0  0  0  0  0  0
  -22.2644  -30.1211   -3.6056 C   0  0  0  0  0  0  0  0  0  0  0  0
  -22.7488  -31.3833   -3.5049 N   0  0  0  0  0  0  0  0  0  0  0  0
  -24.3585  -28.8948   -4.6045 N   0  0  0  0  0  0  0  0  0  0  0  0
  -24.5372  -27.5928   -4.9465 C   0  0  0  0  0  0  0  0  0  0  0  0
  -23.4261  -26.8712   -4.7110 N   0  0  0  0  0  0  0  0  0  0  0  0
  1  3  1  6  0  0  0
  1  5  2  0  0  0  0
  1  9  1  0  0  0  0
  1 18  1  0  0  0  0
  2  4  1  1  0  0  0
  2  6  2  0  0  0  0
  2 10  1  0  0  0  0
  2 17  1  0  0  0  0
  7  9  1  0  0  0  0
  8 10  1  0  0  0  0
 11  7  1  1  0  0  0
 11 13  1  0  0  0  0
 11 15  1  0  0  0  0
 12  8  1  6  0  0  0
 12 14  1  0  0  0  0
 12 16  1  0  0  0  0
 13 21  1  0  0  0  0
 14 22  1  0  0  0  0
 15 17  1  6  0  0  0
 15 19  1  0  0  0  0
 16 18  1  1  0  0  0
 16 20  1  0  0  0  0
 19 21  1  0  0  0  0
 20 22  1  0  0  0  0
 21 32  1  1  0  0  0
 22 42  1  6  0  0  0
 23 24  2  0  0  0  0
 23 28  1  0  0  0  0
 24 25  1  0  0  0  0
 25 26  2  0  0  0  0
 26 27  1  0  0  0  0
 26 32  1  0  0  0  0
 27 28  2  0  0  0  0
 27 30  1  0  0  0  0
 28 29  1  0  0  0  0
 30 31  2  0  0  0  0
 31 32  1  0  0  0  0
 33 34  2  0  0  0  0
 33 38  1  0  0  0  0
 34 35  1  0  0  0  0
 35 36  2  0  0  0  0
 36 37  1  0  0  0  0
 36 42  1  0  0  0  0
 37 38  2  0  0  0  0
 37 40  1  0  0  0  0
 38 39  1  0  0  0  0
 40 41  2  0  0  0  0
 41 42  1  0  0  0  0
M  CHG  2   3  -1   4  -1
M  END
>  <CHROM.1>
-162.51636727,95.11634616,-18.53411994,-25.72194140,-3.88764491,-3.12325940
0.40601250,2.83021102

>  <Name>
ligand

>  <RI>
0

>  <Rbt.Current_Directory>
/home/itssahil/PROJECTS/Mol_Feturizer/New_Systems/rnas/4QLN

>  <Rbt.Executable>
rbdock ($Id: //depot/dev/client3/rdock/2013.1/src/exe/rbdock.cxx#4 $)

>  <Rbt.Library>
libRbt.so (2013.1, Build901 2013/11/27)

>  <Rbt.Parameter_File>
/export/apps/rDock/src/rDock_2013.1_src/data/scripts/dock_solv.prm

>  <Rbt.Receptor>
prm/blind_docking_60.prm

>  <SCORE>
7.34408

>  <SCORE.INTER>
-5.14695

>  <SCORE.INTER.CONST>
1

>  <SCORE.INTER.POLAR>
0

>  <SCORE.INTER.ROT>
2

>  <SCORE.INTER.SOLV>
31.4819

>  <SCORE.INTER.VDW>
-18.8586

>  <SCORE.INTER.norm>
-0.122546

>  <SCORE.INTRA>
1.28771

>  <SCORE.INTRA.DIHEDRAL>
0.00108258

>  <SCORE.INTRA.DIHEDRAL.0>
2.39985

>  <SCORE.INTRA.POLAR>
0

>  <SCORE.INTRA.POLAR.0>
0

>  <SCORE.INTRA.REPUL>
0

>  <SCORE.INTRA.REPUL.0>
0

>  <SCORE.INTRA.SOLV>
0.510857

>  <SCORE.INTRA.SOLV.lig_0>
-110.958

>  <SCORE.INTRA.VDW>
1.03174

>  <SCORE.INTRA.VDW.0>
-2.34644

>  <SCORE.INTRA.norm>
0.0306597

>  <SCORE.RESTR>
11.2033

>  <SCORE.RESTR.CAVITY>
11.2033

>  <SCORE.RESTR.norm>
0.266746

>  <SCORE.SYSTEM>
0

>  <SCORE.SYSTEM.CONST>
0

>  <SCORE.SYSTEM.DIHEDRAL>
0

>  <SCORE.SYSTEM.SOLV>
0

>  <SCORE.SYSTEM.norm>
0

>  <SCORE.heavy>
42

>  <SCORE.norm>
0.174859

>  <RMSD>
28.734

$$$$
ligand
 OpenBabel11021811513D
libRbt.so/2013.1/901 2013/11/27
 42 48  0  0  0  0  0  0  0  0999 V2000
  -19.4202  -26.3517   -0.7240 P   0  0  2  0  0  0  0  0  0  0  0  0
  -17.8810  -22.0819   -2.9409 P   0  0  1  0  0  0  0  0  0  0  0  0
  -19.5174  -26.3935    0.7832 O   0  5  0  0  0  0  0  0  0  0  0  0
  -17.7666  -23.0690   -4.0780 O   0  5  0  0  0  0  0  0  0  0  0  0
  -19.4424  -27.6371   -1.5159 O   0  0  0  0  0  0  0  0  0  0  0  0
  -17.7864  -20.6004   -3.2160 O   0  0  0  0  0  0  0  0  0  0  0  0
  -16.9262  -25.6071   -0.2962 C   0  0  0  0  0  0  0  0  0  0  0  0
  -20.5102  -22.2631   -2.8511 C   0  0  0  0  0  0  0  0  0  0  0  0
  -18.0887  -25.5384   -1.1202 O   0  0  0  0  0  0  0  0  0  0  0  0
  -19.2640  -22.3636   -2.1659 O   0  0  0  0  0  0  0  0  0  0  0  0
  -16.1525  -24.2982   -0.3998 C   0  0  1  0  0  0  0  0  0  0  0  0
  -21.3401  -23.5131   -2.5871 C   0  0  1  0  0  0  0  0  0  0  0  0
  -14.7857  -24.5163   -0.0398 O   0  0  0  0  0  0  0  0  0  0  0  0
  -22.2962  -23.6877   -3.6356 O   0  0  0  0  0  0  0  0  0  0  0  0
  -16.1788  -23.7535   -1.8179 C   0  0  1  0  0  0  0  0  0  0  0  0
  -20.4664  -24.7566   -2.5433 C   0  0  1  0  0  0  0  0  0  0  0  0
  -16.7742  -22.4596   -1.8335 O   0  0  0  0  0  0  0  0  0  0  0  0
  -20.5926  -25.3978   -1.2776 O   0  0  0  0  0  0  0  0  0  0  0  0
  -14.7334  -23.6662   -2.2712 C   0  0  0  0  0  0  0  0  0  0  0  0
  -20.9680  -25.6729   -3.6426 C   0  0  0  0  0  0  0  0  0  0  0  0
  -13.8960  -24.1658   -1.1032 C   0  0  2  0  0  0  0  0  0  0  0  0
  -22.1273  -24.9406   -4.3033 C   0  0  2  0  0  0  0  0  0  0  0  0
  -14.0884  -29.0823   -2.9386 N   0  0  0  0  0  0  0  0  0  0  0  0
  -15.0841  -28.2225   -2.6549 C   0  0  0  0  0  0  0  0  0  0  0  0
  -14.8852  -26.9775   -2.1841 N   0  0  0  0  0  0  0  0  0  0  0  0
  -13.6333  -26.5088   -1.9649 C   0  0  0  0  0  0  0  0  0  0  0  0
  -12.4905  -27.3900   -2.2517 C   0  0  0  0  0  0  0  0  0  0  0  0
  -12.7901  -28.7471   -2.7670 C   0  0  0  0  0  0  0  0  0  0  0  0
  -11.7965  -29.6213   -3.0571 N   0  0  0  0  0  0  0  0  0  0  0  0
  -11.3808  -26.6895   -1.9512 N   0  0  0  0  0  0  0  0  0  0  0  0
  -11.7767  -25.4679   -1.5108 C   0  0  0  0  0  0  0  0  0  0  0  0
  -13.1193  -25.3599   -1.5191 N   0  0  0  0  0  0  0  0  0  0  0  0
  -23.4904  -25.9048   -9.2817 N   0  0  0  0  0  0  0  0  0  0  0  0
  -24.0520  -26.3222   -8.1320 C   0  0  0  0  0  0  0  0  0  0  0  0
  -23.5907  -25.9930   -6.9121 N   0  0  0  0  0  0  0  0  0  0  0  0
  -22.5019  -25.1985   -6.7727 C   0  0  0  0  0  0  0  0  0  0  0  0
  -21.8318  -24.7010   -7.9842 C   0  0  0  0  0  0  0  0  0  0  0  0
  -22.4003  -25.1077   -9.2909 C   0  0  0  0  0  0  0  0  0  0  0  0
  -21.8442  -24.6932  -10.4558 N   0  0  0  0  0  0  0  0  0  0  0  0
  -20.7970  -23.9467   -7.5680 N   0  0  0  0  0  0  0  0  0  0  0  0
  -20.8038  -23.9604   -6.2102 C   0  0  0  0  0  0  0  0  0  0  0  0
  -21.8191  -24.7060   -5.7365 N   0  0  0  0  0  0  0  0  0  0  0  0
  1  3  1  1  0  0  0
  1  5  2  0  0  0  0
  1  9  1  0  0  0  0
  1 18  1  0  0  0  0
  2  4  1  6  0  0  0
  2  6  2  0  0  0  0
  2 10  1  0  0  0  0
  2 17  1  0  0  0  0
  7  9  1  0  0  0  0
  8 10  1  0  0  0  0
 11  7  1  6  0  0  0
 11 13  1  0  0  0  0
 11 15  1  0  0  0  0
 12  8  1  6  0  0  0
 12 14  1  0  0  0  0
 12 16  1  0  0  0  0
 13 21  1  0  0  0  0
 14 22  1  0  0  0  0
 15 17  1  1  0  0  0
 15 19  1  0  0  0  0
 16 18  1  1  0  0  0
 16 20  1  0  0  0  0
 19 21  1  0  0  0  0
 20 22  1  0  0  0  0
 21 32  1  6  0  0  0
 22 42  1  6  0  0  0
 23 24  2  0  0  0  0
 23 28  1  0  0  0  0
 24 25  1  0  0  0  0
 25 26  2  0  0  0  0
 26 27  1  0  0  0  0
 26 32  1  0  0  0  0
 27 28  2  0  0  0  0
 27 30  1  0  0  0  0
 28 29  1  0  0  0  0
 30 31  2  0  0  0  0
 31 32  1  0  0  0  0
 33 34  2  0  0  0  0
 33 38  1  0  0  0  0
 34 35  1  0  0  0  0
 35 36  2  0  0  0  0
 36 37  1  0  0  0  0
 36 42  1  0  0  0  0
 37 38  2  0  0  0  0
 37 40  1  0  0  0  0
 38 39  1  0  0  0  0
 40 41  2  0  0  0  0
 41 42  1  0  0  0  0
M  CHG  2   3  -1   4  -1
M  END
>  <CHROM.1>
58.52687421,-124.10468586,-18.17702647,-25.06618606,-3.26777747,0.33365358
-0.46852338,0.94022393

>  <Name>
ligand

>  <RI>
0

>  <Rbt.Current_Directory>
/home/itssahil/PROJECTS/Mol_Feturizer/New_Systems/rnas/4QLN

>  <Rbt.Executable>
rbdock ($Id: //depot/dev/client3/rdock/2013.1/src/exe/rbdock.cxx#4 $)

>  <Rbt.Library>
libRbt.so (2013.1, Build901 2013/11/27)

>  <Rbt.Parameter_File>
/export/apps/rDock/src/rDock_2013.1_src/data/scripts/dock_solv.prm

>  <Rbt.Receptor>
prm/blind_docking_100.prm

>  <SCORE>
-5.55658

>  <SCORE.INTER>
-7.58907

>  <SCORE.INTER.CONST>
1

>  <SCORE.INTER.POLAR>
0

>  <SCORE.INTER.ROT>
2

>  <SCORE.INTER.SOLV>
32.6735

>  <SCORE.INTER.VDW>
-20.8839

>  <SCORE.INTER.norm>
-0.180692

>  <SCORE.INTRA>
-0.116473

>  <SCORE.INTRA.DIHEDRAL>
0.000290151

>  <SCORE.INTRA.DIHEDRAL.0>
2.39985

>  <SCORE.INTRA.POLAR>
0

>  <SCORE.INTRA.POLAR.0>
0

>  <SCORE.INTRA.REPUL>
0

>  <SCORE.INTRA.REPUL.0>
0

>  <SCORE.INTRA.SOLV>
-0.00550186

>  <SCORE.INTRA.SOLV.lig_0>
-110.958

>  <SCORE.INTRA.VDW>
-0.113868

>  <SCORE.INTRA.VDW.0>
-2.34644

>  <SCORE.INTRA.norm>
-0.00277318

>  <SCORE.RESTR>
2.14896

>  <SCORE.RESTR.CAVITY>
2.14896

>  <SCORE.RESTR.norm>
0.0511657

>  <SCORE.SYSTEM>
0

>  <SCORE.SYSTEM.CONST>
0

>  <SCORE.SYSTEM.DIHEDRAL>
0

>  <SCORE.SYSTEM.SOLV>
0

>  <SCORE.SYSTEM.norm>
0

>  <SCORE.heavy>
42

>  <SCORE.norm>
-0.1323

>  <RMSD>
28.735

$$$$
ligand
 OpenBabel11021811513D
libRbt.so/2013.1/901 2013/11/27
 42 48  0  0  0  0  0  0  0  0999 V2000
  -19.9187  -22.3637   -3.6971 P   0  0  2  0  0  0  0  0  0  0  0  0
  -18.2796  -26.2409   -6.4890 P   0  0  1  0  0  0  0  0  0  0  0  0
  -19.4958  -20.9640   -4.0781 O   0  5  0  0  0  0  0  0  0  0  0  0
  -18.8018  -26.9525   -5.2637 O   0  5  0  0  0  0  0  0  0  0  0  0
  -20.5161  -22.6253   -2.3353 O   0  0  0  0  0  0  0  0  0  0  0  0
  -17.9391  -27.0290   -7.7309 O   0  0  0  0  0  0  0  0  0  0  0  0
  -17.3302  -22.8681   -3.6508 C   0  0  0  0  0  0  0  0  0  0  0  0
  -20.6790  -25.4313   -7.2243 C   0  0  0  0  0  0  0  0  0  0  0  0
  -18.6546  -23.3414   -3.8894 O   0  0  0  0  0  0  0  0  0  0  0  0
  -19.3341  -25.0932   -6.8933 O   0  0  0  0  0  0  0  0  0  0  0  0
  -16.3544  -23.6131   -4.5537 C   0  0  1  0  0  0  0  0  0  0  0  0
  -21.6365  -24.5477   -6.4347 C   0  0  1  0  0  0  0  0  0  0  0  0
  -15.0401  -23.5582   -3.9924 O   0  0  0  0  0  0  0  0  0  0  0  0
  -22.9085  -25.1913   -6.3261 O   0  0  0  0  0  0  0  0  0  0  0  0
  -16.7400  -25.0761   -4.6930 C   0  0  1  0  0  0  0  0  0  0  0  0
  -21.1214  -24.2963   -5.0264 C   0  0  1  0  0  0  0  0  0  0  0  0
  -16.9807  -25.3900   -6.0613 O   0  0  0  0  0  0  0  0  0  0  0  0
  -20.9497  -22.8987   -4.8114 O   0  0  0  0  0  0  0  0  0  0  0  0
  -15.5634  -25.8815   -4.1740 C   0  0  0  0  0  0  0  0  0  0  0  0
  -22.1733  -24.8426   -4.0805 C   0  0  0  0  0  0  0  0  0  0  0  0
  -14.5171  -24.8653   -3.7411 C   0  0  2  0  0  0  0  0  0  0  0  0
  -23.2817  -25.4004   -4.9619 C   0  0  2  0  0  0  0  0  0  0  0  0
  -12.0027  -27.6264   -0.0489 N   0  0  0  0  0  0  0  0  0  0  0  0
  -12.0290  -27.7865   -1.3849 C   0  0  0  0  0  0  0  0  0  0  0  0
  -12.7265  -26.9938   -2.2192 N   0  0  0  0  0  0  0  0  0  0  0  0
  -13.4613  -25.9598   -1.7439 C   0  0  0  0  0  0  0  0  0  0  0  0
  -13.4832  -25.7190   -0.2926 C   0  0  0  0  0  0  0  0  0  0  0  0
  -12.6903  -26.6352    0.5612 C   0  0  0  0  0  0  0  0  0  0  0  0
  -12.6552  -26.4837    1.9071 N   0  0  0  0  0  0  0  0  0  0  0  0
  -14.2759  -24.6494   -0.0928 N   0  0  0  0  0  0  0  0  0  0  0  0
  -14.7229  -24.2407   -1.3078 C   0  0  0  0  0  0  0  0  0  0  0  0
  -14.2373  -25.0215   -2.2921 N   0  0  0  0  0  0  0  0  0  0  0  0
  -21.0110  -29.8099   -3.2376 N   0  0  0  0  0  0  0  0  0  0  0  0
  -20.5177  -28.5615   -3.3369 C   0  0  0  0  0  0  0  0  0  0  0  0
  -21.2220  -27.5144   -3.8029 N   0  0  0  0  0  0  0  0  0  0  0  0
  -22.5056  -27.6668   -4.2094 C   0  0  0  0  0  0  0  0  0  0  0  0
  -23.1166  -29.0027   -4.1313 C   0  0  0  0  0  0  0  0  0  0  0  0
  -22.2761  -30.1048   -3.6066 C   0  0  0  0  0  0  0  0  0  0  0  0
  -22.7617  -31.3662   -3.5011 N   0  0  0  0  0  0  0  0  0  0  0  0
  -24.3765  -28.8758   -4.5888 N   0  0  0  0  0  0  0  0  0  0  0  0
  -24.5561  -27.5738   -4.9301 C   0  0  0  0  0  0  0  0  0  0  0  0
  -23.4419  -26.8537   -4.7043 N   0  0  0  0  0  0  0  0  0  0  0  0
  1  3  1  6  0  0  0
  1  5  2  0  0  0  0
  1  9  1  0  0  0  0
  1 18  1  0  0  0  0
  2  4  1  1  0  0  0
  2  6  2  0  0  0  0
  2 10  1  0  0  0  0
  2 17  1  0  0  0  0
  7  9  1  0  0  0  0
  8 10  1  0  0  0  0
 11  7  1  1  0  0  0
 11 13  1  0  0  0  0
 11 15  1  0  0  0  0
 12  8  1  6  0  0  0
 12 14  1  0  0  0  0
 12 16  1  0  0  0  0
 13 21  1  0  0  0  0
 14 22  1  0  0  0  0
 15 17  1  6  0  0  0
 15 19  1  0  0  0  0
 16 18  1  1  0  0  0
 16 20  1  0  0  0  0
 19 21  1  0  0  0  0
 20 22  1  0  0  0  0
 21 32  1  1  0  0  0
 22 42  1  6  0  0  0
 23 24  2  0  0  0  0
 23 28  1  0  0  0  0
 24 25  1  0  0  0  0
 25 26  2  0  0  0  0
 26 27  1  0  0  0  0
 26 32  1  0  0  0  0
 27 28  2  0  0  0  0
 27 30  1  0  0  0  0
 28 29  1  0  0  0  0
 30 31  2  0  0  0  0
 31 32  1  0  0  0  0
 33 34  2  0  0  0  0
 33 38  1  0  0  0  0
 34 35  1  0  0  0  0
 35 36  2  0  0  0  0
 36 37  1  0  0  0  0
 36 42  1  0  0  0  0
 37 38  2  0  0  0  0
 37 40  1  0  0  0  0
 38 39  1  0  0  0  0
 40 41  2  0  0  0  0
 41 42  1  0  0  0  0
M  CHG  2   3  -1   4  -1
M  END
>  <CHROM.1>
-162.85520221,94.71031398,-18.54899278,-25.70624708,-3.89062154,-3.12386333
0.40514696,2.83095294

>  <Name>
ligand

>  <RI>
0

>  <Rbt.Current_Directory>
/home/itssahil/PROJECTS/Mol_Feturizer/New_Systems/rnas/4QLN

>  <Rbt.Executable>
rbdock ($Id: //depot/dev/client3/rdock/2013.1/src/exe/rbdock.cxx#4 $)

>  <Rbt.Library>
libRbt.so (2013.1, Build901 2013/11/27)

>  <Rbt.Parameter_File>
/export/apps/rDock/src/rDock_2013.1_src/data/scripts/dock_solv.prm

>  <Rbt.Receptor>
prm/blind_docking_60.prm

>  <SCORE>
7.32074

>  <SCORE.INTER>
-5.16747

>  <SCORE.INTER.CONST>
1

>  <SCORE.INTER.POLAR>
0

>  <SCORE.INTER.ROT>
2

>  <SCORE.INTER.SOLV>
31.483

>  <SCORE.INTER.VDW>
-18.8727

>  <SCORE.INTER.norm>
-0.123035

>  <SCORE.INTRA>
1.27799

>  <SCORE.INTRA.DIHEDRAL>
0.00108378

>  <SCORE.INTRA.DIHEDRAL.0>
2.39985

>  <SCORE.INTRA.POLAR>
0

>  <SCORE.INTRA.POLAR.0>
0

>  <SCORE.INTRA.REPUL>
0

>  <SCORE.INTRA.REPUL.0>
0

>  <SCORE.INTRA.SOLV>
0.523048

>  <SCORE.INTRA.SOLV.lig_0>
-110.958

>  <SCORE.INTRA.VDW>
1.01592

>  <SCORE.INTRA.VDW.0>
-2.34644

>  <SCORE.INTRA.norm>
0.0304283

>  <SCORE.RESTR>
11.2102

>  <SCORE.RESTR.CAVITY>
11.2102

>  <SCORE.RESTR.norm>
0.26691

>  <SCORE.SYSTEM>
0

>  <SCORE.SYSTEM.CONST>
0

>  <SCORE.SYSTEM.DIHEDRAL>
0

>  <SCORE.SYSTEM.SOLV>
0

>  <SCORE.SYSTEM.norm>
0

>  <SCORE.heavy>
42

>  <SCORE.norm>
0.174303

>  <RMSD>
28.750

$$$$
ligand
 OpenBabel11021811513D
libRbt.so/2013.1/901 2013/11/27
 42 48  0  0  0  0  0  0  0  0999 V2000
  -19.3822  -26.3233   -0.6410 P   0  0  2  0  0  0  0  0  0  0  0  0
  -17.8673  -22.0858   -2.9349 P   0  0  1  0  0  0  0  0  0  0  0  0
  -19.5175  -26.3264    0.8639 O   0  5  0  0  0  0  0  0  0  0  0  0
  -17.7050  -23.1008   -4.0412 O   0  5  0  0  0  0  0  0  0  0  0  0
  -19.3598  -27.6299   -1.3976 O   0  0  0  0  0  0  0  0  0  0  0  0
  -17.7936  -20.6107   -3.2483 O   0  0  0  0  0  0  0  0  0  0  0  0
  -16.9147  -25.5188   -0.1710 C   0  0  0  0  0  0  0  0  0  0  0  0
  -20.4940  -22.3159   -2.9067 C   0  0  0  0  0  0  0  0  0  0  0  0
  -18.0566  -25.4952   -1.0256 O   0  0  0  0  0  0  0  0  0  0  0  0
  -19.2642  -22.3735   -2.1877 O   0  0  0  0  0  0  0  0  0  0  0  0
  -16.1634  -24.1983   -0.2909 C   0  0  1  0  0  0  0  0  0  0  0  0
  -21.3067  -23.5743   -2.6295 C   0  0  1  0  0  0  0  0  0  0  0  0
  -14.8024  -24.3799    0.1094 O   0  0  0  0  0  0  0  0  0  0  0  0
  -22.2320  -23.7959   -3.6966 O   0  0  0  0  0  0  0  0  0  0  0  0
  -16.1634  -23.6928   -1.7237 C   0  0  1  0  0  0  0  0  0  0  0  0
  -20.4111  -24.7988   -2.5294 C   0  0  1  0  0  0  0  0  0  0  0  0
  -16.7825  -22.4117   -1.7900 O   0  0  0  0  0  0  0  0  0  0  0  0
  -20.5578  -25.4079   -1.2501 O   0  0  0  0  0  0  0  0  0  0  0  0
  -14.7086  -23.5895   -2.1426 C   0  0  0  0  0  0  0  0  0  0  0  0
  -20.8668  -25.7542   -3.6154 C   0  0  0  0  0  0  0  0  0  0  0  0
  -13.8924  -24.0408   -0.9405 C   0  0  2  0  0  0  0  0  0  0  0  0
  -22.0223  -25.0628   -4.3250 C   0  0  2  0  0  0  0  0  0  0  0  0
  -13.6255  -29.2848   -1.0258 N   0  0  0  0  0  0  0  0  0  0  0  0
  -14.6031  -28.4728   -0.5829 C   0  0  0  0  0  0  0  0  0  0  0  0
  -14.5347  -27.1294   -0.6233 N   0  0  0  0  0  0  0  0  0  0  0  0
  -13.4446  -26.5037   -1.1284 C   0  0  0  0  0  0  0  0  0  0  0  0
  -12.3322  -27.3234   -1.6336 C   0  0  0  0  0  0  0  0  0  0  0  0
  -12.4814  -28.7960   -1.5545 C   0  0  0  0  0  0  0  0  0  0  0  0
  -11.5047  -29.6238   -1.9978 N   0  0  0  0  0  0  0  0  0  0  0  0
  -11.3915  -26.4658   -2.0717 N   0  0  0  0  0  0  0  0  0  0  0  0
  -11.8589  -25.2079   -1.8656 C   0  0  0  0  0  0  0  0  0  0  0  0
  -13.0828  -25.2303   -1.3036 N   0  0  0  0  0  0  0  0  0  0  0  0
  -23.4578  -25.8554   -9.3134 N   0  0  0  0  0  0  0  0  0  0  0  0
  -24.0693  -26.2096   -8.1679 C   0  0  0  0  0  0  0  0  0  0  0  0
  -23.5805  -25.9374   -6.9445 N   0  0  0  0  0  0  0  0  0  0  0  0
  -22.4099  -25.2710   -6.7972 C   0  0  0  0  0  0  0  0  0  0  0  0
  -21.6813  -24.8494   -8.0036 C   0  0  0  0  0  0  0  0  0  0  0  0
  -22.2848  -25.1863   -9.3145 C   0  0  0  0  0  0  0  0  0  0  0  0
  -21.6791  -24.8344  -10.4753 N   0  0  0  0  0  0  0  0  0  0  0  0
  -20.5705  -24.2175   -7.5798 N   0  0  0  0  0  0  0  0  0  0  0  0
  -20.5863  -24.2336   -6.2221 C   0  0  0  0  0  0  0  0  0  0  0  0
  -21.6816  -24.8611   -5.7559 N   0  0  0  0  0  0  0  0  0  0  0  0
  1  3  1  1  0  0  0
  1  5  2  0  0  0  0
  1  9  1  0  0  0  0
  1 18  1  0  0  0  0
  2  4  1  6  0  0  0
  2  6  2  0  0  0  0
  2 10  1  0  0  0  0
  2 17  1  0  0  0  0
  7  9  1  0  0  0  0
  8 10  1  0  0  0  0
 11  7  1  6  0  0  0
 11 13  1  0  0  0  0
 11 15  1  0  0  0  0
 12  8  1  6  0  0  0
 12 14  1  0  0  0  0
 12 16  1  0  0  0  0
 13 21  1  0  0  0  0
 14 22  1  0  0  0  0
 15 17  1  1  0  0  0
 15 19  1  0  0  0  0
 16 18  1  1  0  0  0
 16 20  1  0  0  0  0
 19 21  1  0  0  0  0
 20 22  1  0  0  0  0
 21 32  1  6  0  0  0
 22 42  1  6  0  0  0
 23 24  2  0  0  0  0
 23 28  1  0  0  0  0
 24 25  1  0  0  0  0
 25 26  2  0  0  0  0
 26 27  1  0  0  0  0
 26 32  1  0  0  0  0
 27 28  2  0  0  0  0
 27 30  1  0  0  0  0
 28 29  1  0  0  0  0
 30 31  2  0  0  0  0
 31 32  1  0  0  0  0
 33 34  2  0  0  0  0
 33 38  1  0  0  0  0
 34 35  1  0  0  0  0
 35 36  2  0  0  0  0
 36 37  1  0  0  0  0
 36 42  1  0  0  0  0
 37 38  2  0  0  0  0
 37 40  1  0  0  0  0
 38 39  1  0  0  0  0
 40 41  2  0  0  0  0
 41 42  1  0  0  0  0
M  CHG  2   3  -1   4  -1
M  END
>  <CHROM.1>
25.15512587,-116.25366265,-18.09023881,-25.07848872,-3.05444860,0.31777974
-0.53634458,0.84437303

>  <Name>
ligand

>  <RI>
0

>  <Rbt.Current_Directory>
/home/itssahil/PROJECTS/Mol_Feturizer/New_Systems/rnas/4QLN

>  <Rbt.Executable>
rbdock ($Id: //depot/dev/client3/rdock/2013.1/src/exe/rbdock.cxx#4 $)

>  <Rbt.Library>
libRbt.so (2013.1, Build901 2013/11/27)

>  <Rbt.Parameter_File>
/export/apps/rDock/src/rDock_2013.1_src/data/scripts/dock_solv.prm

>  <Rbt.Receptor>
prm/blind_docking_100.prm

>  <SCORE>
-3.50301

>  <SCORE.INTER>
-6.37121

>  <SCORE.INTER.CONST>
1

>  <SCORE.INTER.POLAR>
0

>  <SCORE.INTER.ROT>
2

>  <SCORE.INTER.SOLV>
29.7555

>  <SCORE.INTER.VDW>
-19.0993

>  <SCORE.INTER.norm>
-0.151696

>  <SCORE.INTRA>
0.333414

>  <SCORE.INTRA.DIHEDRAL>
-0.00025001

>  <SCORE.INTRA.DIHEDRAL.0>
2.39985

>  <SCORE.INTRA.POLAR>
0

>  <SCORE.INTRA.POLAR.0>
0

>  <SCORE.INTRA.REPUL>
0

>  <SCORE.INTRA.REPUL.0>
0

>  <SCORE.INTRA.SOLV>
0.0303966

>  <SCORE.INTRA.SOLV.lig_0>
-110.958

>  <SCORE.INTRA.VDW>
0.318341

>  <SCORE.INTRA.VDW.0>
-2.34644

>  <SCORE.INTRA.norm>
0.00793843

>  <SCORE.RESTR>
2.53479

>  <SCORE.RESTR.CAVITY>
2.53479

>  <SCORE.RESTR.norm>
0.0603522

>  <SCORE.SYSTEM>
0

>  <SCORE.SYSTEM.CONST>
0

>  <SCORE.SYSTEM.DIHEDRAL>
0

>  <SCORE.SYSTEM.SOLV>
0

>  <SCORE.SYSTEM.norm>
0

>  <SCORE.heavy>
42

>  <SCORE.norm>
-0.0834049

>  <RMSD>
28.752

$$$$
ligand
 OpenBabel11021811513D
libRbt.so/2013.1/901 2013/11/27
 42 48  0  0  0  0  0  0  0  0999 V2000
  -19.9857  -26.3340   -2.0044 P   0  0  2  0  0  0  0  0  0  0  0  0
  -19.2055  -21.9434   -4.3767 P   0  0  1  0  0  0  0  0  0  0  0  0
  -20.2139  -26.3223   -0.5108 O   0  5  0  0  0  0  0  0  0  0  0  0
  -18.7727  -22.9351   -5.4301 O   0  5  0  0  0  0  0  0  0  0  0  0
  -19.6537  -27.6297   -2.7052 O   0  0  0  0  0  0  0  0  0  0  0  0
  -19.4086  -20.4932   -4.7445 O   0  0  0  0  0  0  0  0  0  0  0  0
  -17.7644  -25.0343   -1.4267 C   0  0  0  0  0  0  0  0  0  0  0  0
  -21.7293  -22.6991   -4.4896 C   0  0  0  0  0  0  0  0  0  0  0  0
  -18.8308  -25.2660   -2.3456 O   0  0  0  0  0  0  0  0  0  0  0  0
  -20.5616  -22.4867   -3.6997 O   0  0  0  0  0  0  0  0  0  0  0  0
  -17.2866  -23.5930   -1.5566 C   0  0  1  0  0  0  0  0  0  0  0  0
  -22.2898  -24.0876   -4.2088 C   0  0  1  0  0  0  0  0  0  0  0  0
  -15.9453  -23.4843   -1.0721 O   0  0  0  0  0  0  0  0  0  0  0  0
  -23.0816  -24.5215   -5.3173 O   0  0  0  0  0  0  0  0  0  0  0  0
  -17.2958  -23.1381   -3.0062 C   0  0  1  0  0  0  0  0  0  0  0  0
  -21.1756  -25.1025   -4.0084 C   0  0  1  0  0  0  0  0  0  0  0  0
  -18.1532  -22.0111   -3.1593 O   0  0  0  0  0  0  0  0  0  0  0  0
  -21.2791  -25.6926   -2.7161 O   0  0  0  0  0  0  0  0  0  0  0  0
  -15.8673  -22.7544   -3.3450 C   0  0  0  0  0  0  0  0  0  0  0  0
  -21.3602  -26.1602   -5.0794 C   0  0  0  0  0  0  0  0  0  0  0  0
  -15.0562  -22.9976   -2.0810 C   0  0  2  0  0  0  0  0  0  0  0  0
  -22.5827  -25.7369   -5.8813 C   0  0  2  0  0  0  0  0  0  0  0  0
  -14.0055  -28.0062   -3.2594 N   0  0  0  0  0  0  0  0  0  0  0  0
  -15.1864  -27.3873   -3.0760 C   0  0  0  0  0  0  0  0  0  0  0  0
  -15.3070  -26.0814   -2.7737 N   0  0  0  0  0  0  0  0  0  0  0  0
  -14.2121  -25.2960   -2.6345 C   0  0  0  0  0  0  0  0  0  0  0  0
  -12.8833  -25.8998   -2.8202 C   0  0  0  0  0  0  0  0  0  0  0  0
  -12.8321  -27.3438   -3.1507 C   0  0  0  0  0  0  0  0  0  0  0  0
  -11.6496  -27.9778   -3.3385 N   0  0  0  0  0  0  0  0  0  0  0  0
  -11.9845  -24.9160   -2.6287 N   0  0  0  0  0  0  0  0  0  0  0  0
  -12.6754  -23.7822   -2.3452 C   0  0  0  0  0  0  0  0  0  0  0  0
  -14.0032  -24.0085   -2.3489 N   0  0  0  0  0  0  0  0  0  0  0  0
  -21.6553  -22.1956   -9.6458 N   0  0  0  0  0  0  0  0  0  0  0  0
  -22.0162  -22.0216   -8.3608 C   0  0  0  0  0  0  0  0  0  0  0  0
  -22.2222  -23.0335   -7.4987 N   0  0  0  0  0  0  0  0  0  0  0  0
  -22.0721  -24.3216   -7.8916 C   0  0  0  0  0  0  0  0  0  0  0  0
  -21.6785  -24.5937   -9.2826 C   0  0  0  0  0  0  0  0  0  0  0  0
  -21.4701  -23.4259  -10.1708 C   0  0  0  0  0  0  0  0  0  0  0  0
  -21.1058  -23.5880  -11.4666 N   0  0  0  0  0  0  0  0  0  0  0  0
  -21.6009  -25.9324   -9.4046 N   0  0  0  0  0  0  0  0  0  0  0  0
  -21.9174  -26.4697   -8.1984 C   0  0  0  0  0  0  0  0  0  0  0  0
  -22.1982  -25.5105   -7.2972 N   0  0  0  0  0  0  0  0  0  0  0  0
  1  3  1  1  0  0  0
  1  5  2  0  0  0  0
  1  9  1  0  0  0  0
  1 18  1  0  0  0  0
  2  4  1  6  0  0  0
  2  6  2  0  0  0  0
  2 10  1  0  0  0  0
  2 17  1  0  0  0  0
  7  9  1  0  0  0  0
  8 10  1  0  0  0  0
 11  7  1  6  0  0  0
 11 13  1  0  0  0  0
 11 15  1  0  0  0  0
 12  8  1  6  0  0  0
 12 14  1  0  0  0  0
 12 16  1  0  0  0  0
 13 21  1  0  0  0  0
 14 22  1  0  0  0  0
 15 17  1  1  0  0  0
 15 19  1  0  0  0  0
 16 18  1  1  0  0  0
 16 20  1  0  0  0  0
 19 21  1  0  0  0  0
 20 22  1  0  0  0  0
 21 32  1  6  0  0  0
 22 42  1  6  0  0  0
 23 24  2  0  0  0  0
 23 28  1  0  0  0  0
 24 25  1  0  0  0  0
 25 26  2  0  0  0  0
 26 27  1  0  0  0  0
 26 32  1  0  0  0  0
 27 28  2  0  0  0  0
 27 30  1  0  0  0  0
 28 29  1  0  0  0  0
 30 31  2  0  0  0  0
 31 32  1  0  0  0  0
 33 34  2  0  0  0  0
 33 38  1  0  0  0  0
 34 35  1  0  0  0  0
 35 36  2  0  0  0  0
 36 37  1  0  0  0  0
 36 42  1  0  0  0  0
 37 38  2  0  0  0  0
 37 40  1  0  0  0  0
 38 39  1  0  0  0  0
 40 41  2  0  0  0  0
 41 42  1  0  0  0  0
M  CHG  2   3  -1   4  -1
M  END
>  <CHROM.1>
51.91997301,12.54727241,-18.68639891,-24.52549463,-4.39288319,0.62446498
0.03227408,1.89042982

>  <Name>
ligand

>  <RI>
0

>  <Rbt.Current_Directory>
/home/itssahil/PROJECTS/Mol_Feturizer/New_Systems/rnas/4QLN

>  <Rbt.Executable>
rbdock ($Id: //depot/dev/client3/rdock/2013.1/src/exe/rbdock.cxx#4 $)

>  <Rbt.Library>
libRbt.so (2013.1, Build901 2013/11/27)

>  <Rbt.Parameter_File>
/export/apps/rDock/src/rDock_2013.1_src/data/scripts/dock_solv.prm

>  <Rbt.Receptor>
prm/blind_docking_40.prm

>  <SCORE>
15.4046

>  <SCORE.INTER>
7.47872

>  <SCORE.INTER.CONST>
1

>  <SCORE.INTER.POLAR>
0

>  <SCORE.INTER.ROT>
2

>  <SCORE.INTER.SOLV>
32.6055

>  <SCORE.INTER.VDW>
-10.816

>  <SCORE.INTER.norm>
0.178065

>  <SCORE.INTRA>
-0.511775

>  <SCORE.INTRA.DIHEDRAL>
-0.000417232

>  <SCORE.INTRA.DIHEDRAL.0>
2.39985

>  <SCORE.INTRA.POLAR>
0

>  <SCORE.INTRA.POLAR.0>
0

>  <SCORE.INTRA.REPUL>
0

>  <SCORE.INTRA.REPUL.0>
0

>  <SCORE.INTRA.SOLV>
0.0221201

>  <SCORE.INTRA.SOLV.lig_0>
-110.958

>  <SCORE.INTRA.VDW>
-0.522627

>  <SCORE.INTRA.VDW.0>
-2.34644

>  <SCORE.INTRA.norm>
-0.0121851

>  <SCORE.RESTR>
8.43764

>  <SCORE.RESTR.CAVITY>
8.43764

>  <SCORE.RESTR.norm>
0.200896

>  <SCORE.SYSTEM>
0

>  <SCORE.SYSTEM.CONST>
0

>  <SCORE.SYSTEM.DIHEDRAL>
0

>  <SCORE.SYSTEM.SOLV>
0

>  <SCORE.SYSTEM.norm>
0

>  <SCORE.heavy>
42

>  <SCORE.norm>
0.366776

>  <RMSD>
28.771

$$$$
ligand
 OpenBabel11021811513D
libRbt.so/2013.1/901 2013/11/27
 42 48  0  0  0  0  0  0  0  0999 V2000
  -19.9949  -26.3690   -2.0054 P   0  0  2  0  0  0  0  0  0  0  0  0
  -19.1989  -21.9695   -4.3561 P   0  0  1  0  0  0  0  0  0  0  0  0
  -20.2235  -26.3637   -0.5118 O   0  5  0  0  0  0  0  0  0  0  0  0
  -18.7692  -22.9576   -5.4141 O   0  5  0  0  0  0  0  0  0  0  0  0
  -19.6671  -27.6623   -2.7124 O   0  0  0  0  0  0  0  0  0  0  0  0
  -19.3969  -20.5169   -4.7168 O   0  0  0  0  0  0  0  0  0  0  0  0
  -17.7693  -25.0797   -1.4208 C   0  0  0  0  0  0  0  0  0  0  0  0
  -21.7253  -22.7160   -4.4733 C   0  0  0  0  0  0  0  0  0  0  0  0
  -18.8362  -25.3033   -2.3410 O   0  0  0  0  0  0  0  0  0  0  0  0
  -20.5571  -22.5115   -3.6821 O   0  0  0  0  0  0  0  0  0  0  0  0
  -17.2865  -23.6394   -1.5434 C   0  0  1  0  0  0  0  0  0  0  0  0
  -22.2906  -24.1040   -4.1995 C   0  0  1  0  0  0  0  0  0  0  0  0
  -15.9451  -23.5377   -1.0580 O   0  0  0  0  0  0  0  0  0  0  0  0
  -23.0835  -24.5297   -5.3104 O   0  0  0  0  0  0  0  0  0  0  0  0
  -17.2937  -23.1774   -2.9909 C   0  0  1  0  0  0  0  0  0  0  0  0
  -21.1799  -25.1236   -4.0038 C   0  0  1  0  0  0  0  0  0  0  0  0
  -18.1472  -22.0467   -3.1387 O   0  0  0  0  0  0  0  0  0  0  0  0
  -21.2859  -25.7197   -2.7143 O   0  0  0  0  0  0  0  0  0  0  0  0
  -15.8638  -22.7970   -3.3273 C   0  0  0  0  0  0  0  0  0  0  0  0
  -21.3678  -26.1754   -5.0799 C   0  0  0  0  0  0  0  0  0  0  0  0
  -15.0539  -23.0492   -2.0643 C   0  0  2  0  0  0  0  0  0  0  0  0
  -22.5886  -25.7440   -5.8801 C   0  0  2  0  0  0  0  0  0  0  0  0
  -14.0193  -28.0601   -3.2467 N   0  0  0  0  0  0  0  0  0  0  0  0
  -15.1980  -27.4386   -3.0580 C   0  0  0  0  0  0  0  0  0  0  0  0
  -15.3145  -26.1325   -2.7554 N   0  0  0  0  0  0  0  0  0  0  0  0
  -14.2173  -25.3495   -2.6213 C   0  0  0  0  0  0  0  0  0  0  0  0
  -12.8906  -25.9560   -2.8129 C   0  0  0  0  0  0  0  0  0  0  0  0
  -12.8440  -27.4002   -3.1434 C   0  0  0  0  0  0  0  0  0  0  0  0
  -11.6637  -28.0368   -3.3365 N   0  0  0  0  0  0  0  0  0  0  0  0
  -11.9889  -24.9741   -2.6256 N   0  0  0  0  0  0  0  0  0  0  0  0
  -12.6761  -23.8388   -2.3391 C   0  0  0  0  0  0  0  0  0  0  0  0
  -14.0043  -24.0623   -2.3368 N   0  0  0  0  0  0  0  0  0  0  0  0
  -21.6573  -22.1879   -9.6296 N   0  0  0  0  0  0  0  0  0  0  0  0
  -22.0192  -22.0190   -8.3443 C   0  0  0  0  0  0  0  0  0  0  0  0
  -22.2261  -23.0343   -7.4864 N   0  0  0  0  0  0  0  0  0  0  0  0
  -22.0761  -24.3208   -7.8842 C   0  0  0  0  0  0  0  0  0  0  0  0
  -21.6814  -24.5875   -9.2761 C   0  0  0  0  0  0  0  0  0  0  0  0
  -21.4719  -23.4162  -10.1594 C   0  0  0  0  0  0  0  0  0  0  0  0
  -21.1067  -23.5732  -11.4556 N   0  0  0  0  0  0  0  0  0  0  0  0
  -21.6040  -25.9257   -9.4033 N   0  0  0  0  0  0  0  0  0  0  0  0
  -21.9216  -26.4678   -8.1995 C   0  0  0  0  0  0  0  0  0  0  0  0
  -22.2029  -25.5121   -7.2948 N   0  0  0  0  0  0  0  0  0  0  0  0
  1  3  1  1  0  0  0
  1  5  2  0  0  0  0
  1  9  1  0  0  0  0
  1 18  1  0  0  0  0
  2  4  1  6  0  0  0
  2  6  2  0  0  0  0
  2 10  1  0  0  0  0
  2 17  1  0  0  0  0
  7  9  1  0  0  0  0
  8 10  1  0  0  0  0
 11  7  1  6  0  0  0
 11 13  1  0  0  0  0
 11 15  1  0  0  0  0
 12  8  1  6  0  0  0
 12 14  1  0  0  0  0
 12 16  1  0  0  0  0
 13 21  1  0  0  0  0
 14 22  1  0  0  0  0
 15 17  1  1  0  0  0
 15 19  1  0  0  0  0
 16 18  1  1  0  0  0
 16 20  1  0  0  0  0
 19 21  1  0  0  0  0
 20 22  1  0  0  0  0
 21 32  1  6  0  0  0
 22 42  1  6  0  0  0
 23 24  2  0  0  0  0
 23 28  1  0  0  0  0
 24 25  1  0  0  0  0
 25 26  2  0  0  0  0
 26 27  1  0  0  0  0
 26 32  1  0  0  0  0
 27 28  2  0  0  0  0
 27 30  1  0  0  0  0
 28 29  1  0  0  0  0
 30 31  2  0  0  0  0
 31 32  1  0  0  0  0
 33 34  2  0  0  0  0
 33 38  1  0  0  0  0
 34 35  1  0  0  0  0
 35 36  2  0  0  0  0
 36 37  1  0  0  0  0
 36 42  1  0  0  0  0
 37 38  2  0  0  0  0
 37 40  1  0  0  0  0
 38 39  1  0  0  0  0
 40 41  2  0  0  0  0
 41 42  1  0  0  0  0
M  CHG  2   3  -1   4  -1
M  END
>  <CHROM.1>
51.51448769,12.35586992,-18.68936489,-24.55369272,-4.38322514,0.62619531
0.03230797,1.89998603

>  <Name>
ligand

>  <RI>
0

>  <Rbt.Current_Directory>
/home/itssahil/PROJECTS/Mol_Feturizer/New_Systems/rnas/4QLN

>  <Rbt.Executable>
rbdock ($Id: //depot/dev/client3/rdock/2013.1/src/exe/rbdock.cxx#4 $)

>  <Rbt.Library>
libRbt.so (2013.1, Build901 2013/11/27)

>  <Rbt.Parameter_File>
/export/apps/rDock/src/rDock_2013.1_src/data/scripts/dock_solv.prm

>  <Rbt.Receptor>
prm/blind_docking_40.prm

>  <SCORE>
14.5884

>  <SCORE.INTER>
6.44245

>  <SCORE.INTER.CONST>
1

>  <SCORE.INTER.POLAR>
0

>  <SCORE.INTER.ROT>
2

>  <SCORE.INTER.SOLV>
32.2298

>  <SCORE.INTER.VDW>
-11.3816

>  <SCORE.INTER.norm>
0.153392

>  <SCORE.INTRA>
-0.505728

>  <SCORE.INTRA.DIHEDRAL>
-0.000416274

>  <SCORE.INTRA.DIHEDRAL.0>
2.39985

>  <SCORE.INTRA.POLAR>
0

>  <SCORE.INTRA.POLAR.0>
0

>  <SCORE.INTRA.REPUL>
0

>  <SCORE.INTRA.REPUL.0>
0

>  <SCORE.INTRA.SOLV>
0.0202242

>  <SCORE.INTRA.SOLV.lig_0>
-110.958

>  <SCORE.INTRA.VDW>
-0.515632

>  <SCORE.INTRA.VDW.0>
-2.34644

>  <SCORE.INTRA.norm>
-0.0120412

>  <SCORE.RESTR>
8.65169

>  <SCORE.RESTR.CAVITY>
8.65169

>  <SCORE.RESTR.norm>
0.205993

>  <SCORE.SYSTEM>
0

>  <SCORE.SYSTEM.CONST>
0

>  <SCORE.SYSTEM.DIHEDRAL>
0

>  <SCORE.SYSTEM.SOLV>
0

>  <SCORE.SYSTEM.norm>
0

>  <SCORE.heavy>
42

>  <SCORE.norm>
0.347343

>  <RMSD>
28.771

$$$$
ligand
 OpenBabel11021811513D
libRbt.so/2013.1/901 2013/11/27
 42 48  0  0  0  0  0  0  0  0999 V2000
  -19.9826  -26.3332   -1.9834 P   0  0  2  0  0  0  0  0  0  0  0  0
  -19.2114  -21.9459   -4.3648 P   0  0  1  0  0  0  0  0  0  0  0  0
  -20.2050  -26.3194   -0.4890 O   0  5  0  0  0  0  0  0  0  0  0  0
  -18.7827  -22.9391   -5.4185 O   0  5  0  0  0  0  0  0  0  0  0  0
  -19.6534  -27.6298   -2.6837 O   0  0  0  0  0  0  0  0  0  0  0  0
  -19.4158  -20.4963   -4.7338 O   0  0  0  0  0  0  0  0  0  0  0  0
  -17.7590  -25.0328   -1.4162 C   0  0  0  0  0  0  0  0  0  0  0  0
  -21.7356  -22.7016   -4.4668 C   0  0  0  0  0  0  0  0  0  0  0  0
  -18.8289  -25.2658   -2.3305 O   0  0  0  0  0  0  0  0  0  0  0  0
  -20.5649  -22.4882   -3.6817 O   0  0  0  0  0  0  0  0  0  0  0  0
  -17.2816  -23.5917   -1.5499 C   0  0  1  0  0  0  0  0  0  0  0  0
  -22.2951  -24.0897   -4.1820 C   0  0  1  0  0  0  0  0  0  0  0  0
  -15.9385  -23.4825   -1.0707 O   0  0  0  0  0  0  0  0  0  0  0  0
  -23.0912  -24.5250   -5.2868 O   0  0  0  0  0  0  0  0  0  0  0  0
  -17.2964  -23.1389   -3.0001 C   0  0  1  0  0  0  0  0  0  0  0  0
  -21.1802  -25.1044   -3.9845 C   0  0  1  0  0  0  0  0  0  0  0  0
  -18.1543  -22.0120   -3.1514 O   0  0  0  0  0  0  0  0  0  0  0  0
  -21.2787  -25.6927   -2.6910 O   0  0  0  0  0  0  0  0  0  0  0  0
  -15.8692  -22.7558   -3.3449 C   0  0  0  0  0  0  0  0  0  0  0  0
  -21.3690  -26.1635   -5.0533 C   0  0  0  0  0  0  0  0  0  0  0  0
  -15.0532  -22.9973   -2.0837 C   0  0  2  0  0  0  0  0  0  0  0  0
  -22.5946  -25.7412   -5.8510 C   0  0  2  0  0  0  0  0  0  0  0  0
  -14.0078  -28.0057   -3.2676 N   0  0  0  0  0  0  0  0  0  0  0  0
  -15.1880  -27.3862   -3.0816 C   0  0  0  0  0  0  0  0  0  0  0  0
  -15.3072  -26.0805   -2.7782 N   0  0  0  0  0  0  0  0  0  0  0  0
  -14.2116  -25.2958   -2.6405 C   0  0  0  0  0  0  0  0  0  0  0  0
  -12.8835  -25.9002   -2.8291 C   0  0  0  0  0  0  0  0  0  0  0  0
  -12.8338  -27.3440   -3.1607 C   0  0  0  0  0  0  0  0  0  0  0  0
  -11.6520  -27.9787   -3.3511 N   0  0  0  0  0  0  0  0  0  0  0  0
  -11.9837  -24.9171   -2.6385 N   0  0  0  0  0  0  0  0  0  0  0  0
  -12.6734  -23.7831   -2.3529 C   0  0  0  0  0  0  0  0  0  0  0  0
  -14.0014  -24.0086   -2.3543 N   0  0  0  0  0  0  0  0  0  0  0  0
  -21.6507  -22.2044   -9.6156 N   0  0  0  0  0  0  0  0  0  0  0  0
  -22.0025  -22.0285   -8.3284 C   0  0  0  0  0  0  0  0  0  0  0  0
  -22.2145  -23.0394   -7.4666 N   0  0  0  0  0  0  0  0  0  0  0  0
  -22.0803  -24.3284   -7.8621 C   0  0  0  0  0  0  0  0  0  0  0  0
  -21.6973  -24.6027   -9.2557 C   0  0  0  0  0  0  0  0  0  0  0  0
  -21.4814  -23.4358  -10.1434 C   0  0  0  0  0  0  0  0  0  0  0  0
  -21.1261  -23.5999  -11.4414 N   0  0  0  0  0  0  0  0  0  0  0  0
  -21.6345  -25.9419   -9.3800 N   0  0  0  0  0  0  0  0  0  0  0  0
  -21.9500  -26.4777   -8.1728 C   0  0  0  0  0  0  0  0  0  0  0  0
  -22.2156  -25.5169   -7.2688 N   0  0  0  0  0  0  0  0  0  0  0  0
  1  3  1  1  0  0  0
  1  5  2  0  0  0  0
  1  9  1  0  0  0  0
  1 18  1  0  0  0  0
  2  4  1  6  0  0  0
  2  6  2  0  0  0  0
  2 10  1  0  0  0  0
  2 17  1  0  0  0  0
  7  9  1  0  0  0  0
  8 10  1  0  0  0  0
 11  7  1  6  0  0  0
 11 13  1  0  0  0  0
 11 15  1  0  0  0  0
 12  8  1  6  0  0  0
 12 14  1  0  0  0  0
 12 16  1  0  0  0  0
 13 21  1  0  0  0  0
 14 22  1  0  0  0  0
 15 17  1  1  0  0  0
 15 19  1  0  0  0  0
 16 18  1  1  0  0  0
 16 20  1  0  0  0  0
 19 21  1  0  0  0  0
 20 22  1  0  0  0  0
 21 32  1  6  0  0  0
 22 42  1  6  0  0  0
 23 24  2  0  0  0  0
 23 28  1  0  0  0  0
 24 25  1  0  0  0  0
 25 26  2  0  0  0  0
 26 27  1  0  0  0  0
 26 32  1  0  0  0  0
 27 28  2  0  0  0  0
 27 30  1  0  0  0  0
 28 29  1  0  0  0  0
 30 31  2  0  0  0  0
 31 32  1  0  0  0  0
 33 34  2  0  0  0  0
 33 38  1  0  0  0  0
 34 35  1  0  0  0  0
 35 36  2  0  0  0  0
 36 37  1  0  0  0  0
 36 42  1  0  0  0  0
 37 38  2  0  0  0  0
 37 40  1  0  0  0  0
 38 39  1  0  0  0  0
 40 41  2  0  0  0  0
 41 42  1  0  0  0  0
M  CHG  2   3  -1   4  -1
M  END
>  <CHROM.1>
52.08908344,13.17793457,-18.68996901,-24.52786599,-4.37941621,0.62056998
0.03075443,1.88861063

>  <Name>
ligand

>  <RI>
0

>  <Rbt.Current_Directory>
/home/itssahil/PROJECTS/Mol_Feturizer/New_Systems/rnas/4QLN

>  <Rbt.Executable>
rbdock ($Id: //depot/dev/client3/rdock/2013.1/src/exe/rbdock.cxx#4 $)

>  <Rbt.Library>
libRbt.so (2013.1, Build901 2013/11/27)

>  <Rbt.Parameter_File>
/export/apps/rDock/src/rDock_2013.1_src/data/scripts/dock_solv.prm

>  <Rbt.Receptor>
prm/blind_docking_40.prm

>  <SCORE>
15.4952

>  <SCORE.INTER>
7.62159

>  <SCORE.INTER.CONST>
1

>  <SCORE.INTER.POLAR>
0

>  <SCORE.INTER.ROT>
2

>  <SCORE.INTER.SOLV>
32.6334

>  <SCORE.INTER.VDW>
-10.7301

>  <SCORE.INTER.norm>
0.181467

>  <SCORE.INTRA>
-0.536572

>  <SCORE.INTRA.DIHEDRAL>
-0.000434547

>  <SCORE.INTRA.DIHEDRAL.0>
2.39985

>  <SCORE.INTRA.POLAR>
0

>  <SCORE.INTRA.POLAR.0>
0

>  <SCORE.INTRA.REPUL>
0

>  <SCORE.INTRA.REPUL.0>
0

>  <SCORE.INTRA.SOLV>
0.0294236

>  <SCORE.INTRA.SOLV.lig_0>
-110.958

>  <SCORE.INTRA.VDW>
-0.551067

>  <SCORE.INTRA.VDW.0>
-2.34644

>  <SCORE.INTRA.norm>
-0.0127755

>  <SCORE.RESTR>
8.41016

>  <SCORE.RESTR.CAVITY>
8.41016

>  <SCORE.RESTR.norm>
0.200242

>  <SCORE.SYSTEM>
0

>  <SCORE.SYSTEM.CONST>
0

>  <SCORE.SYSTEM.DIHEDRAL>
0

>  <SCORE.SYSTEM.SOLV>
0

>  <SCORE.SYSTEM.norm>
0

>  <SCORE.heavy>
42

>  <SCORE.norm>
0.368933

>  <RMSD>
28.778

$$$$
ligand
 OpenBabel11021811513D
libRbt.so/2013.1/901 2013/11/27
 42 48  0  0  0  0  0  0  0  0999 V2000
  -20.0212  -26.3535   -1.9470 P   0  0  2  0  0  0  0  0  0  0  0  0
  -19.2101  -21.9983   -4.3736 P   0  0  1  0  0  0  0  0  0  0  0  0
  -20.2333  -26.3233   -0.4513 O   0  5  0  0  0  0  0  0  0  0  0  0
  -18.8013  -23.0065   -5.4210 O   0  5  0  0  0  0  0  0  0  0  0  0
  -19.7133  -27.6606   -2.6375 O   0  0  0  0  0  0  0  0  0  0  0  0
  -19.3985  -20.5496   -4.7546 O   0  0  0  0  0  0  0  0  0  0  0  0
  -17.7774  -25.0767   -1.4065 C   0  0  0  0  0  0  0  0  0  0  0  0
  -21.7445  -22.7225   -4.4520 C   0  0  0  0  0  0  0  0  0  0  0  0
  -18.8564  -25.3041   -2.3116 O   0  0  0  0  0  0  0  0  0  0  0  0
  -20.5658  -22.5170   -3.6767 O   0  0  0  0  0  0  0  0  0  0  0  0
  -17.2825  -23.6431   -1.5566 C   0  0  1  0  0  0  0  0  0  0  0  0
  -22.3197  -24.1007   -4.1507 C   0  0  1  0  0  0  0  0  0  0  0  0
  -15.9349  -23.5467   -1.0873 O   0  0  0  0  0  0  0  0  0  0  0  0
  -23.1287  -24.5358   -5.2462 O   0  0  0  0  0  0  0  0  0  0  0  0
  -17.3014  -23.2033   -3.0108 C   0  0  1  0  0  0  0  0  0  0  0  0
  -21.2164  -25.1277   -3.9513 C   0  0  1  0  0  0  0  0  0  0  0  0
  -18.1459  -22.0669   -3.1667 O   0  0  0  0  0  0  0  0  0  0  0  0
  -21.3138  -25.7029   -2.6518 O   0  0  0  0  0  0  0  0  0  0  0  0
  -15.8718  -22.8417   -3.3685 C   0  0  0  0  0  0  0  0  0  0  0  0
  -21.4260  -26.1940   -5.0090 C   0  0  0  0  0  0  0  0  0  0  0  0
  -15.0504  -23.0821   -2.1106 C   0  0  2  0  0  0  0  0  0  0  0  0
  -22.6515  -25.7633   -5.8024 C   0  0  2  0  0  0  0  0  0  0  0  0
  -14.0775  -28.1112   -3.2683 N   0  0  0  0  0  0  0  0  0  0  0  0
  -15.2484  -27.4746   -3.0818 C   0  0  0  0  0  0  0  0  0  0  0  0
  -15.3488  -26.1656   -2.7858 N   0  0  0  0  0  0  0  0  0  0  0  0
  -14.2422  -25.3952   -2.6566 C   0  0  0  0  0  0  0  0  0  0  0  0
  -12.9230  -26.0187   -2.8463 C   0  0  0  0  0  0  0  0  0  0  0  0
  -12.8942  -27.4650   -3.1694 C   0  0  0  0  0  0  0  0  0  0  0  0
  -11.7219  -28.1168   -3.3602 N   0  0  0  0  0  0  0  0  0  0  0  0
  -12.0094  -25.0468   -2.6647 N   0  0  0  0  0  0  0  0  0  0  0  0
  -12.6825  -23.9018   -2.3835 C   0  0  0  0  0  0  0  0  0  0  0  0
  -14.0134  -24.1092   -2.3789 N   0  0  0  0  0  0  0  0  0  0  0  0
  -21.6559  -22.2731   -9.5971 N   0  0  0  0  0  0  0  0  0  0  0  0
  -21.9926  -22.0810   -8.3083 C   0  0  0  0  0  0  0  0  0  0  0  0
  -22.2212  -23.0813   -7.4383 N   0  0  0  0  0  0  0  0  0  0  0  0
  -22.1208  -24.3755   -7.8267 C   0  0  0  0  0  0  0  0  0  0  0  0
  -21.7561  -24.6674   -9.2216 C   0  0  0  0  0  0  0  0  0  0  0  0
  -21.5202  -23.5114  -10.1185 C   0  0  0  0  0  0  0  0  0  0  0  0
  -21.1798  -23.6919  -11.4184 N   0  0  0  0  0  0  0  0  0  0  0  0
  -21.7261  -26.0085   -9.3379 N   0  0  0  0  0  0  0  0  0  0  0  0
  -22.0439  -26.5291   -8.1247 C   0  0  0  0  0  0  0  0  0  0  0  0
  -22.2792  -25.5567   -7.2247 N   0  0  0  0  0  0  0  0  0  0  0  0
  1  3  1  1  0  0  0
  1  5  2  0  0  0  0
  1  9  1  0  0  0  0
  1 18  1  0  0  0  0
  2  4  1  6  0  0  0
  2  6  2  0  0  0  0
  2 10  1  0  0  0  0
  2 17  1  0  0  0  0
  7  9  1  0  0  0  0
  8 10  1  0  0  0  0
 11  7  1  6  0  0  0
 11 13  1  0  0  0  0
 11 15  1  0  0  0  0
 12  8  1  6  0  0  0
 12 14  1  0  0  0  0
 12 16  1  0  0  0  0
 13 21  1  0  0  0  0
 14 22  1  0  0  0  0
 15 17  1  1  0  0  0
 15 19  1  0  0  0  0
 16 18  1  1  0  0  0
 16 20  1  0  0  0  0
 19 21  1  0  0  0  0
 20 22  1  0  0  0  0
 21 32  1  6  0  0  0
 22 42  1  6  0  0  0
 23 24  2  0  0  0  0
 23 28  1  0  0  0  0
 24 25  1  0  0  0  0
 25 26  2  0  0  0  0
 26 27  1  0  0  0  0
 26 32  1  0  0  0  0
 27 28  2  0  0  0  0
 27 30  1  0  0  0  0
 28 29  1  0  0  0  0
 30 31  2  0  0  0  0
 31 32  1  0  0  0  0
 33 34  2  0  0  0  0
 33 38  1  0  0  0  0
 34 35  1  0  0  0  0
 35 36  2  0  0  0  0
 36 37  1  0  0  0  0
 36 42  1  0  0  0  0
 37 38  2  0  0  0  0
 37 40  1  0  0  0  0
 38 39  1  0  0  0  0
 40 41  2  0  0  0  0
 41 42  1  0  0  0  0
M  CHG  2   3  -1   4  -1
M  END
>  <CHROM.1>
52.34980574,13.82926792,-18.71921560,-24.58652213,-4.36836540,0.61781026
0.01549727,1.87774832

>  <Name>
ligand

>  <RI>
0

>  <Rbt.Current_Directory>
/home/itssahil/PROJECTS/Mol_Feturizer/New_Systems/rnas/4QLN

>  <Rbt.Executable>
rbdock ($Id: //depot/dev/client3/rdock/2013.1/src/exe/rbdock.cxx#4 $)

>  <Rbt.Library>
libRbt.so (2013.1, Build901 2013/11/27)

>  <Rbt.Parameter_File>
/export/apps/rDock/src/rDock_2013.1_src/data/scripts/dock_solv.prm

>  <Rbt.Receptor>
prm/blind_docking_40.prm

>  <SCORE>
14.3759

>  <SCORE.INTER>
6.20651

>  <SCORE.INTER.CONST>
1

>  <SCORE.INTER.POLAR>
0

>  <SCORE.INTER.ROT>
2

>  <SCORE.INTER.SOLV>
32.1748

>  <SCORE.INTER.VDW>
-11.5206

>  <SCORE.INTER.norm>
0.147774

>  <SCORE.INTRA>
-0.54526

>  <SCORE.INTRA.DIHEDRAL>
-0.000450789

>  <SCORE.INTRA.DIHEDRAL.0>
2.39985

>  <SCORE.INTRA.POLAR>
0

>  <SCORE.INTRA.POLAR.0>
0

>  <SCORE.INTRA.REPUL>
0

>  <SCORE.INTRA.REPUL.0>
0

>  <SCORE.INTRA.SOLV>
0.036849

>  <SCORE.INTRA.SOLV.lig_0>
-110.958

>  <SCORE.INTRA.VDW>
-0.563459

>  <SCORE.INTRA.VDW.0>
-2.34644

>  <SCORE.INTRA.norm>
-0.0129824

>  <SCORE.RESTR>
8.71468

>  <SCORE.RESTR.CAVITY>
8.71468

>  <SCORE.RESTR.norm>
0.207492

>  <SCORE.SYSTEM>
0

>  <SCORE.SYSTEM.CONST>
0

>  <SCORE.SYSTEM.DIHEDRAL>
0

>  <SCORE.SYSTEM.SOLV>
0

>  <SCORE.SYSTEM.norm>
0

>  <SCORE.heavy>
42

>  <SCORE.norm>
0.342284

>  <RMSD>
28.794

$$$$
ligand
 OpenBabel11021811513D
libRbt.so/2013.1/901 2013/11/27
 42 48  0  0  0  0  0  0  0  0999 V2000
  -20.9026  -23.6053   -2.6030 P   0  0  2  0  0  0  0  0  0  0  0  0
  -17.8634  -26.1680   -5.7191 P   0  0  1  0  0  0  0  0  0  0  0  0
  -22.1099  -24.3069   -2.0259 O   0  5  0  0  0  0  0  0  0  0  0  0
  -17.4063  -24.7480   -5.9540 O   0  5  0  0  0  0  0  0  0  0  0  0
  -20.8014  -22.1004   -2.5330 O   0  0  0  0  0  0  0  0  0  0  0  0
  -17.0397  -27.3212   -6.2398 O   0  0  0  0  0  0  0  0  0  0  0  0
  -21.9043  -24.3276   -4.9336 C   0  0  0  0  0  0  0  0  0  0  0  0
  -16.9882  -26.1960   -3.2318 C   0  0  0  0  0  0  0  0  0  0  0  0
  -20.7501  -24.0498   -4.1425 O   0  0  0  0  0  0  0  0  0  0  0  0
  -18.0758  -26.3740   -4.1364 O   0  0  0  0  0  0  0  0  0  0  0  0
  -21.5595  -25.3769   -5.9836 C   0  0  1  0  0  0  0  0  0  0  0  0
  -17.4164  -25.2791   -2.0929 C   0  0  1  0  0  0  0  0  0  0  0  0
  -22.4798  -25.2877   -7.0747 O   0  0  0  0  0  0  0  0  0  0  0  0
  -16.2646  -24.6688   -1.5059 O   0  0  0  0  0  0  0  0  0  0  0  0
  -20.1604  -25.1639   -6.5365 C   0  0  1  0  0  0  0  0  0  0  0  0
  -18.3274  -24.1685   -2.5913 C   0  0  1  0  0  0  0  0  0  0  0  0
  -19.3594  -26.3171   -6.2969 O   0  0  0  0  0  0  0  0  0  0  0  0
  -19.5844  -24.2316   -1.9240 O   0  0  0  0  0  0  0  0  0  0  0  0
  -20.3179  -24.9414   -8.0293 C   0  0  0  0  0  0  0  0  0  0  0  0
  -17.6302  -22.8620   -2.2646 C   0  0  0  0  0  0  0  0  0  0  0  0
  -21.8104  -25.0282   -8.3116 C   0  0  2  0  0  0  0  0  0  0  0  0
  -16.3252  -23.2423   -1.5798 C   0  0  2  0  0  0  0  0  0  0  0  0
  -22.5078  -19.8866   -7.5016 N   0  0  0  0  0  0  0  0  0  0  0  0
  -22.0006  -20.8321   -6.6891 C   0  0  0  0  0  0  0  0  0  0  0  0
  -21.8806  -22.1276   -7.0333 N   0  0  0  0  0  0  0  0  0  0  0  0
  -22.2755  -22.5621   -8.2540 C   0  0  0  0  0  0  0  0  0  0  0  0
  -22.8408  -21.5874   -9.2003 C   0  0  0  0  0  0  0  0  0  0  0  0
  -22.9412  -20.1794   -8.7481 C   0  0  0  0  0  0  0  0  0  0  0  0
  -23.4491  -19.2185   -9.5571 N   0  0  0  0  0  0  0  0  0  0  0  0
  -23.1463  -22.2712  -10.3190 N   0  0  0  0  0  0  0  0  0  0  0  0
  -22.8074  -23.5690  -10.1089 C   0  0  0  0  0  0  0  0  0  0  0  0
  -22.2881  -23.7425   -8.8782 N   0  0  0  0  0  0  0  0  0  0  0  0
  -14.2870  -22.5472   -6.3689 N   0  0  0  0  0  0  0  0  0  0  0  0
  -15.4590  -23.0937   -5.9957 C   0  0  0  0  0  0  0  0  0  0  0  0
  -15.8565  -23.2080   -4.7157 N   0  0  0  0  0  0  0  0  0  0  0  0
  -15.0729  -22.7646   -3.7032 C   0  0  0  0  0  0  0  0  0  0  0  0
  -13.7752  -22.1539   -4.0307 C   0  0  0  0  0  0  0  0  0  0  0  0
  -13.4089  -22.0640   -5.4639 C   0  0  0  0  0  0  0  0  0  0  0  0
  -12.2316  -21.5151   -5.8524 N   0  0  0  0  0  0  0  0  0  0  0  0
  -13.2087  -21.8054   -2.8600 N   0  0  0  0  0  0  0  0  0  0  0  0
  -14.0675  -22.1619   -1.8705 C   0  0  0  0  0  0  0  0  0  0  0  0
  -15.1777  -22.7333   -2.3725 N   0  0  0  0  0  0  0  0  0  0  0  0
  1  3  1  1  0  0  0
  1  5  2  0  0  0  0
  1  9  1  0  0  0  0
  1 18  1  0  0  0  0
  2  4  1  6  0  0  0
  2  6  2  0  0  0  0
  2 10  1  0  0  0  0
  2 17  1  0  0  0  0
  7  9  1  0  0  0  0
  8 10  1  0  0  0  0
 11  7  1  1  0  0  0
 11 13  1  0  0  0  0
 11 15  1  0  0  0  0
 12  8  1  6  0  0  0
 12 14  1  0  0  0  0
 12 16  1  0  0  0  0
 13 21  1  0  0  0  0
 14 22  1  0  0  0  0
 15 17  1  6  0  0  0
 15 19  1  0  0  0  0
 16 18  1  1  0  0  0
 16 20  1  0  0  0  0
 19 21  1  0  0  0  0
 20 22  1  0  0  0  0
 21 32  1  1  0  0  0
 22 42  1  6  0  0  0
 23 24  2  0  0  0  0
 23 28  1  0  0  0  0
 24 25  1  0  0  0  0
 25 26  2  0  0  0  0
 26 27  1  0  0  0  0
 26 32  1  0  0  0  0
 27 28  2  0  0  0  0
 27 30  1  0  0  0  0
 28 29  1  0  0  0  0
 30 31  2  0  0  0  0
 31 32  1  0  0  0  0
 33 34  2  0  0  0  0
 33 38  1  0  0  0  0
 34 35  1  0  0  0  0
 35 36  2  0  0  0  0
 36 37  1  0  0  0  0
 36 42  1  0  0  0  0
 37 38  2  0  0  0  0
 37 40  1  0  0  0  0
 38 39  1  0  0  0  0
 40 41  2  0  0  0  0
 41 42  1  0  0  0  0
M  CHG  2   3  -1   4  -1
M  END
>  <CHROM.1>
55.18230745,76.96978065,-18.95202845,-23.62933184,-5.23264093,2.60175767
-0.23334527,-1.03473538

>  <Name>
ligand

>  <RI>
0

>  <Rbt.Current_Directory>
/home/itssahil/PROJECTS/Mol_Feturizer/New_Systems/rnas/4QLN

>  <Rbt.Executable>
rbdock ($Id: //depot/dev/client3/rdock/2013.1/src/exe/rbdock.cxx#4 $)

>  <Rbt.Library>
libRbt.so (2013.1, Build901 2013/11/27)

>  <Rbt.Parameter_File>
/export/apps/rDock/src/rDock_2013.1_src/data/scripts/dock_solv.prm

>  <Rbt.Receptor>
prm/blind_docking_40.prm

>  <SCORE>
26.3054

>  <SCORE.INTER>
17.2025

>  <SCORE.INTER.CONST>
1

>  <SCORE.INTER.POLAR>
0

>  <SCORE.INTER.ROT>
2

>  <SCORE.INTER.SOLV>
38.8095

>  <SCORE.INTER.VDW>
-6.40151

>  <SCORE.INTER.norm>
0.409583

>  <SCORE.INTRA>
1.17916

>  <SCORE.INTRA.DIHEDRAL>
0.000667817

>  <SCORE.INTRA.DIHEDRAL.0>
2.39985

>  <SCORE.INTRA.POLAR>
0

>  <SCORE.INTRA.POLAR.0>
0

>  <SCORE.INTRA.REPUL>
0

>  <SCORE.INTRA.REPUL.0>
0

>  <SCORE.INTRA.SOLV>
1.12231

>  <SCORE.INTRA.SOLV.lig_0>
-110.958

>  <SCORE.INTRA.VDW>
0.617674

>  <SCORE.INTRA.VDW.0>
-2.34644

>  <SCORE.INTRA.norm>
0.0280753

>  <SCORE.RESTR>
7.92374

>  <SCORE.RESTR.CAVITY>
7.92374

>  <SCORE.RESTR.norm>
0.18866

>  <SCORE.SYSTEM>
0

>  <SCORE.SYSTEM.CONST>
0

>  <SCORE.SYSTEM.DIHEDRAL>
0

>  <SCORE.SYSTEM.SOLV>
0

>  <SCORE.SYSTEM.norm>
0

>  <SCORE.heavy>
42

>  <SCORE.norm>
0.626319

>  <RMSD>
28.869

$$$$
ligand
 OpenBabel11021811513D
libRbt.so/2013.1/901 2013/11/27
 42 48  0  0  0  0  0  0  0  0999 V2000
  -20.9108  -23.6040   -2.6019 P   0  0  2  0  0  0  0  0  0  0  0  0
  -17.8623  -26.1688   -5.7071 P   0  0  1  0  0  0  0  0  0  0  0  0
  -22.1178  -24.3063   -2.0250 O   0  5  0  0  0  0  0  0  0  0  0  0
  -17.4073  -24.7486   -5.9447 O   0  5  0  0  0  0  0  0  0  0  0  0
  -20.8124  -22.0987   -2.5354 O   0  0  0  0  0  0  0  0  0  0  0  0
  -17.0357  -27.3217   -6.2237 O   0  0  0  0  0  0  0  0  0  0  0  0
  -21.9076  -24.3337   -4.9323 C   0  0  0  0  0  0  0  0  0  0  0  0
  -16.9909  -26.1892   -3.2184 C   0  0  0  0  0  0  0  0  0  0  0  0
  -20.7552  -24.0519   -4.1401 O   0  0  0  0  0  0  0  0  0  0  0  0
  -18.0767  -26.3713   -4.1242 O   0  0  0  0  0  0  0  0  0  0  0  0
  -21.5593  -25.3849   -5.9793 C   0  0  1  0  0  0  0  0  0  0  0  0
  -17.4225  -25.2704   -2.0824 C   0  0  1  0  0  0  0  0  0  0  0  0
  -22.4781  -25.2999   -7.0720 O   0  0  0  0  0  0  0  0  0  0  0  0
  -16.2727  -24.6566   -1.4951 O   0  0  0  0  0  0  0  0  0  0  0  0
  -20.1598  -25.1707   -6.5306 C   0  0  1  0  0  0  0  0  0  0  0  0
  -18.3347  -24.1626   -2.5849 C   0  0  1  0  0  0  0  0  0  0  0  0
  -19.3570  -26.3219   -6.2868 O   0  0  0  0  0  0  0  0  0  0  0  0
  -19.5925  -24.2263   -1.9194 O   0  0  0  0  0  0  0  0  0  0  0  0
  -20.3153  -24.9521   -8.0240 C   0  0  0  0  0  0  0  0  0  0  0  0
  -17.6403  -22.8541   -2.2602 C   0  0  0  0  0  0  0  0  0  0  0  0
  -21.8072  -25.0422   -8.3085 C   0  0  2  0  0  0  0  0  0  0  0  0
  -16.3356  -23.2304   -1.5725 C   0  0  2  0  0  0  0  0  0  0  0  0
  -22.5079  -19.8986   -7.5147 N   0  0  0  0  0  0  0  0  0  0  0  0
  -21.9994  -20.8410   -6.6996 C   0  0  0  0  0  0  0  0  0  0  0  0
  -21.8787  -22.1375   -7.0396 N   0  0  0  0  0  0  0  0  0  0  0  0
  -22.2742  -22.5763   -8.2586 C   0  0  0  0  0  0  0  0  0  0  0  0
  -22.8409  -21.6052   -9.2077 C   0  0  0  0  0  0  0  0  0  0  0  0
  -22.9420  -20.1958   -8.7600 C   0  0  0  0  0  0  0  0  0  0  0  0
  -23.4513  -19.2379   -9.5717 N   0  0  0  0  0  0  0  0  0  0  0  0
  -23.1467  -22.2929  -10.3239 N   0  0  0  0  0  0  0  0  0  0  0  0
  -22.8066  -23.5896  -10.1098 C   0  0  0  0  0  0  0  0  0  0  0  0
  -22.2863  -23.7587   -8.8789 N   0  0  0  0  0  0  0  0  0  0  0  0
  -14.2964  -22.5328   -6.3607 N   0  0  0  0  0  0  0  0  0  0  0  0
  -15.4686  -23.0791   -5.9882 C   0  0  0  0  0  0  0  0  0  0  0  0
  -15.8664  -23.1941   -4.7083 N   0  0  0  0  0  0  0  0  0  0  0  0
  -15.0828  -22.7517   -3.6953 C   0  0  0  0  0  0  0  0  0  0  0  0
  -13.7849  -22.1413   -4.0222 C   0  0  0  0  0  0  0  0  0  0  0  0
  -13.4182  -22.0504   -5.4552 C   0  0  0  0  0  0  0  0  0  0  0  0
  -12.2407  -21.5017   -5.8432 N   0  0  0  0  0  0  0  0  0  0  0  0
  -13.2184  -21.7937   -2.8512 N   0  0  0  0  0  0  0  0  0  0  0  0
  -14.0776  -22.1506   -1.8620 C   0  0  0  0  0  0  0  0  0  0  0  0
  -15.1879  -22.7213   -2.3646 N   0  0  0  0  0  0  0  0  0  0  0  0
  1  3  1  1  0  0  0
  1  5  2  0  0  0  0
  1  9  1  0  0  0  0
  1 18  1  0  0  0  0
  2  4  1  6  0  0  0
  2  6  2  0  0  0  0
  2 10  1  0  0  0  0
  2 17  1  0  0  0  0
  7  9  1  0  0  0  0
  8 10  1  0  0  0  0
 11  7  1  1  0  0  0
 11 13  1  0  0  0  0
 11 15  1  0  0  0  0
 12  8  1  6  0  0  0
 12 14  1  0  0  0  0
 12 16  1  0  0  0  0
 13 21  1  0  0  0  0
 14 22  1  0  0  0  0
 15 17  1  6  0  0  0
 15 19  1  0  0  0  0
 16 18  1  1  0  0  0
 16 20  1  0  0  0  0
 19 21  1  0  0  0  0
 20 22  1  0  0  0  0
 21 32  1  1  0  0  0
 22 42  1  6  0  0  0
 23 24  2  0  0  0  0
 23 28  1  0  0  0  0
 24 25  1  0  0  0  0
 25 26  2  0  0  0  0
 26 27  1  0  0  0  0
 26 32  1  0  0  0  0
 27 28  2  0  0  0  0
 27 30  1  0  0  0  0
 28 29  1  0  0  0  0
 30 31  2  0  0  0  0
 31 32  1  0  0  0  0
 33 34  2  0  0  0  0
 33 38  1  0  0  0  0
 34 35  1  0  0  0  0
 35 36  2  0  0  0  0
 36 37  1  0  0  0  0
 36 42  1  0  0  0  0
 37 38  2  0  0  0  0
 37 40  1  0  0  0  0
 38 39  1  0  0  0  0
 40 41  2  0  0  0  0
 41 42  1  0  0  0  0
M  CHG  2   3  -1   4  -1
M  END
>  <CHROM.1>
55.33427697,77.19846281,-18.95597823,-23.62990766,-5.22876064,2.60158006
-0.23744714,-1.03504028

>  <Name>
ligand

>  <RI>
0

>  <Rbt.Current_Directory>
/home/itssahil/PROJECTS/Mol_Feturizer/New_Systems/rnas/4QLN

>  <Rbt.Executable>
rbdock ($Id: //depot/dev/client3/rdock/2013.1/src/exe/rbdock.cxx#4 $)

>  <Rbt.Library>
libRbt.so (2013.1, Build901 2013/11/27)

>  <Rbt.Parameter_File>
/export/apps/rDock/src/rDock_2013.1_src/data/scripts/dock_solv.prm

>  <Rbt.Receptor>
prm/blind_docking_40.prm

>  <SCORE>
26.4088

>  <SCORE.INTER>
17.3497

>  <SCORE.INTER.CONST>
1

>  <SCORE.INTER.POLAR>
0

>  <SCORE.INTER.ROT>
2

>  <SCORE.INTER.SOLV>
38.6686

>  <SCORE.INTER.VDW>
-6.2564

>  <SCORE.INTER.norm>
0.413089

>  <SCORE.INTRA>
1.15758

>  <SCORE.INTRA.DIHEDRAL>
0.000675479

>  <SCORE.INTRA.DIHEDRAL.0>
2.39985

>  <SCORE.INTRA.POLAR>
0

>  <SCORE.INTRA.POLAR.0>
0

>  <SCORE.INTRA.REPUL>
0

>  <SCORE.INTRA.REPUL.0>
0

>  <SCORE.INTRA.SOLV>
1.11712

>  <SCORE.INTRA.SOLV.lig_0>
-110.958

>  <SCORE.INTRA.VDW>
0.598687

>  <SCORE.INTRA.VDW.0>
-2.34644

>  <SCORE.INTRA.norm>
0.0275615

>  <SCORE.RESTR>
7.90154

>  <SCORE.RESTR.CAVITY>
7.90154

>  <SCORE.RESTR.norm>
0.188132

>  <SCORE.SYSTEM>
0

>  <SCORE.SYSTEM.CONST>
0

>  <SCORE.SYSTEM.DIHEDRAL>
0

>  <SCORE.SYSTEM.SOLV>
0

>  <SCORE.SYSTEM.norm>
0

>  <SCORE.heavy>
42

>  <SCORE.norm>
0.628782

>  <RMSD>
28.873

$$$$
ligand
 OpenBabel11021811513D
libRbt.so/2013.1/901 2013/11/27
 42 48  0  0  0  0  0  0  0  0999 V2000
  -20.9119  -23.6043   -2.6096 P   0  0  2  0  0  0  0  0  0  0  0  0
  -17.8685  -26.1576   -5.7293 P   0  0  1  0  0  0  0  0  0  0  0  0
  -22.1192  -24.3080   -2.0351 O   0  5  0  0  0  0  0  0  0  0  0  0
  -17.4121  -24.7368   -5.9605 O   0  5  0  0  0  0  0  0  0  0  0  0
  -20.8118  -22.0994   -2.5360 O   0  0  0  0  0  0  0  0  0  0  0  0
  -17.0436  -27.3090   -6.2520 O   0  0  0  0  0  0  0  0  0  0  0  0
  -21.9112  -24.3217   -4.9427 C   0  0  0  0  0  0  0  0  0  0  0  0
  -16.9953  -26.1908   -3.2414 C   0  0  0  0  0  0  0  0  0  0  0  0
  -20.7579  -24.0451   -4.1500 O   0  0  0  0  0  0  0  0  0  0  0  0
  -18.0820  -26.3674   -4.1472 O   0  0  0  0  0  0  0  0  0  0  0  0
  -21.5649  -25.3684   -5.9949 C   0  0  1  0  0  0  0  0  0  0  0  0
  -17.4250  -25.2769   -2.1007 C   0  0  1  0  0  0  0  0  0  0  0  0
  -22.4844  -25.2772   -7.0866 O   0  0  0  0  0  0  0  0  0  0  0  0
  -16.2741  -24.6672   -1.5113 O   0  0  0  0  0  0  0  0  0  0  0  0
  -20.1655  -25.1531   -6.5462 C   0  0  1  0  0  0  0  0  0  0  0  0
  -18.3364  -24.1658   -2.5972 C   0  0  1  0  0  0  0  0  0  0  0  0
  -19.3639  -26.3063   -6.3086 O   0  0  0  0  0  0  0  0  0  0  0  0
  -19.5938  -24.2312   -1.9310 O   0  0  0  0  0  0  0  0  0  0  0  0
  -20.3220  -24.9272   -8.0385 C   0  0  0  0  0  0  0  0  0  0  0  0
  -17.6403  -22.8596   -2.2668 C   0  0  0  0  0  0  0  0  0  0  0  0
  -21.8142  -25.0143   -8.3223 C   0  0  2  0  0  0  0  0  0  0  0  0
  -16.3355  -23.2406   -1.5819 C   0  0  2  0  0  0  0  0  0  0  0  0
  -22.5061  -19.8733   -7.5045 N   0  0  0  0  0  0  0  0  0  0  0  0
  -21.9977  -20.8201   -6.6944 C   0  0  0  0  0  0  0  0  0  0  0  0
  -21.8794  -22.1152   -7.0404 N   0  0  0  0  0  0  0  0  0  0  0  0
  -22.2775  -22.5480   -8.2607 C   0  0  0  0  0  0  0  0  0  0  0  0
  -22.8442  -21.5718   -9.2045 C   0  0  0  0  0  0  0  0  0  0  0  0
  -22.9426  -20.1643   -8.7504 C   0  0  0  0  0  0  0  0  0  0  0  0
  -23.4517  -19.2021   -9.5570 N   0  0  0  0  0  0  0  0  0  0  0  0
  -23.1528  -22.2541  -10.3233 N   0  0  0  0  0  0  0  0  0  0  0  0
  -22.8143  -23.5523  -10.1155 C   0  0  0  0  0  0  0  0  0  0  0  0
  -22.2923  -23.7276   -8.8862 N   0  0  0  0  0  0  0  0  0  0  0  0
  -14.2931  -22.5347   -6.3676 N   0  0  0  0  0  0  0  0  0  0  0  0
  -15.4650  -23.0831   -5.9967 C   0  0  0  0  0  0  0  0  0  0  0  0
  -15.8637  -23.2001   -4.7173 N   0  0  0  0  0  0  0  0  0  0  0  0
  -15.0816  -22.7577   -3.7031 C   0  0  0  0  0  0  0  0  0  0  0  0
  -13.7842  -22.1451   -4.0282 C   0  0  0  0  0  0  0  0  0  0  0  0
  -13.4165  -22.0521   -5.4608 C   0  0  0  0  0  0  0  0  0  0  0  0
  -12.2394  -21.5013   -5.8471 N   0  0  0  0  0  0  0  0  0  0  0  0
  -13.2193  -21.7981   -2.8563 N   0  0  0  0  0  0  0  0  0  0  0  0
  -14.0788  -22.1573   -1.8683 C   0  0  0  0  0  0  0  0  0  0  0  0
  -15.1878  -22.7289   -2.3725 N   0  0  0  0  0  0  0  0  0  0  0  0
  1  3  1  1  0  0  0
  1  5  2  0  0  0  0
  1  9  1  0  0  0  0
  1 18  1  0  0  0  0
  2  4  1  6  0  0  0
  2  6  2  0  0  0  0
  2 10  1  0  0  0  0
  2 17  1  0  0  0  0
  7  9  1  0  0  0  0
  8 10  1  0  0  0  0
 11  7  1  1  0  0  0
 11 13  1  0  0  0  0
 11 15  1  0  0  0  0
 12  8  1  6  0  0  0
 12 14  1  0  0  0  0
 12 16  1  0  0  0  0
 13 21  1  0  0  0  0
 14 22  1  0  0  0  0
 15 17  1  6  0  0  0
 15 19  1  0  0  0  0
 16 18  1  1  0  0  0
 16 20  1  0  0  0  0
 19 21  1  0  0  0  0
 20 22  1  0  0  0  0
 21 32  1  1  0  0  0
 22 42  1  6  0  0  0
 23 24  2  0  0  0  0
 23 28  1  0  0  0  0
 24 25  1  0  0  0  0
 25 26  2  0  0  0  0
 26 27  1  0  0  0  0
 26 32  1  0  0  0  0
 27 28  2  0  0  0  0
 27 30  1  0  0  0  0
 28 29  1  0  0  0  0
 30 31  2  0  0  0  0
 31 32  1  0  0  0  0
 33 34  2  0  0  0  0
 33 38  1  0  0  0  0
 34 35  1  0  0  0  0
 35 36  2  0  0  0  0
 36 37  1  0  0  0  0
 36 42  1  0  0  0  0
 37 38  2  0  0  0  0
 37 40  1  0  0  0  0
 38 39  1  0  0  0  0
 40 41  2  0  0  0  0
 41 42  1  0  0  0  0
M  CHG  2   3  -1   4  -1
M  END
>  <CHROM.1>
55.38939663,76.92912965,-18.95837686,-23.62078369,-5.23805552,2.60130842
-0.23489636,-1.03182631

>  <Name>
ligand

>  <RI>
0

>  <Rbt.Current_Directory>
/home/itssahil/PROJECTS/Mol_Feturizer/New_Systems/rnas/4QLN

>  <Rbt.Executable>
rbdock ($Id: //depot/dev/client3/rdock/2013.1/src/exe/rbdock.cxx#4 $)

>  <Rbt.Library>
libRbt.so (2013.1, Build901 2013/11/27)

>  <Rbt.Parameter_File>
/export/apps/rDock/src/rDock_2013.1_src/data/scripts/dock_solv.prm

>  <Rbt.Receptor>
prm/blind_docking_40.prm

>  <SCORE>
26.0073

>  <SCORE.INTER>
16.8293

>  <SCORE.INTER.CONST>
1

>  <SCORE.INTER.POLAR>
0

>  <SCORE.INTER.ROT>
2

>  <SCORE.INTER.SOLV>
38.7708

>  <SCORE.INTER.VDW>
-6.63742

>  <SCORE.INTER.norm>
0.400697

>  <SCORE.INTRA>
1.18236

>  <SCORE.INTRA.DIHEDRAL>
0.000669556

>  <SCORE.INTRA.DIHEDRAL.0>
2.39985

>  <SCORE.INTRA.POLAR>
0

>  <SCORE.INTRA.POLAR.0>
0

>  <SCORE.INTRA.REPUL>
0

>  <SCORE.INTRA.REPUL.0>
0

>  <SCORE.INTRA.SOLV>
1.12301

>  <SCORE.INTRA.SOLV.lig_0>
-110.958

>  <SCORE.INTRA.VDW>
0.620516

>  <SCORE.INTRA.VDW.0>
-2.34644

>  <SCORE.INTRA.norm>
0.0281513

>  <SCORE.RESTR>
7.99565

>  <SCORE.RESTR.CAVITY>
7.99565

>  <SCORE.RESTR.norm>
0.190373

>  <SCORE.SYSTEM>
0

>  <SCORE.SYSTEM.CONST>
0

>  <SCORE.SYSTEM.DIHEDRAL>
0

>  <SCORE.SYSTEM.SOLV>
0

>  <SCORE.SYSTEM.norm>
0

>  <SCORE.heavy>
42

>  <SCORE.norm>
0.619221

>  <RMSD>
28.876

$$$$
ligand
 OpenBabel11021811513D
libRbt.so/2013.1/901 2013/11/27
 42 48  0  0  0  0  0  0  0  0999 V2000
  -20.9063  -23.5942   -2.6003 P   0  0  2  0  0  0  0  0  0  0  0  0
  -17.8718  -26.1578   -5.7202 P   0  0  1  0  0  0  0  0  0  0  0  0
  -22.1138  -24.2950   -2.0227 O   0  5  0  0  0  0  0  0  0  0  0  0
  -17.4136  -24.7381   -5.9547 O   0  5  0  0  0  0  0  0  0  0  0  0
  -20.8037  -22.0894   -2.5296 O   0  0  0  0  0  0  0  0  0  0  0  0
  -17.0495  -27.3114   -6.2422 O   0  0  0  0  0  0  0  0  0  0  0  0
  -21.9104  -24.3143   -4.9306 C   0  0  0  0  0  0  0  0  0  0  0  0
  -16.9948  -26.1880   -3.2336 C   0  0  0  0  0  0  0  0  0  0  0  0
  -20.7555  -24.0380   -4.1402 O   0  0  0  0  0  0  0  0  0  0  0  0
  -18.0831  -26.3645   -4.1374 O   0  0  0  0  0  0  0  0  0  0  0  0
  -21.5674  -25.3633   -5.9815 C   0  0  1  0  0  0  0  0  0  0  0  0
  -17.4212  -25.2713   -2.0939 C   0  0  1  0  0  0  0  0  0  0  0  0
  -22.4885  -25.2726   -7.0718 O   0  0  0  0  0  0  0  0  0  0  0  0
  -16.2684  -24.6624   -1.5074 O   0  0  0  0  0  0  0  0  0  0  0  0
  -20.1686  -25.1512   -6.5353 C   0  0  1  0  0  0  0  0  0  0  0  0
  -18.3316  -24.1597   -2.5909 C   0  0  1  0  0  0  0  0  0  0  0  0
  -19.3683  -26.3052   -6.2969 O   0  0  0  0  0  0  0  0  0  0  0  0
  -19.5881  -24.2220   -1.9227 O   0  0  0  0  0  0  0  0  0  0  0  0
  -20.3270  -24.9277   -8.0278 C   0  0  0  0  0  0  0  0  0  0  0  0
  -17.6331  -22.8540   -2.2640 C   0  0  0  0  0  0  0  0  0  0  0  0
  -21.8198  -25.0131   -8.3091 C   0  0  2  0  0  0  0  0  0  0  0  0
  -16.3278  -23.2358   -1.5805 C   0  0  2  0  0  0  0  0  0  0  0  0
  -22.5045  -19.8698   -7.4986 N   0  0  0  0  0  0  0  0  0  0  0  0
  -21.9965  -20.8160   -6.6874 C   0  0  0  0  0  0  0  0  0  0  0  0
  -21.8802  -22.1119   -7.0315 N   0  0  0  0  0  0  0  0  0  0  0  0
  -22.2799  -22.5460   -8.2508 C   0  0  0  0  0  0  0  0  0  0  0  0
  -22.8463  -21.5706   -9.1956 C   0  0  0  0  0  0  0  0  0  0  0  0
  -22.9424  -20.1622   -8.7436 C   0  0  0  0  0  0  0  0  0  0  0  0
  -23.4511  -19.2006   -9.5512 N   0  0  0  0  0  0  0  0  0  0  0  0
  -23.1567  -22.2542  -10.3131 N   0  0  0  0  0  0  0  0  0  0  0  0
  -22.8197  -23.5525  -10.1036 C   0  0  0  0  0  0  0  0  0  0  0  0
  -22.2968  -23.7266   -8.8745 N   0  0  0  0  0  0  0  0  0  0  0  0
  -14.2878  -22.5500   -6.3701 N   0  0  0  0  0  0  0  0  0  0  0  0
  -15.4593  -23.0969   -5.9963 C   0  0  0  0  0  0  0  0  0  0  0  0
  -15.8575  -23.2086   -4.7162 N   0  0  0  0  0  0  0  0  0  0  0  0
  -15.0749  -22.7618   -3.7043 C   0  0  0  0  0  0  0  0  0  0  0  0
  -13.7778  -22.1504   -4.0326 C   0  0  0  0  0  0  0  0  0  0  0  0
  -13.4107  -22.0635   -5.4658 C   0  0  0  0  0  0  0  0  0  0  0  0
  -12.2339  -21.5141   -5.8550 N   0  0  0  0  0  0  0  0  0  0  0  0
  -13.2123  -21.7983   -2.8625 N   0  0  0  0  0  0  0  0  0  0  0  0
  -14.0713  -22.1534   -1.8725 C   0  0  0  0  0  0  0  0  0  0  0  0
  -15.1805  -22.7274   -2.3737 N   0  0  0  0  0  0  0  0  0  0  0  0
  1  3  1  1  0  0  0
  1  5  2  0  0  0  0
  1  9  1  0  0  0  0
  1 18  1  0  0  0  0
  2  4  1  6  0  0  0
  2  6  2  0  0  0  0
  2 10  1  0  0  0  0
  2 17  1  0  0  0  0
  7  9  1  0  0  0  0
  8 10  1  0  0  0  0
 11  7  1  1  0  0  0
 11 13  1  0  0  0  0
 11 15  1  0  0  0  0
 12  8  1  6  0  0  0
 12 14  1  0  0  0  0
 12 16  1  0  0  0  0
 13 21  1  0  0  0  0
 14 22  1  0  0  0  0
 15 17  1  6  0  0  0
 15 19  1  0  0  0  0
 16 18  1  1  0  0  0
 16 20  1  0  0  0  0
 19 21  1  0  0  0  0
 20 22  1  0  0  0  0
 21 32  1  1  0  0  0
 22 42  1  6  0  0  0
 23 24  2  0  0  0  0
 23 28  1  0  0  0  0
 24 25  1  0  0  0  0
 25 26  2  0  0  0  0
 26 27  1  0  0  0  0
 26 32  1  0  0  0  0
 27 28  2  0  0  0  0
 27 30  1  0  0  0  0
 28 29  1  0  0  0  0
 30 31  2  0  0  0  0
 31 32  1  0  0  0  0
 33 34  2  0  0  0  0
 33 38  1  0  0  0  0
 34 35  1  0  0  0  0
 35 36  2  0  0  0  0
 36 37  1  0  0  0  0
 36 42  1  0  0  0  0
 37 38  2  0  0  0  0
 37 40  1  0  0  0  0
 38 39  1  0  0  0  0
 40 41  2  0  0  0  0
 41 42  1  0  0  0  0
M  CHG  2   3  -1   4  -1
M  END
>  <CHROM.1>
55.34439292,76.74750631,-18.95678875,-23.61916194,-5.23168612,2.60165225
-0.23162020,-1.03490150

>  <Name>
ligand

>  <RI>
0

>  <Rbt.Current_Directory>
/home/itssahil/PROJECTS/Mol_Feturizer/New_Systems/rnas/4QLN

>  <Rbt.Executable>
rbdock ($Id: //depot/dev/client3/rdock/2013.1/src/exe/rbdock.cxx#4 $)

>  <Rbt.Library>
libRbt.so (2013.1, Build901 2013/11/27)

>  <Rbt.Parameter_File>
/export/apps/rDock/src/rDock_2013.1_src/data/scripts/dock_solv.prm

>  <Rbt.Receptor>
prm/blind_docking_40.prm

>  <SCORE>
26.1308

>  <SCORE.INTER>
16.957

>  <SCORE.INTER.CONST>
1

>  <SCORE.INTER.POLAR>
0

>  <SCORE.INTER.ROT>
2

>  <SCORE.INTER.SOLV>
38.8541

>  <SCORE.INTER.VDW>
-6.58006

>  <SCORE.INTER.norm>
0.403738

>  <SCORE.INTRA>
1.19908

>  <SCORE.INTRA.DIHEDRAL>
0.000664404

>  <SCORE.INTRA.DIHEDRAL.0>
2.39985

>  <SCORE.INTRA.POLAR>
0

>  <SCORE.INTRA.POLAR.0>
0

>  <SCORE.INTRA.REPUL>
0

>  <SCORE.INTRA.REPUL.0>
0

>  <SCORE.INTRA.SOLV>
1.12699

>  <SCORE.INTRA.SOLV.lig_0>
-110.958

>  <SCORE.INTRA.VDW>
0.635248

>  <SCORE.INTRA.VDW.0>
-2.34644

>  <SCORE.INTRA.norm>
0.0285494

>  <SCORE.RESTR>
7.97476

>  <SCORE.RESTR.CAVITY>
7.97476

>  <SCORE.RESTR.norm>
0.189875

>  <SCORE.SYSTEM>
0

>  <SCORE.SYSTEM.CONST>
0

>  <SCORE.SYSTEM.DIHEDRAL>
0

>  <SCORE.SYSTEM.SOLV>
0

>  <SCORE.SYSTEM.norm>
0

>  <SCORE.heavy>
42

>  <SCORE.norm>
0.622162

>  <RMSD>
28.878

$$$$
ligand
 OpenBabel11021811513D
libRbt.so/2013.1/901 2013/11/27
 42 48  0  0  0  0  0  0  0  0999 V2000
  -20.9118  -23.5901   -2.5978 P   0  0  2  0  0  0  0  0  0  0  0  0
  -17.8755  -26.1699   -5.7025 P   0  0  1  0  0  0  0  0  0  0  0  0
  -22.1228  -24.2862   -2.0216 O   0  5  0  0  0  0  0  0  0  0  0  0
  -17.4129  -24.7520   -5.9394 O   0  5  0  0  0  0  0  0  0  0  0  0
  -20.8055  -22.0854   -2.5307 O   0  0  0  0  0  0  0  0  0  0  0  0
  -17.0548  -27.3270   -6.2192 O   0  0  0  0  0  0  0  0  0  0  0  0
  -21.9114  -24.3136   -4.9289 C   0  0  0  0  0  0  0  0  0  0  0  0
  -17.0054  -26.1959   -3.2134 C   0  0  0  0  0  0  0  0  0  0  0  0
  -20.7579  -24.0383   -4.1360 O   0  0  0  0  0  0  0  0  0  0  0  0
  -18.0917  -26.3719   -4.1198 O   0  0  0  0  0  0  0  0  0  0  0  0
  -21.5682  -25.3663   -5.9761 C   0  0  1  0  0  0  0  0  0  0  0  0
  -17.4326  -25.2751   -2.0773 C   0  0  1  0  0  0  0  0  0  0  0  0
  -22.4860  -25.2761   -7.0692 O   0  0  0  0  0  0  0  0  0  0  0  0
  -16.2798  -24.6677   -1.4892 O   0  0  0  0  0  0  0  0  0  0  0  0
  -20.1673  -25.1594   -6.5267 C   0  0  1  0  0  0  0  0  0  0  0  0
  -18.3387  -24.1624   -2.5798 C   0  0  1  0  0  0  0  0  0  0  0  0
  -19.3708  -26.3149   -6.2830 O   0  0  0  0  0  0  0  0  0  0  0  0
  -19.5972  -24.2196   -1.9149 O   0  0  0  0  0  0  0  0  0  0  0  0
  -20.3210  -24.9394   -8.0201 C   0  0  0  0  0  0  0  0  0  0  0  0
  -17.6376  -22.8577   -2.2543 C   0  0  0  0  0  0  0  0  0  0  0  0
  -21.8133  -25.0215   -8.3053 C   0  0  2  0  0  0  0  0  0  0  0  0
  -16.3352  -23.2412   -1.5662 C   0  0  2  0  0  0  0  0  0  0  0  0
  -22.5049  -19.8779   -7.5029 N   0  0  0  0  0  0  0  0  0  0  0  0
  -22.0041  -20.8238   -6.6870 C   0  0  0  0  0  0  0  0  0  0  0  0
  -21.8848  -22.1198   -7.0295 N   0  0  0  0  0  0  0  0  0  0  0  0
  -22.2738  -22.5544   -8.2521 C   0  0  0  0  0  0  0  0  0  0  0  0
  -22.8319  -21.5794   -9.2022 C   0  0  0  0  0  0  0  0  0  0  0  0
  -22.9320  -20.1709   -8.7517 C   0  0  0  0  0  0  0  0  0  0  0  0
  -23.4335  -19.2096   -9.5641 N   0  0  0  0  0  0  0  0  0  0  0  0
  -23.1326  -22.2634  -10.3221 N   0  0  0  0  0  0  0  0  0  0  0  0
  -22.7974  -23.5617  -10.1091 C   0  0  0  0  0  0  0  0  0  0  0  0
  -22.2853  -23.7353   -8.8755 N   0  0  0  0  0  0  0  0  0  0  0  0
  -14.2979  -22.5362   -6.3542 N   0  0  0  0  0  0  0  0  0  0  0  0
  -15.4743  -23.0742   -5.9825 C   0  0  0  0  0  0  0  0  0  0  0  0
  -15.8709  -23.1925   -4.7025 N   0  0  0  0  0  0  0  0  0  0  0  0
  -15.0818  -22.7622   -3.6886 C   0  0  0  0  0  0  0  0  0  0  0  0
  -13.7792  -22.1613   -4.0145 C   0  0  0  0  0  0  0  0  0  0  0  0
  -13.4141  -22.0662   -5.4477 C   0  0  0  0  0  0  0  0  0  0  0  0
  -12.2326  -21.5256   -5.8347 N   0  0  0  0  0  0  0  0  0  0  0  0
  -13.2078  -21.8249   -2.8427 N   0  0  0  0  0  0  0  0  0  0  0  0
  -14.0684  -22.1794   -1.8539 C   0  0  0  0  0  0  0  0  0  0  0  0
  -15.1844  -22.7378   -2.3576 N   0  0  0  0  0  0  0  0  0  0  0  0
  1  3  1  1  0  0  0
  1  5  2  0  0  0  0
  1  9  1  0  0  0  0
  1 18  1  0  0  0  0
  2  4  1  6  0  0  0
  2  6  2  0  0  0  0
  2 10  1  0  0  0  0
  2 17  1  0  0  0  0
  7  9  1  0  0  0  0
  8 10  1  0  0  0  0
 11  7  1  1  0  0  0
 11 13  1  0  0  0  0
 11 15  1  0  0  0  0
 12  8  1  6  0  0  0
 12 14  1  0  0  0  0
 12 16  1  0  0  0  0
 13 21  1  0  0  0  0
 14 22  1  0  0  0  0
 15 17  1  6  0  0  0
 15 19  1  0  0  0  0
 16 18  1  1  0  0  0
 16 20  1  0  0  0  0
 19 21  1  0  0  0  0
 20 22  1  0  0  0  0
 21 32  1  1  0  0  0
 22 42  1  6  0  0  0
 23 24  2  0  0  0  0
 23 28  1  0  0  0  0
 24 25  1  0  0  0  0
 25 26  2  0  0  0  0
 26 27  1  0  0  0  0
 26 32  1  0  0  0  0
 27 28  2  0  0  0  0
 27 30  1  0  0  0  0
 28 29  1  0  0  0  0
 30 31  2  0  0  0  0
 31 32  1  0  0  0  0
 33 34  2  0  0  0  0
 33 38  1  0  0  0  0
 34 35  1  0  0  0  0
 35 36  2  0  0  0  0
 36 37  1  0  0  0  0
 36 42  1  0  0  0  0
 37 38  2  0  0  0  0
 37 40  1  0  0  0  0
 38 39  1  0  0  0  0
 40 41  2  0  0  0  0
 41 42  1  0  0  0  0
M  CHG  2   3  -1   4  -1
M  END
>  <CHROM.1>
54.94954365,77.55836175,-18.95807626,-23.62436876,-5.22324704,2.59895052
-0.23359982,-1.03467023

>  <Name>
ligand

>  <RI>
0

>  <Rbt.Current_Directory>
/home/itssahil/PROJECTS/Mol_Feturizer/New_Systems/rnas/4QLN

>  <Rbt.Executable>
rbdock ($Id: //depot/dev/client3/rdock/2013.1/src/exe/rbdock.cxx#4 $)

>  <Rbt.Library>
libRbt.so (2013.1, Build901 2013/11/27)

>  <Rbt.Parameter_File>
/export/apps/rDock/src/rDock_2013.1_src/data/scripts/dock_solv.prm

>  <Rbt.Receptor>
prm/blind_docking_40.prm

>  <SCORE>
26.3962

>  <SCORE.INTER>
17.3451

>  <SCORE.INTER.CONST>
1

>  <SCORE.INTER.POLAR>
0

>  <SCORE.INTER.ROT>
2

>  <SCORE.INTER.SOLV>
38.7752

>  <SCORE.INTER.VDW>
-6.29502

>  <SCORE.INTER.norm>
0.412978

>  <SCORE.INTRA>
1.14359

>  <SCORE.INTRA.DIHEDRAL>
0.000679089

>  <SCORE.INTRA.DIHEDRAL.0>
2.39985

>  <SCORE.INTRA.POLAR>
0

>  <SCORE.INTRA.POLAR.0>
0

>  <SCORE.INTRA.REPUL>
0

>  <SCORE.INTRA.REPUL.0>
0

>  <SCORE.INTRA.SOLV>
1.10929

>  <SCORE.INTRA.SOLV.lig_0>
-110.958

>  <SCORE.INTRA.VDW>
0.588601

>  <SCORE.INTRA.VDW.0>
-2.34644

>  <SCORE.INTRA.norm>
0.0272282

>  <SCORE.RESTR>
7.90752

>  <SCORE.RESTR.CAVITY>
7.90752

>  <SCORE.RESTR.norm>
0.188274

>  <SCORE.SYSTEM>
0

>  <SCORE.SYSTEM.CONST>
0

>  <SCORE.SYSTEM.DIHEDRAL>
0

>  <SCORE.SYSTEM.SOLV>
0

>  <SCORE.SYSTEM.norm>
0

>  <SCORE.heavy>
42

>  <SCORE.norm>
0.62848

>  <RMSD>
28.880

$$$$
ligand
 OpenBabel11021811513D
libRbt.so/2013.1/901 2013/11/27
 42 48  0  0  0  0  0  0  0  0999 V2000
  -20.9240  -23.5823   -2.6112 P   0  0  2  0  0  0  0  0  0  0  0  0
  -17.8800  -26.1723   -5.6999 P   0  0  1  0  0  0  0  0  0  0  0  0
  -22.1359  -24.2767   -2.0351 O   0  5  0  0  0  0  0  0  0  0  0  0
  -17.4174  -24.7552   -5.9410 O   0  5  0  0  0  0  0  0  0  0  0  0
  -20.8183  -22.0773   -2.5495 O   0  0  0  0  0  0  0  0  0  0  0  0
  -17.0577  -27.3310   -6.2105 O   0  0  0  0  0  0  0  0  0  0  0  0
  -21.9183  -24.3148   -4.9418 C   0  0  0  0  0  0  0  0  0  0  0  0
  -17.0152  -26.1887   -3.2088 C   0  0  0  0  0  0  0  0  0  0  0  0
  -20.7666  -24.0361   -4.1475 O   0  0  0  0  0  0  0  0  0  0  0  0
  -18.0995  -26.3685   -4.1169 O   0  0  0  0  0  0  0  0  0  0  0  0
  -21.5724  -25.3713   -5.9843 C   0  0  1  0  0  0  0  0  0  0  0  0
  -17.4452  -25.2640   -2.0771 C   0  0  1  0  0  0  0  0  0  0  0  0
  -22.4879  -25.2855   -7.0797 O   0  0  0  0  0  0  0  0  0  0  0  0
  -16.2939  -24.6539   -1.4887 O   0  0  0  0  0  0  0  0  0  0  0  0
  -20.1704  -25.1658   -6.5326 C   0  0  1  0  0  0  0  0  0  0  0  0
  -18.3507  -24.1534   -2.5856 C   0  0  1  0  0  0  0  0  0  0  0  0
  -19.3740  -26.3200   -6.2830 O   0  0  0  0  0  0  0  0  0  0  0  0
  -19.6106  -24.2087   -1.9232 O   0  0  0  0  0  0  0  0  0  0  0  0
  -20.3210  -24.9514   -8.0272 C   0  0  0  0  0  0  0  0  0  0  0  0
  -17.6507  -22.8473   -2.2634 C   0  0  0  0  0  0  0  0  0  0  0  0
  -21.8126  -25.0352   -8.3153 C   0  0  2  0  0  0  0  0  0  0  0  0
  -16.3497  -23.2276   -1.5711 C   0  0  2  0  0  0  0  0  0  0  0  0
  -22.5238  -19.8921   -7.5275 N   0  0  0  0  0  0  0  0  0  0  0  0
  -22.0264  -20.8351   -6.7062 C   0  0  0  0  0  0  0  0  0  0  0  0
  -21.9012  -22.1314   -7.0455 N   0  0  0  0  0  0  0  0  0  0  0  0
  -22.2801  -22.5692   -8.2700 C   0  0  0  0  0  0  0  0  0  0  0  0
  -22.8339  -21.5975   -9.2259 C   0  0  0  0  0  0  0  0  0  0  0  0
  -22.9410  -20.1884   -8.7787 C   0  0  0  0  0  0  0  0  0  0  0  0
  -23.4392  -19.2299   -9.5965 N   0  0  0  0  0  0  0  0  0  0  0  0
  -23.1247  -22.2843  -10.3466 N   0  0  0  0  0  0  0  0  0  0  0  0
  -22.7876  -23.5813  -10.1289 C   0  0  0  0  0  0  0  0  0  0  0  0
  -22.2839  -23.7513   -8.8912 N   0  0  0  0  0  0  0  0  0  0  0  0
  -14.3005  -22.5437   -6.3571 N   0  0  0  0  0  0  0  0  0  0  0  0
  -15.4772  -23.0814   -5.9859 C   0  0  0  0  0  0  0  0  0  0  0  0
  -15.8771  -23.1939   -4.7064 N   0  0  0  0  0  0  0  0  0  0  0  0
  -15.0912  -22.7576   -3.6925 C   0  0  0  0  0  0  0  0  0  0  0  0
  -13.7885  -22.1567   -4.0179 C   0  0  0  0  0  0  0  0  0  0  0  0
  -13.4197  -22.0682   -5.4505 C   0  0  0  0  0  0  0  0  0  0  0  0
  -12.2378  -21.5281   -5.8371 N   0  0  0  0  0  0  0  0  0  0  0  0
  -13.2207  -21.8137   -2.8462 N   0  0  0  0  0  0  0  0  0  0  0  0
  -14.0834  -22.1645   -1.8580 C   0  0  0  0  0  0  0  0  0  0  0  0
  -15.1974  -22.7268   -2.3619 N   0  0  0  0  0  0  0  0  0  0  0  0
  1  3  1  1  0  0  0
  1  5  2  0  0  0  0
  1  9  1  0  0  0  0
  1 18  1  0  0  0  0
  2  4  1  6  0  0  0
  2  6  2  0  0  0  0
  2 10  1  0  0  0  0
  2 17  1  0  0  0  0
  7  9  1  0  0  0  0
  8 10  1  0  0  0  0
 11  7  1  1  0  0  0
 11 13  1  0  0  0  0
 11 15  1  0  0  0  0
 12  8  1  6  0  0  0
 12 14  1  0  0  0  0
 12 16  1  0  0  0  0
 13 21  1  0  0  0  0
 14 22  1  0  0  0  0
 15 17  1  6  0  0  0
 15 19  1  0  0  0  0
 16 18  1  1  0  0  0
 16 20  1  0  0  0  0
 19 21  1  0  0  0  0
 20 22  1  0  0  0  0
 21 32  1  1  0  0  0
 22 42  1  6  0  0  0
 23 24  2  0  0  0  0
 23 28  1  0  0  0  0
 24 25  1  0  0  0  0
 25 26  2  0  0  0  0
 26 27  1  0  0  0  0
 26 32  1  0  0  0  0
 27 28  2  0  0  0  0
 27 30  1  0  0  0  0
 28 29  1  0  0  0  0
 30 31  2  0  0  0  0
 31 32  1  0  0  0  0
 33 34  2  0  0  0  0
 33 38  1  0  0  0  0
 34 35  1  0  0  0  0
 35 36  2  0  0  0  0
 36 37  1  0  0  0  0
 36 42  1  0  0  0  0
 37 38  2  0  0  0  0
 37 40  1  0  0  0  0
 38 39  1  0  0  0  0
 40 41  2  0  0  0  0
 41 42  1  0  0  0  0
M  CHG  2   3  -1   4  -1
M  END
>  <CHROM.1>
54.61245302,77.46779070,-18.96572107,-23.62607080,-5.23182583,2.59722727
-0.23328144,-1.04086640

>  <Name>
ligand

>  <RI>
0

>  <Rbt.Current_Directory>
/home/itssahil/PROJECTS/Mol_Feturizer/New_Systems/rnas/4QLN

>  <Rbt.Executable>
rbdock ($Id: //depot/dev/client3/rdock/2013.1/src/exe/rbdock.cxx#4 $)

>  <Rbt.Library>
libRbt.so (2013.1, Build901 2013/11/27)

>  <Rbt.Parameter_File>
/export/apps/rDock/src/rDock_2013.1_src/data/scripts/dock_solv.prm

>  <Rbt.Receptor>
prm/blind_docking_40.prm

>  <SCORE>
26.2005

>  <SCORE.INTER>
17.0941

>  <SCORE.INTER.CONST>
1

>  <SCORE.INTER.POLAR>
0

>  <SCORE.INTER.ROT>
2

>  <SCORE.INTER.SOLV>
38.6649

>  <SCORE.INTER.VDW>
-6.42558

>  <SCORE.INTER.norm>
0.407002

>  <SCORE.INTRA>
1.15344

>  <SCORE.INTRA.DIHEDRAL>
0.000672471

>  <SCORE.INTRA.DIHEDRAL.0>
2.39985

>  <SCORE.INTRA.POLAR>
0

>  <SCORE.INTRA.POLAR.0>
0

>  <SCORE.INTRA.REPUL>
0

>  <SCORE.INTRA.REPUL.0>
0

>  <SCORE.INTRA.SOLV>
1.11173

>  <SCORE.INTRA.SOLV.lig_0>
-110.958

>  <SCORE.INTRA.VDW>
0.597244

>  <SCORE.INTRA.VDW.0>
-2.34644

>  <SCORE.INTRA.norm>
0.027463

>  <SCORE.RESTR>
7.95299

>  <SCORE.RESTR.CAVITY>
7.95299

>  <SCORE.RESTR.norm>
0.189357

>  <SCORE.SYSTEM>
0

>  <SCORE.SYSTEM.CONST>
0

>  <SCORE.SYSTEM.DIHEDRAL>
0

>  <SCORE.SYSTEM.SOLV>
0

>  <SCORE.SYSTEM.norm>
0

>  <SCORE.heavy>
42

>  <SCORE.norm>
0.623822

>  <RMSD>
28.881

$$$$
ligand
 OpenBabel11021811513D
libRbt.so/2013.1/901 2013/11/27
 42 48  0  0  0  0  0  0  0  0999 V2000
  -20.9228  -23.5891   -2.5925 P   0  0  2  0  0  0  0  0  0  0  0  0
  -17.8818  -26.1634   -5.6972 P   0  0  1  0  0  0  0  0  0  0  0  0
  -22.1329  -24.2873   -2.0169 O   0  5  0  0  0  0  0  0  0  0  0  0
  -17.4213  -24.7448   -5.9336 O   0  5  0  0  0  0  0  0  0  0  0  0
  -20.8188  -22.0843   -2.5250 O   0  0  0  0  0  0  0  0  0  0  0  0
  -17.0592  -27.3192   -6.2140 O   0  0  0  0  0  0  0  0  0  0  0  0
  -21.9207  -24.3136   -4.9241 C   0  0  0  0  0  0  0  0  0  0  0  0
  -17.0123  -26.1888   -3.2079 C   0  0  0  0  0  0  0  0  0  0  0  0
  -20.7678  -24.0367   -4.1309 O   0  0  0  0  0  0  0  0  0  0  0  0
  -18.0981  -26.3662   -4.1146 O   0  0  0  0  0  0  0  0  0  0  0  0
  -21.5756  -25.3655   -5.9715 C   0  0  1  0  0  0  0  0  0  0  0  0
  -17.4412  -25.2690   -2.0716 C   0  0  1  0  0  0  0  0  0  0  0  0
  -22.4933  -25.2763   -7.0649 O   0  0  0  0  0  0  0  0  0  0  0  0
  -16.2895  -24.6600   -1.4831 O   0  0  0  0  0  0  0  0  0  0  0  0
  -20.1749  -25.1562   -6.5216 C   0  0  1  0  0  0  0  0  0  0  0  0
  -18.3488  -24.1575   -2.5740 C   0  0  1  0  0  0  0  0  0  0  0  0
  -19.3767  -26.3105   -6.2781 O   0  0  0  0  0  0  0  0  0  0  0  0
  -19.6074  -24.2168   -1.9095 O   0  0  0  0  0  0  0  0  0  0  0  0
  -20.3286  -24.9360   -8.0151 C   0  0  0  0  0  0  0  0  0  0  0  0
  -17.6498  -22.8518   -2.2480 C   0  0  0  0  0  0  0  0  0  0  0  0
  -21.8206  -25.0204   -8.3007 C   0  0  2  0  0  0  0  0  0  0  0  0
  -16.3470  -23.2335   -1.5597 C   0  0  2  0  0  0  0  0  0  0  0  0
  -22.4997  -19.8741   -7.5052 N   0  0  0  0  0  0  0  0  0  0  0  0
  -21.9950  -20.8189   -6.6904 C   0  0  0  0  0  0  0  0  0  0  0  0
  -21.8798  -22.1158   -7.0309 N   0  0  0  0  0  0  0  0  0  0  0  0
  -22.2773  -22.5525   -8.2500 C   0  0  0  0  0  0  0  0  0  0  0  0
  -22.8401  -21.5788   -9.1986 C   0  0  0  0  0  0  0  0  0  0  0  0
  -22.9352  -20.1691   -8.7505 C   0  0  0  0  0  0  0  0  0  0  0  0
  -23.4406  -19.2088   -9.5618 N   0  0  0  0  0  0  0  0  0  0  0  0
  -23.1490  -22.2648  -10.3149 N   0  0  0  0  0  0  0  0  0  0  0  0
  -22.8143  -23.5631  -10.1013 C   0  0  0  0  0  0  0  0  0  0  0  0
  -22.2944  -23.7347   -8.8706 N   0  0  0  0  0  0  0  0  0  0  0  0
  -14.3212  -22.4996   -6.3482 N   0  0  0  0  0  0  0  0  0  0  0  0
  -15.4983  -23.0364   -5.9771 C   0  0  0  0  0  0  0  0  0  0  0  0
  -15.8916  -23.1630   -4.6969 N   0  0  0  0  0  0  0  0  0  0  0  0
  -15.0981  -22.7429   -3.6821 C   0  0  0  0  0  0  0  0  0  0  0  0
  -13.7944  -22.1441   -4.0073 C   0  0  0  0  0  0  0  0  0  0  0  0
  -13.4332  -22.0394   -5.4407 C   0  0  0  0  0  0  0  0  0  0  0  0
  -12.2509  -21.5001   -5.8272 N   0  0  0  0  0  0  0  0  0  0  0  0
  -13.2185  -21.8183   -2.8346 N   0  0  0  0  0  0  0  0  0  0  0  0
  -14.0774  -22.1774   -1.8461 C   0  0  0  0  0  0  0  0  0  0  0  0
  -15.1967  -22.7282   -2.3506 N   0  0  0  0  0  0  0  0  0  0  0  0
  1  3  1  1  0  0  0
  1  5  2  0  0  0  0
  1  9  1  0  0  0  0
  1 18  1  0  0  0  0
  2  4  1  6  0  0  0
  2  6  2  0  0  0  0
  2 10  1  0  0  0  0
  2 17  1  0  0  0  0
  7  9  1  0  0  0  0
  8 10  1  0  0  0  0
 11  7  1  1  0  0  0
 11 13  1  0  0  0  0
 11 15  1  0  0  0  0
 12  8  1  6  0  0  0
 12 14  1  0  0  0  0
 12 16  1  0  0  0  0
 13 21  1  0  0  0  0
 14 22  1  0  0  0  0
 15 17  1  6  0  0  0
 15 19  1  0  0  0  0
 16 18  1  1  0  0  0
 16 20  1  0  0  0  0
 19 21  1  0  0  0  0
 20 22  1  0  0  0  0
 21 32  1  1  0  0  0
 22 42  1  6  0  0  0
 23 24  2  0  0  0  0
 23 28  1  0  0  0  0
 24 25  1  0  0  0  0
 25 26  2  0  0  0  0
 26 27  1  0  0  0  0
 26 32  1  0  0  0  0
 27 28  2  0  0  0  0
 27 30  1  0  0  0  0
 28 29  1  0  0  0  0
 30 31  2  0  0  0  0
 31 32  1  0  0  0  0
 33 34  2  0  0  0  0
 33 38  1  0  0  0  0
 34 35  1  0  0  0  0
 35 36  2  0  0  0  0
 36 37  1  0  0  0  0
 36 42  1  0  0  0  0
 37 38  2  0  0  0  0
 37 40  1  0  0  0  0
 38 39  1  0  0  0  0
 40 41  2  0  0  0  0
 41 42  1  0  0  0  0
M  CHG  2   3  -1   4  -1
M  END
>  <CHROM.1>
55.39392450,78.09151213,-18.96761066,-23.61735830,-5.21827665,2.60013033
-0.23952737,-1.02875878

>  <Name>
ligand

>  <RI>
0

>  <Rbt.Current_Directory>
/home/itssahil/PROJECTS/Mol_Feturizer/New_Systems/rnas/4QLN

>  <Rbt.Executable>
rbdock ($Id: //depot/dev/client3/rdock/2013.1/src/exe/rbdock.cxx#4 $)

>  <Rbt.Library>
libRbt.so (2013.1, Build901 2013/11/27)

>  <Rbt.Parameter_File>
/export/apps/rDock/src/rDock_2013.1_src/data/scripts/dock_solv.prm

>  <Rbt.Receptor>
prm/blind_docking_40.prm

>  <SCORE>
26.3732

>  <SCORE.INTER>
17.3544

>  <SCORE.INTER.CONST>
1

>  <SCORE.INTER.POLAR>
0

>  <SCORE.INTER.ROT>
2

>  <SCORE.INTER.SOLV>
38.6521

>  <SCORE.INTER.VDW>
-6.24781

>  <SCORE.INTER.norm>
0.413199

>  <SCORE.INTRA>
1.09138

>  <SCORE.INTRA.DIHEDRAL>
0.000697495

>  <SCORE.INTRA.DIHEDRAL.0>
2.39985

>  <SCORE.INTRA.POLAR>
0

>  <SCORE.INTRA.POLAR.0>
0

>  <SCORE.INTRA.REPUL>
0

>  <SCORE.INTRA.REPUL.0>
0

>  <SCORE.INTRA.SOLV>
1.09606

>  <SCORE.INTRA.SOLV.lig_0>
-110.958

>  <SCORE.INTRA.VDW>
0.543003

>  <SCORE.INTRA.VDW.0>
-2.34644

>  <SCORE.INTRA.norm>
0.0259853

>  <SCORE.RESTR>
7.92749

>  <SCORE.RESTR.CAVITY>
7.92749

>  <SCORE.RESTR.norm>
0.18875

>  <SCORE.SYSTEM>
0

>  <SCORE.SYSTEM.CONST>
0

>  <SCORE.SYSTEM.DIHEDRAL>
0

>  <SCORE.SYSTEM.SOLV>
0

>  <SCORE.SYSTEM.norm>
0

>  <SCORE.heavy>
42

>  <SCORE.norm>
0.627934

>  <RMSD>
28.891

$$$$
ligand
 OpenBabel11021811513D
libRbt.so/2013.1/901 2013/11/27
 42 48  0  0  0  0  0  0  0  0999 V2000
  -20.0368  -21.9240   -4.5650 P   0  0  2  0  0  0  0  0  0  0  0  0
  -18.2549  -26.6369   -4.9222 P   0  0  1  0  0  0  0  0  0  0  0  0
  -20.4143  -21.1920   -5.8317 O   0  5  0  0  0  0  0  0  0  0  0  0
  -17.8950  -26.2868   -3.4980 O   0  5  0  0  0  0  0  0  0  0  0  0
  -19.8658  -21.1578   -3.2752 O   0  0  0  0  0  0  0  0  0  0  0  0
  -18.1609  -28.0681   -5.3936 O   0  0  0  0  0  0  0  0  0  0  0  0
  -17.6948  -22.2375   -5.7370 C   0  0  0  0  0  0  0  0  0  0  0  0
  -20.8463  -26.5885   -4.4366 C   0  0  0  0  0  0  0  0  0  0  0  0
  -18.6832  -22.7489   -4.8446 O   0  0  0  0  0  0  0  0  0  0  0  0
  -19.7485  -26.1084   -5.2093 O   0  0  0  0  0  0  0  0  0  0  0  0
  -16.9606  -23.3969   -6.3999 C   0  0  1  0  0  0  0  0  0  0  0  0
  -21.6678  -25.4098   -3.9298 C   0  0  1  0  0  0  0  0  0  0  0  0
  -15.6792  -22.9570   -6.8583 O   0  0  0  0  0  0  0  0  0  0  0  0
  -22.4031  -25.7987   -2.7670 O   0  0  0  0  0  0  0  0  0  0  0  0
  -16.7382  -24.5388   -5.4227 C   0  0  1  0  0  0  0  0  0  0  0  0
  -20.7760  -24.2399   -3.5457 C   0  0  1  0  0  0  0  0  0  0  0  0
  -17.3639  -25.7239   -5.9053 O   0  0  0  0  0  0  0  0  0  0  0  0
  -21.1160  -23.0924   -4.3183 O   0  0  0  0  0  0  0  0  0  0  0  0
  -15.2371  -24.7424   -5.3344 C   0  0  0  0  0  0  0  0  0  0  0  0
  -21.0303  -23.9707   -2.0752 C   0  0  0  0  0  0  0  0  0  0  0  0
  -14.6179  -23.7092   -6.2640 C   0  0  2  0  0  0  0  0  0  0  0  0
  -22.0690  -24.9924   -1.6347 C   0  0  2  0  0  0  0  0  0  0  0  0
  -13.2752  -21.9360   -1.5067 N   0  0  0  0  0  0  0  0  0  0  0  0
  -14.2043  -22.8414   -1.8649 C   0  0  0  0  0  0  0  0  0  0  0  0
  -14.4434  -23.2033   -3.1389 N   0  0  0  0  0  0  0  0  0  0  0  0
  -13.7391  -22.6591   -4.1600 C   0  0  0  0  0  0  0  0  0  0  0  0
  -12.7041  -21.6607   -3.8492 C   0  0  0  0  0  0  0  0  0  0  0  0
  -12.4999  -21.3137   -2.4227 C   0  0  0  0  0  0  0  0  0  0  0  0
  -11.5672  -20.4046   -2.0496 N   0  0  0  0  0  0  0  0  0  0  0  0
  -12.1652  -21.2876   -5.0251 N   0  0  0  0  0  0  0  0  0  0  0  0
  -12.7984  -21.9845   -6.0031 C   0  0  0  0  0  0  0  0  0  0  0  0
  -13.7364  -22.8022   -5.4877 N   0  0  0  0  0  0  0  0  0  0  0  0
  -17.7264  -26.6247    0.8251 N   0  0  0  0  0  0  0  0  0  0  0  0
  -17.8715  -25.7654   -0.2006 C   0  0  0  0  0  0  0  0  0  0  0  0
  -19.0602  -25.4355   -0.7369 N   0  0  0  0  0  0  0  0  0  0  0  0
  -20.2101  -25.9679   -0.2570 C   0  0  0  0  0  0  0  0  0  0  0  0
  -20.1341  -26.9164    0.8650 C   0  0  0  0  0  0  0  0  0  0  0  0
  -18.7882  -27.2287    1.4008 C   0  0  0  0  0  0  0  0  0  0  0  0
  -18.6290  -28.0919    2.4341 N   0  0  0  0  0  0  0  0  0  0  0  0
  -21.3989  -27.2863    1.1411 N   0  0  0  0  0  0  0  0  0  0  0  0
  -22.2127  -26.6328    0.2724 C   0  0  0  0  0  0  0  0  0  0  0  0
  -21.5048  -25.8478   -0.5604 N   0  0  0  0  0  0  0  0  0  0  0  0
  1  3  1  6  0  0  0
  1  5  2  0  0  0  0
  1  9  1  0  0  0  0
  1 18  1  0  0  0  0
  2  4  1  1  0  0  0
  2  6  2  0  0  0  0
  2 10  1  0  0  0  0
  2 17  1  0  0  0  0
  7  9  1  0  0  0  0
  8 10  1  0  0  0  0
 11  7  1  1  0  0  0
 11 13  1  0  0  0  0
 11 15  1  0  0  0  0
 12  8  1  1  0  0  0
 12 14  1  0  0  0  0
 12 16  1  0  0  0  0
 13 21  1  0  0  0  0
 14 22  1  0  0  0  0
 15 17  1  6  0  0  0
 15 19  1  0  0  0  0
 16 18  1  6  0  0  0
 16 20  1  0  0  0  0
 19 21  1  0  0  0  0
 20 22  1  0  0  0  0
 21 32  1  1  0  0  0
 22 42  1  1  0  0  0
 23 24  2  0  0  0  0
 23 28  1  0  0  0  0
 24 25  1  0  0  0  0
 25 26  2  0  0  0  0
 26 27  1  0  0  0  0
 26 32  1  0  0  0  0
 27 28  2  0  0  0  0
 27 30  1  0  0  0  0
 28 29  1  0  0  0  0
 30 31  2  0  0  0  0
 31 32  1  0  0  0  0
 33 34  2  0  0  0  0
 33 38  1  0  0  0  0
 34 35  1  0  0  0  0
 35 36  2  0  0  0  0
 36 37  1  0  0  0  0
 36 42  1  0  0  0  0
 37 38  2  0  0  0  0
 37 40  1  0  0  0  0
 38 39  1  0  0  0  0
 40 41  2  0  0  0  0
 41 42  1  0  0  0  0
M  CHG  2   3  -1   4  -1
M  END
>  <CHROM.1>
101.97280144,102.00081221,-17.91124561,-24.31712413,-3.33150697,2.55925751
0.30618803,1.99909658

>  <Name>
ligand

>  <RI>
0

>  <Rbt.Current_Directory>
/home/itssahil/PROJECTS/Mol_Feturizer/New_Systems/rnas/4QLN

>  <Rbt.Executable>
rbdock ($Id: //depot/dev/client3/rdock/2013.1/src/exe/rbdock.cxx#4 $)

>  <Rbt.Library>
libRbt.so (2013.1, Build901 2013/11/27)

>  <Rbt.Parameter_File>
/export/apps/rDock/src/rDock_2013.1_src/data/scripts/dock_solv.prm

>  <Rbt.Receptor>
prm/blind_docking_80.prm

>  <SCORE>
40.185

>  <SCORE.INTER>
23.315

>  <SCORE.INTER.CONST>
1

>  <SCORE.INTER.POLAR>
0

>  <SCORE.INTER.ROT>
2

>  <SCORE.INTER.SOLV>
33.9485

>  <SCORE.INTER.VDW>
-0.706135

>  <SCORE.INTER.norm>
0.55512

>  <SCORE.INTRA>
2.73511

>  <SCORE.INTRA.DIHEDRAL>
0.000970367

>  <SCORE.INTRA.DIHEDRAL.0>
2.39985

>  <SCORE.INTRA.POLAR>
0

>  <SCORE.INTRA.POLAR.0>
0

>  <SCORE.INTRA.REPUL>
0

>  <SCORE.INTRA.REPUL.0>
0

>  <SCORE.INTRA.SOLV>
0.355173

>  <SCORE.INTRA.SOLV.lig_0>
-110.958

>  <SCORE.INTRA.VDW>
2.55704

>  <SCORE.INTRA.VDW.0>
-2.34644

>  <SCORE.INTRA.norm>
0.0651217

>  <SCORE.RESTR>
14.1348

>  <SCORE.RESTR.CAVITY>
14.1348

>  <SCORE.RESTR.norm>
0.336543

>  <SCORE.SYSTEM>
0

>  <SCORE.SYSTEM.CONST>
0

>  <SCORE.SYSTEM.DIHEDRAL>
0

>  <SCORE.SYSTEM.SOLV>
0

>  <SCORE.SYSTEM.norm>
0

>  <SCORE.heavy>
42

>  <SCORE.norm>
0.956785

>  <RMSD>
28.900

$$$$
ligand
 OpenBabel11021811513D
libRbt.so/2013.1/901 2013/11/27
 42 48  0  0  0  0  0  0  0  0999 V2000
  -19.8923  -22.2211   -3.6942 P   0  0  2  0  0  0  0  0  0  0  0  0
  -18.4075  -26.1801   -6.4576 P   0  0  1  0  0  0  0  0  0  0  0  0
  -19.5395  -20.8307   -4.1687 O   0  5  0  0  0  0  0  0  0  0  0  0
  -18.8024  -26.8488   -5.1625 O   0  5  0  0  0  0  0  0  0  0  0  0
  -20.3613  -22.4360   -2.2751 O   0  0  0  0  0  0  0  0  0  0  0  0
  -18.1576  -27.0140   -7.6911 O   0  0  0  0  0  0  0  0  0  0  0  0
  -17.2978  -22.6678   -3.8566 C   0  0  0  0  0  0  0  0  0  0  0  0
  -20.8817  -25.4544   -7.0102 C   0  0  0  0  0  0  0  0  0  0  0  0
  -18.6258  -23.1792   -3.9571 O   0  0  0  0  0  0  0  0  0  0  0  0
  -19.5218  -25.0738   -6.8139 O   0  0  0  0  0  0  0  0  0  0  0  0
  -16.3866  -23.4304   -4.8109 C   0  0  1  0  0  0  0  0  0  0  0  0
  -21.7881  -24.5580   -6.1761 C   0  0  1  0  0  0  0  0  0  0  0  0
  -15.0299  -23.3232   -4.3710 O   0  0  0  0  0  0  0  0  0  0  0  0
  -23.0292  -25.2232   -5.9287 O   0  0  0  0  0  0  0  0  0  0  0  0
  -16.7462  -24.9060   -4.8547 C   0  0  1  0  0  0  0  0  0  0  0  0
  -21.1581  -24.2348   -4.8306 C   0  0  1  0  0  0  0  0  0  0  0  0
  -17.0979  -25.2840   -6.1822 O   0  0  0  0  0  0  0  0  0  0  0  0
  -21.0032  -22.8258   -4.6897 O   0  0  0  0  0  0  0  0  0  0  0  0
  -15.5088  -25.6629   -4.4092 C   0  0  0  0  0  0  0  0  0  0  0  0
  -22.1090  -24.7618   -3.7734 C   0  0  0  0  0  0  0  0  0  0  0  0
  -14.4544  -24.6068   -4.1131 C   0  0  2  0  0  0  0  0  0  0  0  0
  -23.2761  -25.3808   -4.5293 C   0  0  2  0  0  0  0  0  0  0  0  0
  -13.3422  -21.9596    0.2839 N   0  0  0  0  0  0  0  0  0  0  0  0
  -13.7109  -21.5100   -0.9299 C   0  0  0  0  0  0  0  0  0  0  0  0
  -13.9666  -22.3135   -1.9787 N   0  0  0  0  0  0  0  0  0  0  0  0
  -13.8642  -23.6594   -1.8646 C   0  0  0  0  0  0  0  0  0  0  0  0
  -13.4661  -24.2287   -0.5676 C   0  0  0  0  0  0  0  0  0  0  0  0
  -13.2007  -23.2795    0.5394 C   0  0  0  0  0  0  0  0  0  0  0  0
  -12.8298  -23.7199    1.7659 N   0  0  0  0  0  0  0  0  0  0  0  0
  -13.4416  -25.5653   -0.7263 N   0  0  0  0  0  0  0  0  0  0  0  0
  -13.7926  -25.8298   -2.0109 C   0  0  0  0  0  0  0  0  0  0  0  0
  -14.0448  -24.6939   -2.6894 N   0  0  0  0  0  0  0  0  0  0  0  0
  -20.7069  -29.7155   -3.0521 N   0  0  0  0  0  0  0  0  0  0  0  0
  -20.2496  -28.4694   -3.2746 C   0  0  0  0  0  0  0  0  0  0  0  0
  -21.0318  -27.4428   -3.6539 N   0  0  0  0  0  0  0  0  0  0  0  0
  -22.3632  -27.6153   -3.8373 C   0  0  0  0  0  0  0  0  0  0  0  0
  -22.9392  -28.9503   -3.6132 C   0  0  0  0  0  0  0  0  0  0  0  0
  -22.0125  -30.0291   -3.1966 C   0  0  0  0  0  0  0  0  0  0  0  0
  -22.4609  -31.2881   -2.9688 N   0  0  0  0  0  0  0  0  0  0  0  0
  -24.2586  -28.8454   -3.8605 N   0  0  0  0  0  0  0  0  0  0  0  0
  -24.5053  -27.5573   -4.2123 C   0  0  0  0  0  0  0  0  0  0  0  0
  -23.3766  -26.8247   -4.1987 N   0  0  0  0  0  0  0  0  0  0  0  0
  1  3  1  6  0  0  0
  1  5  2  0  0  0  0
  1  9  1  0  0  0  0
  1 18  1  0  0  0  0
  2  4  1  1  0  0  0
  2  6  2  0  0  0  0
  2 10  1  0  0  0  0
  2 17  1  0  0  0  0
  7  9  1  0  0  0  0
  8 10  1  0  0  0  0
 11  7  1  1  0  0  0
 11 13  1  0  0  0  0
 11 15  1  0  0  0  0
 12  8  1  6  0  0  0
 12 14  1  0  0  0  0
 12 16  1  0  0  0  0
 13 21  1  0  0  0  0
 14 22  1  0  0  0  0
 15 17  1  6  0  0  0
 15 19  1  0  0  0  0
 16 18  1  1  0  0  0
 16 20  1  0  0  0  0
 19 21  1  0  0  0  0
 20 22  1  0  0  0  0
 21 32  1  1  0  0  0
 22 42  1  6  0  0  0
 23 24  2  0  0  0  0
 23 28  1  0  0  0  0
 24 25  1  0  0  0  0
 25 26  2  0  0  0  0
 26 27  1  0  0  0  0
 26 32  1  0  0  0  0
 27 28  2  0  0  0  0
 27 30  1  0  0  0  0
 28 29  1  0  0  0  0
 30 31  2  0  0  0  0
 31 32  1  0  0  0  0
 33 34  2  0  0  0  0
 33 38  1  0  0  0  0
 34 35  1  0  0  0  0
 35 36  2  0  0  0  0
 36 37  1  0  0  0  0
 36 42  1  0  0  0  0
 37 38  2  0  0  0  0
 37 40  1  0  0  0  0
 38 39  1  0  0  0  0
 40 41  2  0  0  0  0
 41 42  1  0  0  0  0
M  CHG  2   3  -1   4  -1
M  END
>  <CHROM.1>
-18.08611917,90.15960185,-18.60438453,-25.11697237,-3.81965600,0.29343571
-0.45387947,-0.29730148

>  <Name>
ligand

>  <RI>
0

>  <Rbt.Current_Directory>
/home/itssahil/PROJECTS/Mol_Feturizer/New_Systems/rnas/4QLN

>  <Rbt.Executable>
rbdock ($Id: //depot/dev/client3/rdock/2013.1/src/exe/rbdock.cxx#4 $)

>  <Rbt.Library>
libRbt.so (2013.1, Build901 2013/11/27)

>  <Rbt.Parameter_File>
/export/apps/rDock/src/rDock_2013.1_src/data/scripts/dock_solv.prm

>  <Rbt.Receptor>
prm/blind_docking_60.prm

>  <SCORE>
21.0229

>  <SCORE.INTER>
5.10178

>  <SCORE.INTER.CONST>
1

>  <SCORE.INTER.POLAR>
0

>  <SCORE.INTER.ROT>
2

>  <SCORE.INTER.SOLV>
33.6535

>  <SCORE.INTER.VDW>
-12.75

>  <SCORE.INTER.norm>
0.121471

>  <SCORE.INTRA>
1.49764

>  <SCORE.INTRA.DIHEDRAL>
0.00111427

>  <SCORE.INTRA.DIHEDRAL.0>
2.39985

>  <SCORE.INTRA.POLAR>
0

>  <SCORE.INTRA.POLAR.0>
0

>  <SCORE.INTRA.REPUL>
0

>  <SCORE.INTRA.REPUL.0>
0

>  <SCORE.INTRA.SOLV>
0.730817

>  <SCORE.INTRA.SOLV.lig_0>
-110.958

>  <SCORE.INTRA.VDW>
1.13167

>  <SCORE.INTRA.VDW.0>
-2.34644

>  <SCORE.INTRA.norm>
0.035658

>  <SCORE.RESTR>
14.4234

>  <SCORE.RESTR.CAVITY>
14.4234

>  <SCORE.RESTR.norm>
0.343415

>  <SCORE.SYSTEM>
0

>  <SCORE.SYSTEM.CONST>
0

>  <SCORE.SYSTEM.DIHEDRAL>
0

>  <SCORE.SYSTEM.SOLV>
0

>  <SCORE.SYSTEM.norm>
0

>  <SCORE.heavy>
42

>  <SCORE.norm>
0.500544

>  <RMSD>
28.908

$$$$
ligand
 OpenBabel11021811513D
libRbt.so/2013.1/901 2013/11/27
 42 48  0  0  0  0  0  0  0  0999 V2000
  -19.5253  -21.6452   -4.2757 P   0  0  2  0  0  0  0  0  0  0  0  0
  -17.9402  -26.0387   -6.1990 P   0  0  1  0  0  0  0  0  0  0  0  0
  -19.1907  -20.3678   -5.0100 O   0  5  0  0  0  0  0  0  0  0  0  0
  -18.3391  -26.4489   -4.8015 O   0  5  0  0  0  0  0  0  0  0  0  0
  -20.0075  -21.5876   -2.8460 O   0  0  0  0  0  0  0  0  0  0  0  0
  -17.6613  -27.0926   -7.2435 O   0  0  0  0  0  0  0  0  0  0  0  0
  -16.9218  -22.0654   -4.3259 C   0  0  0  0  0  0  0  0  0  0  0  0
  -20.4196  -25.4824   -6.9036 C   0  0  0  0  0  0  0  0  0  0  0  0
  -18.2396  -22.6118   -4.3356 O   0  0  0  0  0  0  0  0  0  0  0  0
  -19.0689  -25.0448   -6.7741 O   0  0  0  0  0  0  0  0  0  0  0  0
  -15.9863  -22.9822   -5.1049 C   0  0  1  0  0  0  0  0  0  0  0  0
  -21.3511  -24.4577   -6.2685 C   0  0  1  0  0  0  0  0  0  0  0  0
  -14.6371  -22.7652   -4.6831 O   0  0  0  0  0  0  0  0  0  0  0  0
  -22.5835  -25.0853   -5.9062 O   0  0  0  0  0  0  0  0  0  0  0  0
  -16.3201  -24.4445   -4.8624 C   0  0  1  0  0  0  0  0  0  0  0  0
  -20.7428  -23.8659   -5.0070 C   0  0  1  0  0  0  0  0  0  0  0  0
  -16.6495  -25.0812   -6.0932 O   0  0  0  0  0  0  0  0  0  0  0  0
  -20.6138  -22.4538   -5.1430 O   0  0  0  0  0  0  0  0  0  0  0  0
  -15.0754  -25.0760   -4.2671 C   0  0  0  0  0  0  0  0  0  0  0  0
  -21.6972  -24.1942   -3.8751 C   0  0  0  0  0  0  0  0  0  0  0  0
  -14.0428  -23.9625   -4.1744 C   0  0  2  0  0  0  0  0  0  0  0  0
  -22.8444  -24.9712   -4.5052 C   0  0  2  0  0  0  0  0  0  0  0  0
  -15.6396  -22.7169    0.6709 N   0  0  0  0  0  0  0  0  0  0  0  0
  -16.3374  -22.8071   -0.4764 C   0  0  0  0  0  0  0  0  0  0  0  0
  -15.7904  -23.1407   -1.6598 N   0  0  0  0  0  0  0  0  0  0  0  0
  -14.4673  -23.4126   -1.7622 C   0  0  0  0  0  0  0  0  0  0  0  0
  -13.6360  -23.3357   -0.5506 C   0  0  0  0  0  0  0  0  0  0  0  0
  -14.3107  -22.9612    0.7149 C   0  0  0  0  0  0  0  0  0  0  0  0
  -13.6193  -22.8679    1.8763 N   0  0  0  0  0  0  0  0  0  0  0  0
  -12.3812  -23.6476   -0.9256 N   0  0  0  0  0  0  0  0  0  0  0  0
  -12.4055  -23.9017   -2.2590 C   0  0  0  0  0  0  0  0  0  0  0  0
  -13.6489  -23.7619   -2.7578 N   0  0  0  0  0  0  0  0  0  0  0  0
  -20.1937  -29.2371   -2.9729 N   0  0  0  0  0  0  0  0  0  0  0  0
  -19.7517  -28.0956   -3.5324 C   0  0  0  0  0  0  0  0  0  0  0  0
  -20.5544  -27.0730   -3.8780 N   0  0  0  0  0  0  0  0  0  0  0  0
  -21.8923  -27.1410   -3.6743 C   0  0  0  0  0  0  0  0  0  0  0  0
  -22.4524  -28.3578   -3.0661 C   0  0  0  0  0  0  0  0  0  0  0  0
  -21.5033  -29.4398   -2.7130 C   0  0  0  0  0  0  0  0  0  0  0  0
  -21.9360  -30.5940   -2.1484 N   0  0  0  0  0  0  0  0  0  0  0  0
  -23.7820  -28.1652   -2.9771 N   0  0  0  0  0  0  0  0  0  0  0  0
  -24.0495  -26.9342   -3.4840 C   0  0  0  0  0  0  0  0  0  0  0  0
  -22.9242  -26.3242   -3.8994 N   0  0  0  0  0  0  0  0  0  0  0  0
  1  3  1  6  0  0  0
  1  5  2  0  0  0  0
  1  9  1  0  0  0  0
  1 18  1  0  0  0  0
  2  4  1  1  0  0  0
  2  6  2  0  0  0  0
  2 10  1  0  0  0  0
  2 17  1  0  0  0  0
  7  9  1  0  0  0  0
  8 10  1  0  0  0  0
 11  7  1  1  0  0  0
 11 13  1  0  0  0  0
 11 15  1  0  0  0  0
 12  8  1  1  0  0  0
 12 14  1  0  0  0  0
 12 16  1  0  0  0  0
 13 21  1  0  0  0  0
 14 22  1  0  0  0  0
 15 17  1  6  0  0  0
 15 19  1  0  0  0  0
 16 18  1  6  0  0  0
 16 20  1  0  0  0  0
 19 21  1  0  0  0  0
 20 22  1  0  0  0  0
 21 32  1  1  0  0  0
 22 42  1  1  0  0  0
 23 24  2  0  0  0  0
 23 28  1  0  0  0  0
 24 25  1  0  0  0  0
 25 26  2  0  0  0  0
 26 27  1  0  0  0  0
 26 32  1  0  0  0  0
 27 28  2  0  0  0  0
 27 30  1  0  0  0  0
 28 29  1  0  0  0  0
 30 31  2  0  0  0  0
 31 32  1  0  0  0  0
 33 34  2  0  0  0  0
 33 38  1  0  0  0  0
 34 35  1  0  0  0  0
 35 36  2  0  0  0  0
 36 37  1  0  0  0  0
 36 42  1  0  0  0  0
 37 38  2  0  0  0  0
 37 40  1  0  0  0  0
 38 39  1  0  0  0  0
 40 41  2  0  0  0  0
 41 42  1  0  0  0  0
M  CHG  2   3  -1   4  -1
M  END
>  <CHROM.1>
57.96733971,73.12955383,-18.39905470,-24.69693215,-3.80061903,0.18718606
-0.51234914,-0.61594199

>  <Name>
ligand

>  <RI>
0

>  <Rbt.Current_Directory>
/home/itssahil/PROJECTS/Mol_Feturizer/New_Systems/rnas/4QLN

>  <Rbt.Executable>
rbdock ($Id: //depot/dev/client3/rdock/2013.1/src/exe/rbdock.cxx#4 $)

>  <Rbt.Library>
libRbt.so (2013.1, Build901 2013/11/27)

>  <Rbt.Parameter_File>
/export/apps/rDock/src/rDock_2013.1_src/data/scripts/dock_solv.prm

>  <Rbt.Receptor>
prm/blind_docking_80.prm

>  <SCORE>
33.3072

>  <SCORE.INTER>
18.5524

>  <SCORE.INTER.CONST>
1

>  <SCORE.INTER.POLAR>
0

>  <SCORE.INTER.ROT>
2

>  <SCORE.INTER.SOLV>
37.4718

>  <SCORE.INTER.VDW>
-5.05569

>  <SCORE.INTER.norm>
0.441723

>  <SCORE.INTRA>
1.46835

>  <SCORE.INTRA.DIHEDRAL>
0.000598722

>  <SCORE.INTRA.DIHEDRAL.0>
2.39985

>  <SCORE.INTRA.POLAR>
0

>  <SCORE.INTRA.POLAR.0>
0

>  <SCORE.INTRA.REPUL>
0

>  <SCORE.INTRA.REPUL.0>
0

>  <SCORE.INTRA.SOLV>
1.19159

>  <SCORE.INTRA.SOLV.lig_0>
-110.958

>  <SCORE.INTRA.VDW>
0.872251

>  <SCORE.INTRA.VDW.0>
-2.34644

>  <SCORE.INTRA.norm>
0.0349606

>  <SCORE.RESTR>
13.2865

>  <SCORE.RESTR.CAVITY>
13.2865

>  <SCORE.RESTR.norm>
0.316344

>  <SCORE.SYSTEM>
0

>  <SCORE.SYSTEM.CONST>
0

>  <SCORE.SYSTEM.DIHEDRAL>
0

>  <SCORE.SYSTEM.SOLV>
0

>  <SCORE.SYSTEM.norm>
0

>  <SCORE.heavy>
42

>  <SCORE.norm>
0.793028

>  <RMSD>
28.913

$$$$
ligand
 OpenBabel11021811513D
libRbt.so/2013.1/901 2013/11/27
 42 48  0  0  0  0  0  0  0  0999 V2000
  -19.5276  -21.6470   -4.2782 P   0  0  2  0  0  0  0  0  0  0  0  0
  -17.9493  -26.0445   -6.1981 P   0  0  1  0  0  0  0  0  0  0  0  0
  -19.1951  -20.3711   -5.0160 O   0  5  0  0  0  0  0  0  0  0  0  0
  -18.3438  -26.4520   -4.7985 O   0  5  0  0  0  0  0  0  0  0  0  0
  -20.0053  -21.5866   -2.8471 O   0  0  0  0  0  0  0  0  0  0  0  0
  -17.6739  -27.1004   -7.2414 O   0  0  0  0  0  0  0  0  0  0  0  0
  -16.9244  -22.0678   -4.3358 C   0  0  0  0  0  0  0  0  0  0  0  0
  -20.4308  -25.4891   -6.8959 C   0  0  0  0  0  0  0  0  0  0  0  0
  -18.2422  -22.6139   -4.3402 O   0  0  0  0  0  0  0  0  0  0  0  0
  -19.0796  -25.0515   -6.7715 O   0  0  0  0  0  0  0  0  0  0  0  0
  -15.9915  -22.9862   -5.1160 C   0  0  1  0  0  0  0  0  0  0  0  0
  -21.3602  -24.4630   -6.2598 C   0  0  1  0  0  0  0  0  0  0  0  0
  -14.6409  -22.7687   -4.6989 O   0  0  0  0  0  0  0  0  0  0  0  0
  -22.5915  -25.0897   -5.8925 O   0  0  0  0  0  0  0  0  0  0  0  0
  -16.3247  -24.4479   -4.8697 C   0  0  1  0  0  0  0  0  0  0  0  0
  -20.7478  -23.8690   -5.0013 C   0  0  1  0  0  0  0  0  0  0  0  0
  -16.6581  -25.0870   -6.0982 O   0  0  0  0  0  0  0  0  0  0  0  0
  -20.6189  -22.4572   -5.1405 O   0  0  0  0  0  0  0  0  0  0  0  0
  -15.0783  -25.0785   -4.2771 C   0  0  0  0  0  0  0  0  0  0  0  0
  -21.6986  -24.1949   -3.8659 C   0  0  0  0  0  0  0  0  0  0  0  0
  -14.0452  -23.9650   -4.1898 C   0  0  2  0  0  0  0  0  0  0  0  0
  -22.8479  -24.9729   -4.4908 C   0  0  2  0  0  0  0  0  0  0  0  0
  -15.6289  -22.7234    0.6608 N   0  0  0  0  0  0  0  0  0  0  0  0
  -16.3307  -22.8174   -0.4837 C   0  0  0  0  0  0  0  0  0  0  0  0
  -15.7867  -23.1493   -1.6691 N   0  0  0  0  0  0  0  0  0  0  0  0
  -14.4629  -23.4155   -1.7763 C   0  0  0  0  0  0  0  0  0  0  0  0
  -13.6273  -23.3342   -0.5680 C   0  0  0  0  0  0  0  0  0  0  0  0
  -14.2989  -22.9618    0.6998 C   0  0  0  0  0  0  0  0  0  0  0  0
  -13.6034  -22.8647    1.8585 N   0  0  0  0  0  0  0  0  0  0  0  0
  -12.3726  -23.6407   -0.9475 N   0  0  0  0  0  0  0  0  0  0  0  0
  -12.4009  -23.8958   -2.2807 C   0  0  0  0  0  0  0  0  0  0  0  0
  -13.6467  -23.7618   -2.7748 N   0  0  0  0  0  0  0  0  0  0  0  0
  -20.1945  -29.2412   -2.9697 N   0  0  0  0  0  0  0  0  0  0  0  0
  -19.7544  -28.1014   -3.5341 C   0  0  0  0  0  0  0  0  0  0  0  0
  -20.5576  -27.0779   -3.8760 N   0  0  0  0  0  0  0  0  0  0  0  0
  -21.8941  -27.1431   -3.6628 C   0  0  0  0  0  0  0  0  0  0  0  0
  -22.4522  -28.3578   -3.0487 C   0  0  0  0  0  0  0  0  0  0  0  0
  -21.5027  -29.4410   -2.7004 C   0  0  0  0  0  0  0  0  0  0  0  0
  -21.9336  -30.5934   -2.1308 N   0  0  0  0  0  0  0  0  0  0  0  0
  -23.7808  -28.1627   -2.9509 N   0  0  0  0  0  0  0  0  0  0  0  0
  -24.0496  -26.9320   -3.4580 C   0  0  0  0  0  0  0  0  0  0  0  0
  -22.9260  -26.3248   -3.8822 N   0  0  0  0  0  0  0  0  0  0  0  0
  1  3  1  6  0  0  0
  1  5  2  0  0  0  0
  1  9  1  0  0  0  0
  1 18  1  0  0  0  0
  2  4  1  1  0  0  0
  2  6  2  0  0  0  0
  2 10  1  0  0  0  0
  2 17  1  0  0  0  0
  7  9  1  0  0  0  0
  8 10  1  0  0  0  0
 11  7  1  1  0  0  0
 11 13  1  0  0  0  0
 11 15  1  0  0  0  0
 12  8  1  1  0  0  0
 12 14  1  0  0  0  0
 12 16  1  0  0  0  0
 13 21  1  0  0  0  0
 14 22  1  0  0  0  0
 15 17  1  6  0  0  0
 15 19  1  0  0  0  0
 16 18  1  6  0  0  0
 16 20  1  0  0  0  0
 19 21  1  0  0  0  0
 20 22  1  0  0  0  0
 21 32  1  1  0  0  0
 22 42  1  1  0  0  0
 23 24  2  0  0  0  0
 23 28  1  0  0  0  0
 24 25  1  0  0  0  0
 25 26  2  0  0  0  0
 26 27  1  0  0  0  0
 26 32  1  0  0  0  0
 27 28  2  0  0  0  0
 27 30  1  0  0  0  0
 28 29  1  0  0  0  0
 30 31  2  0  0  0  0
 31 32  1  0  0  0  0
 33 34  2  0  0  0  0
 33 38  1  0  0  0  0
 34 35  1  0  0  0  0
 35 36  2  0  0  0  0
 36 37  1  0  0  0  0
 36 42  1  0  0  0  0
 37 38  2  0  0  0  0
 37 40  1  0  0  0  0
 38 39  1  0  0  0  0
 40 41  2  0  0  0  0
 41 42  1  0  0  0  0
M  CHG  2   3  -1   4  -1
M  END
>  <CHROM.1>
58.24129873,72.89319650,-18.40067504,-24.69954759,-3.80150844,0.18903651
-0.50962761,-0.61654212

>  <Name>
ligand

>  <RI>
0

>  <Rbt.Current_Directory>
/home/itssahil/PROJECTS/Mol_Feturizer/New_Systems/rnas/4QLN

>  <Rbt.Executable>
rbdock ($Id: //depot/dev/client3/rdock/2013.1/src/exe/rbdock.cxx#4 $)

>  <Rbt.Library>
libRbt.so (2013.1, Build901 2013/11/27)

>  <Rbt.Parameter_File>
/export/apps/rDock/src/rDock_2013.1_src/data/scripts/dock_solv.prm

>  <Rbt.Receptor>
prm/blind_docking_80.prm

>  <SCORE>
32.9227

>  <SCORE.INTER>
18.0645

>  <SCORE.INTER.CONST>
1

>  <SCORE.INTER.POLAR>
0

>  <SCORE.INTER.ROT>
2

>  <SCORE.INTER.SOLV>
37.3204

>  <SCORE.INTER.VDW>
-5.33048

>  <SCORE.INTER.norm>
0.430107

>  <SCORE.INTRA>
1.48112

>  <SCORE.INTRA.DIHEDRAL>
0.000595219

>  <SCORE.INTRA.DIHEDRAL.0>
2.39985

>  <SCORE.INTRA.POLAR>
0

>  <SCORE.INTRA.POLAR.0>
0

>  <SCORE.INTRA.REPUL>
0

>  <SCORE.INTRA.REPUL.0>
0

>  <SCORE.INTRA.SOLV>
1.19495

>  <SCORE.INTRA.SOLV.lig_0>
-110.958

>  <SCORE.INTRA.VDW>
0.883344

>  <SCORE.INTRA.VDW.0>
-2.34644

>  <SCORE.INTRA.norm>
0.0352647

>  <SCORE.RESTR>
13.3771

>  <SCORE.RESTR.CAVITY>
13.3771

>  <SCORE.RESTR.norm>
0.318503

>  <SCORE.SYSTEM>
0

>  <SCORE.SYSTEM.CONST>
0

>  <SCORE.SYSTEM.DIHEDRAL>
0

>  <SCORE.SYSTEM.SOLV>
0

>  <SCORE.SYSTEM.norm>
0

>  <SCORE.heavy>
42

>  <SCORE.norm>
0.783874

>  <RMSD>
28.913

$$$$
ligand
 OpenBabel11021811513D
libRbt.so/2013.1/901 2013/11/27
 42 48  0  0  0  0  0  0  0  0999 V2000
  -24.0262  -36.1139  -25.9712 P   0  0  2  0  0  0  0  0  0  0  0  0
  -19.2989  -37.6795  -25.1253 P   0  0  1  0  0  0  0  0  0  0  0  0
  -24.4378  -35.7767  -27.3853 O   0  5  0  0  0  0  0  0  0  0  0  0
  -19.7674  -37.3676  -23.7240 O   0  5  0  0  0  0  0  0  0  0  0  0
  -24.8825  -35.6665  -24.8108 O   0  0  0  0  0  0  0  0  0  0  0  0
  -18.0180  -38.4500  -25.3381 O   0  0  0  0  0  0  0  0  0  0  0  0
  -22.0912  -34.3689  -26.3806 C   0  0  0  0  0  0  0  0  0  0  0  0
  -20.9788  -39.6936  -25.3984 C   0  0  0  0  0  0  0  0  0  0  0  0
  -22.5320  -35.5632  -25.7368 O   0  0  0  0  0  0  0  0  0  0  0  0
  -20.4851  -38.4511  -25.8934 O   0  0  0  0  0  0  0  0  0  0  0  0
  -20.5909  -34.4534  -26.6351 C   0  0  1  0  0  0  0  0  0  0  0  0
  -22.4994  -39.6437  -25.3194 C   0  0  1  0  0  0  0  0  0  0  0  0
  -20.0507  -33.1365  -26.7745 O   0  0  0  0  0  0  0  0  0  0  0  0
  -22.9647  -40.6019  -24.3659 O   0  0  0  0  0  0  0  0  0  0  0  0
  -19.8735  -35.1306  -25.4796 C   0  0  1  0  0  0  0  0  0  0  0  0
  -22.9842  -38.2729  -24.8749 C   0  0  1  0  0  0  0  0  0  0  0  0
  -19.1944  -36.2946  -25.9408 O   0  0  0  0  0  0  0  0  0  0  0  0
  -23.8330  -37.7087  -25.8700 O   0  0  0  0  0  0  0  0  0  0  0  0
  -18.8732  -34.1225  -24.9452 C   0  0  0  0  0  0  0  0  0  0  0  0
  -23.7607  -38.4877  -23.5901 C   0  0  0  0  0  0  0  0  0  0  0  0
  -19.0333  -32.8765  -25.8036 C   0  0  2  0  0  0  0  0  0  0  0  0
  -23.7116  -39.9840  -23.3150 C   0  0  2  0  0  0  0  0  0  0  0  0
  -17.6577  -28.2182  -23.8072 N   0  0  0  0  0  0  0  0  0  0  0  0
  -16.9763  -29.0513  -24.6151 C   0  0  0  0  0  0  0  0  0  0  0  0
  -17.4590  -30.2286  -25.0534 N   0  0  0  0  0  0  0  0  0  0  0  0
  -18.6951  -30.6503  -24.6941 C   0  0  0  0  0  0  0  0  0  0  0  0
  -19.5033  -29.7940  -23.8119 C   0  0  0  0  0  0  0  0  0  0  0  0
  -18.9027  -28.5127  -23.3706 C   0  0  0  0  0  0  0  0  0  0  0  0
  -19.5790  -27.6653  -22.5581 N   0  0  0  0  0  0  0  0  0  0  0  0
  -20.6688  -30.4381  -23.6141 N   0  0  0  0  0  0  0  0  0  0  0  0
  -20.6130  -31.6039  -24.3076 C   0  0  0  0  0  0  0  0  0  0  0  0
  -19.4368  -31.7304  -24.9516 N   0  0  0  0  0  0  0  0  0  0  0  0
  -23.1634  -38.4542  -18.3219 N   0  0  0  0  0  0  0  0  0  0  0  0
  -23.9299  -37.9475  -19.3053 C   0  0  0  0  0  0  0  0  0  0  0  0
  -23.9713  -38.4473  -20.5535 N   0  0  0  0  0  0  0  0  0  0  0  0
  -23.2195  -39.5212  -20.8966 C   0  0  0  0  0  0  0  0  0  0  0  0
  -22.3547  -40.1323  -19.8755 C   0  0  0  0  0  0  0  0  0  0  0  0
  -22.3647  -39.5243  -18.5240 C   0  0  0  0  0  0  0  0  0  0  0  0
  -21.5977  -40.0259  -17.5250 N   0  0  0  0  0  0  0  0  0  0  0  0
  -21.7284  -41.1648  -20.4710 N   0  0  0  0  0  0  0  0  0  0  0  0
  -22.1543  -41.2103  -21.7596 C   0  0  0  0  0  0  0  0  0  0  0  0
  -23.0422  -40.2314  -22.0132 N   0  0  0  0  0  0  0  0  0  0  0  0
  1  3  1  6  0  0  0
  1  5  2  0  0  0  0
  1  9  1  0  0  0  0
  1 18  1  0  0  0  0
  2  4  1  1  0  0  0
  2  6  2  0  0  0  0
  2 10  1  0  0  0  0
  2 17  1  0  0  0  0
  7  9  1  0  0  0  0
  8 10  1  0  0  0  0
 11  7  1  1  0  0  0
 11 13  1  0  0  0  0
 11 15  1  0  0  0  0
 12  8  1  1  0  0  0
 12 14  1  0  0  0  0
 12 16  1  0  0  0  0
 13 21  1  0  0  0  0
 14 22  1  0  0  0  0
 15 17  1  6  0  0  0
 15 19  1  0  0  0  0
 16 18  1  6  0  0  0
 16 20  1  0  0  0  0
 19 21  1  0  0  0  0
 20 22  1  0  0  0  0
 21 32  1  1  0  0  0
 22 42  1  1  0  0  0
 23 24  2  0  0  0  0
 23 28  1  0  0  0  0
 24 25  1  0  0  0  0
 25 26  2  0  0  0  0
 26 27  1  0  0  0  0
 26 32  1  0  0  0  0
 27 28  2  0  0  0  0
 27 30  1  0  0  0  0
 28 29  1  0  0  0  0
 30 31  2  0  0  0  0
 31 32  1  0  0  0  0
 33 34  2  0  0  0  0
 33 38  1  0  0  0  0
 34 35  1  0  0  0  0
 35 36  2  0  0  0  0
 36 37  1  0  0  0  0
 36 42  1  0  0  0  0
 37 38  2  0  0  0  0
 37 40  1  0  0  0  0
 38 39  1  0  0  0  0
 40 41  2  0  0  0  0
 41 42  1  0  0  0  0
M  CHG  2   3  -1   4  -1
M  END
>  <CHROM.1>
-128.56234544,159.83734550,-21.25869541,-35.93784581,-23.97451268,2.80303518
1.17730851,1.64784779

>  <Name>
ligand

>  <RI>
0

>  <Rbt.Current_Directory>
/home/itssahil/PROJECTS/Mol_Feturizer/New_Systems/rnas/4QLN

>  <Rbt.Executable>
rbdock ($Id: //depot/dev/client3/rdock/2013.1/src/exe/rbdock.cxx#4 $)

>  <Rbt.Library>
libRbt.so (2013.1, Build901 2013/11/27)

>  <Rbt.Parameter_File>
/export/apps/rDock/src/rDock_2013.1_src/data/scripts/dock_solv.prm

>  <Rbt.Receptor>
prm/blind_docking_60.prm

>  <SCORE>
155.782

>  <SCORE.INTER>
147.766

>  <SCORE.INTER.CONST>
1

>  <SCORE.INTER.POLAR>
0

>  <SCORE.INTER.ROT>
2

>  <SCORE.INTER.SOLV>
40.9311

>  <SCORE.INTER.VDW>
79.9335

>  <SCORE.INTER.norm>
3.51823

>  <SCORE.INTRA>
1.25036

>  <SCORE.INTRA.DIHEDRAL>
-0.000392218

>  <SCORE.INTRA.DIHEDRAL.0>
2.39985

>  <SCORE.INTRA.POLAR>
0

>  <SCORE.INTRA.POLAR.0>
0

>  <SCORE.INTRA.REPUL>
0

>  <SCORE.INTRA.REPUL.0>
0

>  <SCORE.INTRA.SOLV>
-0.147207

>  <SCORE.INTRA.SOLV.lig_0>
-110.958

>  <SCORE.INTRA.VDW>
1.32416

>  <SCORE.INTRA.VDW.0>
-2.34644

>  <SCORE.INTRA.norm>
0.0297705

>  <SCORE.RESTR>
6.76635

>  <SCORE.RESTR.CAVITY>
6.76635

>  <SCORE.RESTR.norm>
0.161104

>  <SCORE.SYSTEM>
0

>  <SCORE.SYSTEM.CONST>
0

>  <SCORE.SYSTEM.DIHEDRAL>
0

>  <SCORE.SYSTEM.SOLV>
0

>  <SCORE.SYSTEM.norm>
0

>  <SCORE.heavy>
42

>  <SCORE.norm>
3.70911

>  <RMSD>
28.917

$$$$
ligand
 OpenBabel11021811513D
libRbt.so/2013.1/901 2013/11/27
 42 48  0  0  0  0  0  0  0  0999 V2000
  -19.5252  -21.6419   -4.2723 P   0  0  2  0  0  0  0  0  0  0  0  0
  -17.9642  -26.0441   -6.1954 P   0  0  1  0  0  0  0  0  0  0  0  0
  -19.1885  -20.3668   -5.0097 O   0  5  0  0  0  0  0  0  0  0  0  0
  -18.3595  -26.4509   -4.7958 O   0  5  0  0  0  0  0  0  0  0  0  0
  -20.0019  -21.5805   -2.8409 O   0  0  0  0  0  0  0  0  0  0  0  0
  -17.6933  -27.1005   -7.2395 O   0  0  0  0  0  0  0  0  0  0  0  0
  -16.9236  -22.0722   -4.3316 C   0  0  0  0  0  0  0  0  0  0  0  0
  -20.4441  -25.4792   -6.8915 C   0  0  0  0  0  0  0  0  0  0  0  0
  -18.2435  -22.6135   -4.3356 O   0  0  0  0  0  0  0  0  0  0  0  0
  -19.0912  -25.0467   -6.7677 O   0  0  0  0  0  0  0  0  0  0  0  0
  -15.9946  -22.9937   -5.1129 C   0  0  1  0  0  0  0  0  0  0  0  0
  -21.3693  -24.4501   -6.2544 C   0  0  1  0  0  0  0  0  0  0  0  0
  -14.6429  -22.7813   -4.6964 O   0  0  0  0  0  0  0  0  0  0  0  0
  -22.6027  -25.0724   -5.8867 O   0  0  0  0  0  0  0  0  0  0  0  0
  -16.3331  -24.4543   -4.8671 C   0  0  1  0  0  0  0  0  0  0  0  0
  -20.7540  -23.8589   -4.9960 C   0  0  1  0  0  0  0  0  0  0  0  0
  -16.6694  -25.0915   -6.0958 O   0  0  0  0  0  0  0  0  0  0  0  0
  -20.6200  -22.4475   -5.1345 O   0  0  0  0  0  0  0  0  0  0  0  0
  -15.0886  -25.0898   -4.2755 C   0  0  0  0  0  0  0  0  0  0  0  0
  -21.7054  -24.1820   -3.8601 C   0  0  0  0  0  0  0  0  0  0  0  0
  -14.0513  -23.9801   -4.1883 C   0  0  2  0  0  0  0  0  0  0  0  0
  -22.8579  -24.9554   -4.4848 C   0  0  2  0  0  0  0  0  0  0  0  0
  -15.6253  -22.7219    0.6613 N   0  0  0  0  0  0  0  0  0  0  0  0
  -16.3277  -22.8110   -0.4832 C   0  0  0  0  0  0  0  0  0  0  0  0
  -15.7864  -23.1483   -1.6683 N   0  0  0  0  0  0  0  0  0  0  0  0
  -14.4647  -23.4254   -1.7752 C   0  0  0  0  0  0  0  0  0  0  0  0
  -13.6286  -23.3500   -0.5669 C   0  0  0  0  0  0  0  0  0  0  0  0
  -14.2972  -22.9712    0.7006 C   0  0  0  0  0  0  0  0  0  0  0  0
  -13.6011  -22.8790    1.8593 N   0  0  0  0  0  0  0  0  0  0  0  0
  -12.3765  -23.6671   -0.9461 N   0  0  0  0  0  0  0  0  0  0  0  0
  -12.4067  -23.9229   -2.2791 C   0  0  0  0  0  0  0  0  0  0  0  0
  -13.6514  -23.7792   -2.7734 N   0  0  0  0  0  0  0  0  0  0  0  0
  -20.2221  -29.2423   -2.9857 N   0  0  0  0  0  0  0  0  0  0  0  0
  -19.7784  -28.1049   -3.5521 C   0  0  0  0  0  0  0  0  0  0  0  0
  -20.5772  -27.0758   -3.8876 N   0  0  0  0  0  0  0  0  0  0  0  0
  -21.9126  -27.1325   -3.6653 C   0  0  0  0  0  0  0  0  0  0  0  0
  -22.4744  -28.3441   -3.0484 C   0  0  0  0  0  0  0  0  0  0  0  0
  -21.5296  -29.4338   -2.7076 C   0  0  0  0  0  0  0  0  0  0  0  0
  -21.9642  -30.5839   -2.1361 N   0  0  0  0  0  0  0  0  0  0  0  0
  -23.8010  -28.1404   -2.9413 N   0  0  0  0  0  0  0  0  0  0  0  0
  -24.0652  -26.9075   -3.4455 C   0  0  0  0  0  0  0  0  0  0  0  0
  -22.9407  -26.3073   -3.8768 N   0  0  0  0  0  0  0  0  0  0  0  0
  1  3  1  6  0  0  0
  1  5  2  0  0  0  0
  1  9  1  0  0  0  0
  1 18  1  0  0  0  0
  2  4  1  1  0  0  0
  2  6  2  0  0  0  0
  2 10  1  0  0  0  0
  2 17  1  0  0  0  0
  7  9  1  0  0  0  0
  8 10  1  0  0  0  0
 11  7  1  1  0  0  0
 11 13  1  0  0  0  0
 11 15  1  0  0  0  0
 12  8  1  1  0  0  0
 12 14  1  0  0  0  0
 12 16  1  0  0  0  0
 13 21  1  0  0  0  0
 14 22  1  0  0  0  0
 15 17  1  6  0  0  0
 15 19  1  0  0  0  0
 16 18  1  6  0  0  0
 16 20  1  0  0  0  0
 19 21  1  0  0  0  0
 20 22  1  0  0  0  0
 21 32  1  1  0  0  0
 22 42  1  1  0  0  0
 23 24  2  0  0  0  0
 23 28  1  0  0  0  0
 24 25  1  0  0  0  0
 25 26  2  0  0  0  0
 26 27  1  0  0  0  0
 26 32  1  0  0  0  0
 27 28  2  0  0  0  0
 27 30  1  0  0  0  0
 28 29  1  0  0  0  0
 30 31  2  0  0  0  0
 31 32  1  0  0  0  0
 33 34  2  0  0  0  0
 33 38  1  0  0  0  0
 34 35  1  0  0  0  0
 35 36  2  0  0  0  0
 36 37  1  0  0  0  0
 36 42  1  0  0  0  0
 37 38  2  0  0  0  0
 37 40  1  0  0  0  0
 38 39  1  0  0  0  0
 40 41  2  0  0  0  0
 41 42  1  0  0  0  0
M  CHG  2   3  -1   4  -1
M  END
>  <CHROM.1>
57.97116219,72.49657975,-18.40932561,-24.69836318,-3.79959634,0.18902522
-0.50691116,-0.61220376

>  <Name>
ligand

>  <RI>
0

>  <Rbt.Current_Directory>
/home/itssahil/PROJECTS/Mol_Feturizer/New_Systems/rnas/4QLN

>  <Rbt.Executable>
rbdock ($Id: //depot/dev/client3/rdock/2013.1/src/exe/rbdock.cxx#4 $)

>  <Rbt.Library>
libRbt.so (2013.1, Build901 2013/11/27)

>  <Rbt.Parameter_File>
/export/apps/rDock/src/rDock_2013.1_src/data/scripts/dock_solv.prm

>  <Rbt.Receptor>
prm/blind_docking_80.prm

>  <SCORE>
32.6416

>  <SCORE.INTER>
17.6882

>  <SCORE.INTER.CONST>
1

>  <SCORE.INTER.POLAR>
0

>  <SCORE.INTER.ROT>
2

>  <SCORE.INTER.SOLV>
37.2916

>  <SCORE.INTER.VDW>
-5.57176

>  <SCORE.INTER.norm>
0.421147

>  <SCORE.INTRA>
1.49765

>  <SCORE.INTRA.DIHEDRAL>
0.000579231

>  <SCORE.INTRA.DIHEDRAL.0>
2.39985

>  <SCORE.INTRA.POLAR>
0

>  <SCORE.INTRA.POLAR.0>
0

>  <SCORE.INTRA.REPUL>
0

>  <SCORE.INTRA.REPUL.0>
0

>  <SCORE.INTRA.SOLV>
1.20106

>  <SCORE.INTRA.SOLV.lig_0>
-110.958

>  <SCORE.INTRA.VDW>
0.896825

>  <SCORE.INTRA.VDW.0>
-2.34644

>  <SCORE.INTRA.norm>
0.0356582

>  <SCORE.RESTR>
13.4558

>  <SCORE.RESTR.CAVITY>
13.4558

>  <SCORE.RESTR.norm>
0.320376

>  <SCORE.SYSTEM>
0

>  <SCORE.SYSTEM.CONST>
0

>  <SCORE.SYSTEM.DIHEDRAL>
0

>  <SCORE.SYSTEM.SOLV>
0

>  <SCORE.SYSTEM.norm>
0

>  <SCORE.heavy>
42

>  <SCORE.norm>
0.777181

>  <RMSD>
28.922

$$$$
ligand
 OpenBabel11021811513D
libRbt.so/2013.1/901 2013/11/27
 42 48  0  0  0  0  0  0  0  0999 V2000
  -19.5220  -21.6085   -4.2594 P   0  0  2  0  0  0  0  0  0  0  0  0
  -17.9670  -26.0170   -6.1730 P   0  0  1  0  0  0  0  0  0  0  0  0
  -19.1915  -20.3361   -5.0043 O   0  5  0  0  0  0  0  0  0  0  0  0
  -18.3531  -26.4182   -4.7693 O   0  5  0  0  0  0  0  0  0  0  0  0
  -19.9899  -21.5415   -2.8254 O   0  0  0  0  0  0  0  0  0  0  0  0
  -17.7012  -27.0775   -7.2141 O   0  0  0  0  0  0  0  0  0  0  0  0
  -16.9202  -22.0356   -4.3329 C   0  0  0  0  0  0  0  0  0  0  0  0
  -20.4519  -25.4583   -6.8562 C   0  0  0  0  0  0  0  0  0  0  0  0
  -18.2393  -22.5787   -4.3264 O   0  0  0  0  0  0  0  0  0  0  0  0
  -19.0989  -25.0235   -6.7427 O   0  0  0  0  0  0  0  0  0  0  0  0
  -15.9948  -22.9593   -5.1159 C   0  0  1  0  0  0  0  0  0  0  0  0
  -21.3745  -24.4276   -6.2178 C   0  0  1  0  0  0  0  0  0  0  0  0
  -14.6409  -22.7434   -4.7087 O   0  0  0  0  0  0  0  0  0  0  0  0
  -22.6048  -25.0500   -5.8398 O   0  0  0  0  0  0  0  0  0  0  0  0
  -16.3298  -24.4193   -4.8617 C   0  0  1  0  0  0  0  0  0  0  0  0
  -20.7522  -23.8302   -4.9658 C   0  0  1  0  0  0  0  0  0  0  0  0
  -16.6729  -25.0622   -6.0855 O   0  0  0  0  0  0  0  0  0  0  0  0
  -20.6210  -22.4193   -5.1112 O   0  0  0  0  0  0  0  0  0  0  0  0
  -15.0809  -25.0506   -4.2751 C   0  0  0  0  0  0  0  0  0  0  0  0
  -21.6962  -24.1496   -3.8227 C   0  0  0  0  0  0  0  0  0  0  0  0
  -14.0446  -23.9392   -4.1990 C   0  0  2  0  0  0  0  0  0  0  0  0
  -22.8515  -24.9272   -4.4369 C   0  0  2  0  0  0  0  0  0  0  0  0
  -15.6105  -22.7821    0.6782 N   0  0  0  0  0  0  0  0  0  0  0  0
  -16.3225  -22.8925   -0.4585 C   0  0  0  0  0  0  0  0  0  0  0  0
  -15.7820  -23.1985   -1.6524 N   0  0  0  0  0  0  0  0  0  0  0  0
  -14.4514  -23.4192   -1.7771 C   0  0  0  0  0  0  0  0  0  0  0  0
  -13.6045  -23.3174   -0.5783 C   0  0  0  0  0  0  0  0  0  0  0  0
  -14.2728  -22.9758    0.6999 C   0  0  0  0  0  0  0  0  0  0  0  0
  -13.5671  -22.8626    1.8509 N   0  0  0  0  0  0  0  0  0  0  0  0
  -12.3448  -23.5790   -0.9747 N   0  0  0  0  0  0  0  0  0  0  0  0
  -12.3806  -23.8265   -2.3091 C   0  0  0  0  0  0  0  0  0  0  0  0
  -13.6361  -23.7316   -2.7875 N   0  0  0  0  0  0  0  0  0  0  0  0
  -20.2176  -29.2471   -3.0321 N   0  0  0  0  0  0  0  0  0  0  0  0
  -19.7811  -28.1171   -3.6187 C   0  0  0  0  0  0  0  0  0  0  0  0
  -20.5783  -27.0778   -3.9249 N   0  0  0  0  0  0  0  0  0  0  0  0
  -21.9045  -27.1155   -3.6498 C   0  0  0  0  0  0  0  0  0  0  0  0
  -22.4581  -28.3179   -3.0080 C   0  0  0  0  0  0  0  0  0  0  0  0
  -21.5156  -29.4199   -2.7020 C   0  0  0  0  0  0  0  0  0  0  0  0
  -21.9430  -30.5626   -2.1107 N   0  0  0  0  0  0  0  0  0  0  0  0
  -23.7765  -28.0956   -2.8489 N   0  0  0  0  0  0  0  0  0  0  0  0
  -24.0434  -26.8602   -3.3455 C   0  0  0  0  0  0  0  0  0  0  0  0
  -22.9287  -26.2766   -3.8226 N   0  0  0  0  0  0  0  0  0  0  0  0
  1  3  1  6  0  0  0
  1  5  2  0  0  0  0
  1  9  1  0  0  0  0
  1 18  1  0  0  0  0
  2  4  1  1  0  0  0
  2  6  2  0  0  0  0
  2 10  1  0  0  0  0
  2 17  1  0  0  0  0
  7  9  1  0  0  0  0
  8 10  1  0  0  0  0
 11  7  1  1  0  0  0
 11 13  1  0  0  0  0
 11 15  1  0  0  0  0
 12  8  1  1  0  0  0
 12 14  1  0  0  0  0
 12 16  1  0  0  0  0
 13 21  1  0  0  0  0
 14 22  1  0  0  0  0
 15 17  1  6  0  0  0
 15 19  1  0  0  0  0
 16 18  1  6  0  0  0
 16 20  1  0  0  0  0
 19 21  1  0  0  0  0
 20 22  1  0  0  0  0
 21 32  1  1  0  0  0
 22 42  1  1  0  0  0
 23 24  2  0  0  0  0
 23 28  1  0  0  0  0
 24 25  1  0  0  0  0
 25 26  2  0  0  0  0
 26 27  1  0  0  0  0
 26 32  1  0  0  0  0
 27 28  2  0  0  0  0
 27 30  1  0  0  0  0
 28 29  1  0  0  0  0
 30 31  2  0  0  0  0
 31 32  1  0  0  0  0
 33 34  2  0  0  0  0
 33 38  1  0  0  0  0
 34 35  1  0  0  0  0
 35 36  2  0  0  0  0
 36 37  1  0  0  0  0
 36 42  1  0  0  0  0
 37 38  2  0  0  0  0
 37 40  1  0  0  0  0
 38 39  1  0  0  0  0
 40 41  2  0  0  0  0
 41 42  1  0  0  0  0
M  CHG  2   3  -1   4  -1
M  END
>  <CHROM.1>
60.41116624,70.38916671,-18.40215623,-24.67481451,-3.78634115,0.19324586
-0.50225452,-0.61130694

>  <Name>
ligand

>  <RI>
0

>  <Rbt.Current_Directory>
/home/itssahil/PROJECTS/Mol_Feturizer/New_Systems/rnas/4QLN

>  <Rbt.Executable>
rbdock ($Id: //depot/dev/client3/rdock/2013.1/src/exe/rbdock.cxx#4 $)

>  <Rbt.Library>
libRbt.so (2013.1, Build901 2013/11/27)

>  <Rbt.Parameter_File>
/export/apps/rDock/src/rDock_2013.1_src/data/scripts/dock_solv.prm

>  <Rbt.Receptor>
prm/blind_docking_80.prm

>  <SCORE>
32.2553

>  <SCORE.INTER>
17.1212

>  <SCORE.INTER.CONST>
1

>  <SCORE.INTER.POLAR>
0

>  <SCORE.INTER.ROT>
2

>  <SCORE.INTER.SOLV>
37.2313

>  <SCORE.INTER.VDW>
-5.92962

>  <SCORE.INTER.norm>
0.407648

>  <SCORE.INTRA>
1.55716

>  <SCORE.INTRA.DIHEDRAL>
0.000544038

>  <SCORE.INTRA.DIHEDRAL.0>
2.39985

>  <SCORE.INTRA.POLAR>
0

>  <SCORE.INTRA.POLAR.0>
0

>  <SCORE.INTRA.REPUL>
0

>  <SCORE.INTRA.REPUL.0>
0

>  <SCORE.INTRA.SOLV>
1.22573

>  <SCORE.INTRA.SOLV.lig_0>
-110.958

>  <SCORE.INTRA.VDW>
0.94402

>  <SCORE.INTRA.VDW.0>
-2.34644

>  <SCORE.INTRA.norm>
0.0370752

>  <SCORE.RESTR>
13.5769

>  <SCORE.RESTR.CAVITY>
13.5769

>  <SCORE.RESTR.norm>
0.323259

>  <SCORE.SYSTEM>
0

>  <SCORE.SYSTEM.CONST>
0

>  <SCORE.SYSTEM.DIHEDRAL>
0

>  <SCORE.SYSTEM.SOLV>
0

>  <SCORE.SYSTEM.norm>
0

>  <SCORE.heavy>
42

>  <SCORE.norm>
0.767983

>  <RMSD>
28.929

$$$$
ligand
 OpenBabel11021811513D
libRbt.so/2013.1/901 2013/11/27
 42 48  0  0  0  0  0  0  0  0999 V2000
  -18.0860  -37.6391  -25.2183 P   0  0  2  0  0  0  0  0  0  0  0  0
  -22.7641  -36.0643  -26.2906 P   0  0  1  0  0  0  0  0  0  0  0  0
  -17.5453  -38.8529  -25.9375 O   0  5  0  0  0  0  0  0  0  0  0  0
  -22.4733  -35.2997  -25.0213 O   0  5  0  0  0  0  0  0  0  0  0  0
  -17.3931  -37.1281  -23.9779 O   0  0  0  0  0  0  0  0  0  0  0  0
  -23.9605  -35.6966  -27.1350 O   0  0  0  0  0  0  0  0  0  0  0  0
  -20.0753  -39.2327  -24.5401 C   0  0  0  0  0  0  0  0  0  0  0  0
  -20.9355  -34.7598  -27.6719 C   0  0  0  0  0  0  0  0  0  0  0  0
  -19.6299  -37.9148  -24.8560 O   0  0  0  0  0  0  0  0  0  0  0  0
  -21.4528  -36.0104  -27.2234 O   0  0  0  0  0  0  0  0  0  0  0  0
  -21.5299  -39.3927  -24.9658 C   0  0  1  0  0  0  0  0  0  0  0  0
  -19.4392  -34.6965  -27.3921 C   0  0  1  0  0  0  0  0  0  0  0  0
  -22.1372  -40.4506  -24.2191 O   0  0  0  0  0  0  0  0  0  0  0  0
  -19.0190  -33.3318  -27.3215 O   0  0  0  0  0  0  0  0  0  0  0  0
  -22.3232  -38.1236  -24.7040 C   0  0  1  0  0  0  0  0  0  0  0  0
  -19.0973  -35.3570  -26.0660 C   0  0  1  0  0  0  0  0  0  0  0  0
  -22.8697  -37.6287  -25.9227 O   0  0  0  0  0  0  0  0  0  0  0  0
  -18.1837  -36.4296  -26.2760 O   0  0  0  0  0  0  0  0  0  0  0  0
  -23.4402  -38.5046  -23.7502 C   0  0  0  0  0  0  0  0  0  0  0  0
  -18.4535  -34.2865  -25.2063 C   0  0  0  0  0  0  0  0  0  0  0  0
  -23.2695  -39.9914  -23.4761 C   0  0  2  0  0  0  0  0  0  0  0  0
  -18.4338  -33.0226  -26.0542 C   0  0  2  0  0  0  0  0  0  0  0  0
  -21.1395  -38.1113  -19.0594 N   0  0  0  0  0  0  0  0  0  0  0  0
  -21.1548  -37.5967  -20.3029 C   0  0  0  0  0  0  0  0  0  0  0  0
  -21.7459  -38.1961  -21.3528 N   0  0  0  0  0  0  0  0  0  0  0  0
  -22.3773  -39.3859  -21.2091 C   0  0  0  0  0  0  0  0  0  0  0  0
  -22.4046  -40.0134  -19.8786 C   0  0  0  0  0  0  0  0  0  0  0  0
  -21.7310  -39.2926  -18.7724 C   0  0  0  0  0  0  0  0  0  0  0  0
  -21.7096  -39.7999  -17.5163 N   0  0  0  0  0  0  0  0  0  0  0  0
  -23.0839  -41.1680  -20.0125 N   0  0  0  0  0  0  0  0  0  0  0  0
  -23.4588  -41.2718  -21.3132 C   0  0  0  0  0  0  0  0  0  0  0  0
  -23.0380  -40.2096  -22.0266 N   0  0  0  0  0  0  0  0  0  0  0  0
  -22.9642  -31.7559  -23.7212 N   0  0  0  0  0  0  0  0  0  0  0  0
  -22.5609  -32.9228  -24.2570 C   0  0  0  0  0  0  0  0  0  0  0  0
  -21.3573  -33.1061  -24.8292 N   0  0  0  0  0  0  0  0  0  0  0  0
  -20.4598  -32.0934  -24.8978 C   0  0  0  0  0  0  0  0  0  0  0  0
  -20.8270  -30.7856  -24.3332 C   0  0  0  0  0  0  0  0  0  0  0  0
  -22.1706  -30.6632  -23.7199 C   0  0  0  0  0  0  0  0  0  0  0  0
  -22.5881  -29.4935  -23.1762 N   0  0  0  0  0  0  0  0  0  0  0  0
  -19.7721  -29.9725  -24.5304 N   0  0  0  0  0  0  0  0  0  0  0  0
  -18.8143  -30.6957  -25.1656 C   0  0  0  0  0  0  0  0  0  0  0  0
  -19.2238  -31.9588  -25.3846 N   0  0  0  0  0  0  0  0  0  0  0  0
  1  3  1  6  0  0  0
  1  5  2  0  0  0  0
  1  9  1  0  0  0  0
  1 18  1  0  0  0  0
  2  4  1  1  0  0  0
  2  6  2  0  0  0  0
  2 10  1  0  0  0  0
  2 17  1  0  0  0  0
  7  9  1  0  0  0  0
  8 10  1  0  0  0  0
 11  7  1  1  0  0  0
 11 13  1  0  0  0  0
 11 15  1  0  0  0  0
 12  8  1  1  0  0  0
 12 14  1  0  0  0  0
 12 16  1  0  0  0  0
 13 21  1  0  0  0  0
 14 22  1  0  0  0  0
 15 17  1  6  0  0  0
 15 19  1  0  0  0  0
 16 18  1  6  0  0  0
 16 20  1  0  0  0  0
 19 21  1  0  0  0  0
 20 22  1  0  0  0  0
 21 32  1  1  0  0  0
 22 42  1  1  0  0  0
 23 24  2  0  0  0  0
 23 28  1  0  0  0  0
 24 25  1  0  0  0  0
 25 26  2  0  0  0  0
 26 27  1  0  0  0  0
 26 32  1  0  0  0  0
 27 28  2  0  0  0  0
 27 30  1  0  0  0  0
 28 29  1  0  0  0  0
 30 31  2  0  0  0  0
 31 32  1  0  0  0  0
 33 34  2  0  0  0  0
 33 38  1  0  0  0  0
 34 35  1  0  0  0  0
 35 36  2  0  0  0  0
 36 37  1  0  0  0  0
 36 42  1  0  0  0  0
 37 38  2  0  0  0  0
 37 40  1  0  0  0  0
 38 39  1  0  0  0  0
 40 41  2  0  0  0  0
 41 42  1  0  0  0  0
M  CHG  2   3  -1   4  -1
M  END
>  <CHROM.1>
84.56424453,68.93180921,-21.00511417,-36.22832396,-24.20860171,-1.99386654
1.05138635,-0.13969834

>  <Name>
ligand

>  <RI>
0

>  <Rbt.Current_Directory>
/home/itssahil/PROJECTS/Mol_Feturizer/New_Systems/rnas/4QLN

>  <Rbt.Executable>
rbdock ($Id: //depot/dev/client3/rdock/2013.1/src/exe/rbdock.cxx#4 $)

>  <Rbt.Library>
libRbt.so (2013.1, Build901 2013/11/27)

>  <Rbt.Parameter_File>
/export/apps/rDock/src/rDock_2013.1_src/data/scripts/dock_solv.prm

>  <Rbt.Receptor>
prm/blind_docking_60.prm

>  <SCORE>
151.545

>  <SCORE.INTER>
144.06

>  <SCORE.INTER.CONST>
1

>  <SCORE.INTER.POLAR>
0

>  <SCORE.INTER.ROT>
2

>  <SCORE.INTER.SOLV>
42.822

>  <SCORE.INTER.VDW>
76.8327

>  <SCORE.INTER.norm>
3.43

>  <SCORE.INTRA>
2.3731

>  <SCORE.INTRA.DIHEDRAL>
0.000739306

>  <SCORE.INTRA.DIHEDRAL.0>
2.39985

>  <SCORE.INTRA.POLAR>
0

>  <SCORE.INTRA.POLAR.0>
0

>  <SCORE.INTRA.REPUL>
0

>  <SCORE.INTRA.REPUL.0>
0

>  <SCORE.INTRA.SOLV>
1.21388

>  <SCORE.INTRA.SOLV.lig_0>
-110.958

>  <SCORE.INTRA.VDW>
1.76579

>  <SCORE.INTRA.VDW.0>
-2.34644

>  <SCORE.INTRA.norm>
0.0565025

>  <SCORE.RESTR>
5.11217

>  <SCORE.RESTR.CAVITY>
5.11217

>  <SCORE.RESTR.norm>
0.121718

>  <SCORE.SYSTEM>
0

>  <SCORE.SYSTEM.CONST>
0

>  <SCORE.SYSTEM.DIHEDRAL>
0

>  <SCORE.SYSTEM.SOLV>
0

>  <SCORE.SYSTEM.norm>
0

>  <SCORE.heavy>
42

>  <SCORE.norm>
3.60822

>  <RMSD>
28.948

$$$$
ligand
 OpenBabel11021811513D
libRbt.so/2013.1/901 2013/11/27
 42 48  0  0  0  0  0  0  0  0999 V2000
  -19.4745  -21.2936   -4.3175 P   0  0  2  0  0  0  0  0  0  0  0  0
  -17.9119  -25.8104   -5.9518 P   0  0  1  0  0  0  0  0  0  0  0  0
  -19.2798  -20.0906   -5.2107 O   0  5  0  0  0  0  0  0  0  0  0  0
  -18.1373  -26.0835   -4.4838 O   0  5  0  0  0  0  0  0  0  0  0  0
  -19.8003  -21.1012   -2.8557 O   0  0  0  0  0  0  0  0  0  0  0  0
  -17.7012  -26.9590   -6.9087 O   0  0  0  0  0  0  0  0  0  0  0  0
  -16.8757  -21.6293   -4.6186 C   0  0  0  0  0  0  0  0  0  0  0  0
  -20.4758  -25.4151   -6.4244 C   0  0  0  0  0  0  0  0  0  0  0  0
  -18.1607  -22.2174   -4.4238 O   0  0  0  0  0  0  0  0  0  0  0  0
  -19.1402  -24.9213   -6.4935 O   0  0  0  0  0  0  0  0  0  0  0  0
  -15.9903  -22.5915   -5.4013 C   0  0  1  0  0  0  0  0  0  0  0  0
  -21.3779  -24.3608   -5.7954 C   0  0  1  0  0  0  0  0  0  0  0  0
  -14.6143  -22.2861   -5.1589 O   0  0  0  0  0  0  0  0  0  0  0  0
  -22.5339  -24.9875   -5.2344 O   0  0  0  0  0  0  0  0  0  0  0  0
  -16.2294  -24.0303   -4.9755 C   0  0  1  0  0  0  0  0  0  0  0  0
  -20.6631  -23.6188   -4.6773 C   0  0  1  0  0  0  0  0  0  0  0  0
  -16.6618  -24.8044   -6.0903 O   0  0  0  0  0  0  0  0  0  0  0  0
  -20.6134  -22.2255   -4.9697 O   0  0  0  0  0  0  0  0  0  0  0  0
  -14.9001  -24.5532   -4.4637 C   0  0  0  0  0  0  0  0  0  0  0  0
  -21.4727  -23.8572   -3.4174 C   0  0  0  0  0  0  0  0  0  0  0  0
  -13.9147  -23.4021   -4.6018 C   0  0  2  0  0  0  0  0  0  0  0  0
  -22.6455  -24.7345   -3.8317 C   0  0  2  0  0  0  0  0  0  0  0  0
  -14.7844  -23.3003    0.5762 N   0  0  0  0  0  0  0  0  0  0  0  0
  -15.5668  -23.7401   -0.4266 C   0  0  0  0  0  0  0  0  0  0  0  0
  -15.2105  -23.7038   -1.7238 N   0  0  0  0  0  0  0  0  0  0  0  0
  -14.0075  -23.2081   -2.1008 C   0  0  0  0  0  0  0  0  0  0  0  0
  -13.0943  -22.7076   -1.0614 C   0  0  0  0  0  0  0  0  0  0  0  0
  -13.5582  -22.7804    0.3445 C   0  0  0  0  0  0  0  0  0  0  0  0
  -12.7794  -22.3417    1.3627 N   0  0  0  0  0  0  0  0  0  0  0  0
  -11.9877  -22.2786   -1.6968 N   0  0  0  0  0  0  0  0  0  0  0  0
  -12.1746  -22.4854   -3.0255 C   0  0  0  0  0  0  0  0  0  0  0  0
  -13.3783  -23.0397   -3.2665 N   0  0  0  0  0  0  0  0  0  0  0  0
  -19.9089  -27.7810   -0.5451 N   0  0  0  0  0  0  0  0  0  0  0  0
  -19.6155  -26.5694   -1.0524 C   0  0  0  0  0  0  0  0  0  0  0  0
  -20.4205  -25.8967   -1.8944 N   0  0  0  0  0  0  0  0  0  0  0  0
  -21.6065  -26.4205   -2.2880 C   0  0  0  0  0  0  0  0  0  0  0  0
  -21.9987  -27.7426   -1.7758 C   0  0  0  0  0  0  0  0  0  0  0  0
  -21.0582  -28.4201   -0.8524 C   0  0  0  0  0  0  0  0  0  0  0  0
  -21.3426  -29.6402   -0.3343 N   0  0  0  0  0  0  0  0  0  0  0  0
  -23.2008  -28.0217   -2.3144 N   0  0  0  0  0  0  0  0  0  0  0  0
  -23.5473  -26.9713   -3.1022 C   0  0  0  0  0  0  0  0  0  0  0  0
  -22.5978  -26.0177   -3.0866 N   0  0  0  0  0  0  0  0  0  0  0  0
  1  3  1  6  0  0  0
  1  5  2  0  0  0  0
  1  9  1  0  0  0  0
  1 18  1  0  0  0  0
  2  4  1  1  0  0  0
  2  6  2  0  0  0  0
  2 10  1  0  0  0  0
  2 17  1  0  0  0  0
  7  9  1  0  0  0  0
  8 10  1  0  0  0  0
 11  7  1  1  0  0  0
 11 13  1  0  0  0  0
 11 15  1  0  0  0  0
 12  8  1  1  0  0  0
 12 14  1  0  0  0  0
 12 16  1  0  0  0  0
 13 21  1  0  0  0  0
 14 22  1  0  0  0  0
 15 17  1  6  0  0  0
 15 19  1  0  0  0  0
 16 18  1  6  0  0  0
 16 20  1  0  0  0  0
 19 21  1  0  0  0  0
 20 22  1  0  0  0  0
 21 32  1  1  0  0  0
 22 42  1  1  0  0  0
 23 24  2  0  0  0  0
 23 28  1  0  0  0  0
 24 25  1  0  0  0  0
 25 26  2  0  0  0  0
 26 27  1  0  0  0  0
 26 32  1  0  0  0  0
 27 28  2  0  0  0  0
 27 30  1  0  0  0  0
 28 29  1  0  0  0  0
 30 31  2  0  0  0  0
 31 32  1  0  0  0  0
 33 34  2  0  0  0  0
 33 38  1  0  0  0  0
 34 35  1  0  0  0  0
 35 36  2  0  0  0  0
 36 37  1  0  0  0  0
 36 42  1  0  0  0  0
 37 38  2  0  0  0  0
 37 40  1  0  0  0  0
 38 39  1  0  0  0  0
 40 41  2  0  0  0  0
 41 42  1  0  0  0  0
M  CHG  2   3  -1   4  -1
M  END
>  <CHROM.1>
90.84411026,111.38651460,-18.16767704,-24.29211170,-3.50338259,3.00365959
0.42314317,2.17678988

>  <Name>
ligand

>  <RI>
0

>  <Rbt.Current_Directory>
/home/itssahil/PROJECTS/Mol_Feturizer/New_Systems/rnas/4QLN

>  <Rbt.Executable>
rbdock ($Id: //depot/dev/client3/rdock/2013.1/src/exe/rbdock.cxx#4 $)

>  <Rbt.Library>
libRbt.so (2013.1, Build901 2013/11/27)

>  <Rbt.Parameter_File>
/export/apps/rDock/src/rDock_2013.1_src/data/scripts/dock_solv.prm

>  <Rbt.Receptor>
prm/blind_docking_80.prm

>  <SCORE>
40.6808

>  <SCORE.INTER>
22.6967

>  <SCORE.INTER.CONST>
1

>  <SCORE.INTER.POLAR>
0

>  <SCORE.INTER.ROT>
2

>  <SCORE.INTER.SOLV>
33.5517

>  <SCORE.INTER.VDW>
-0.986125

>  <SCORE.INTER.norm>
0.540396

>  <SCORE.INTRA>
2.57819

>  <SCORE.INTRA.DIHEDRAL>
0.0007392

>  <SCORE.INTRA.DIHEDRAL.0>
2.39985

>  <SCORE.INTRA.POLAR>
0

>  <SCORE.INTRA.POLAR.0>
0

>  <SCORE.INTRA.REPUL>
0

>  <SCORE.INTRA.REPUL.0>
0

>  <SCORE.INTRA.SOLV>
0.138979

>  <SCORE.INTRA.SOLV.lig_0>
-110.958

>  <SCORE.INTRA.VDW>
2.50833

>  <SCORE.INTRA.VDW.0>
-2.34644

>  <SCORE.INTRA.norm>
0.0613856

>  <SCORE.RESTR>
15.4059

>  <SCORE.RESTR.CAVITY>
15.4059

>  <SCORE.RESTR.norm>
0.366807

>  <SCORE.SYSTEM>
0

>  <SCORE.SYSTEM.CONST>
0

>  <SCORE.SYSTEM.DIHEDRAL>
0

>  <SCORE.SYSTEM.SOLV>
0

>  <SCORE.SYSTEM.norm>
0

>  <SCORE.heavy>
42

>  <SCORE.norm>
0.968589

>  <RMSD>
29.005

$$$$
ligand
 OpenBabel11021811513D
libRbt.so/2013.1/901 2013/11/27
 42 48  0  0  0  0  0  0  0  0999 V2000
  -18.7965  -37.7116  -25.7692 P   0  0  2  0  0  0  0  0  0  0  0  0
  -23.5356  -35.9660  -25.8624 P   0  0  1  0  0  0  0  0  0  0  0  0
  -18.4368  -38.8842  -26.6515 O   0  5  0  0  0  0  0  0  0  0  0  0
  -22.9935  -35.2974  -24.6217 O   0  5  0  0  0  0  0  0  0  0  0  0
  -17.8731  -37.3026  -24.6468 O   0  0  0  0  0  0  0  0  0  0  0  0
  -24.8523  -35.5152  -26.4478 O   0  0  0  0  0  0  0  0  0  0  0  0
  -20.6824  -39.3050  -24.8410 C   0  0  0  0  0  0  0  0  0  0  0  0
  -21.9450  -34.6089  -27.4692 C   0  0  0  0  0  0  0  0  0  0  0  0
  -20.2574  -37.9783  -25.1483 O   0  0  0  0  0  0  0  0  0  0  0  0
  -22.4143  -35.8760  -27.0144 O   0  0  0  0  0  0  0  0  0  0  0  0
  -22.1947  -39.4038  -25.0022 C   0  0  1  0  0  0  0  0  0  0  0  0
  -20.4216  -34.5973  -27.4651 C   0  0  1  0  0  0  0  0  0  0  0  0
  -22.6917  -40.4974  -24.2260 O   0  0  0  0  0  0  0  0  0  0  0  0
  -19.9496  -33.2502  -27.3856 O   0  0  0  0  0  0  0  0  0  0  0  0
  -22.8839  -38.1391  -24.5186 C   0  0  1  0  0  0  0  0  0  0  0  0
  -19.8671  -35.3552  -26.2693 C   0  0  1  0  0  0  0  0  0  0  0  0
  -23.6255  -37.5495  -25.5822 O   0  0  0  0  0  0  0  0  0  0  0  0
  -19.0436  -36.4301  -26.7114 O   0  0  0  0  0  0  0  0  0  0  0  0
  -23.8214  -38.5608  -23.4025 C   0  0  0  0  0  0  0  0  0  0  0  0
  -19.0422  -34.3607  -25.4754 C   0  0  0  0  0  0  0  0  0  0  0  0
  -23.6542  -40.0664  -23.2601 C   0  0  2  0  0  0  0  0  0  0  0  0
  -19.1340  -33.0420  -26.2300 C   0  0  2  0  0  0  0  0  0  0  0  0
  -23.2795  -38.4790  -18.2682 N   0  0  0  0  0  0  0  0  0  0  0  0
  -23.8353  -37.8713  -19.3326 C   0  0  0  0  0  0  0  0  0  0  0  0
  -23.8582  -38.4022  -20.5690 N   0  0  0  0  0  0  0  0  0  0  0  0
  -23.3067  -39.6147  -20.8153 C   0  0  0  0  0  0  0  0  0  0  0  0
  -22.6791  -40.3430  -19.7015 C   0  0  0  0  0  0  0  0  0  0  0  0
  -22.6930  -39.6928  -18.3696 C   0  0  0  0  0  0  0  0  0  0  0  0
  -22.1376  -40.2949  -17.2904 N   0  0  0  0  0  0  0  0  0  0  0  0
  -22.2172  -41.5002  -20.2114 N   0  0  0  0  0  0  0  0  0  0  0  0
  -22.5212  -41.5128  -21.5345 C   0  0  0  0  0  0  0  0  0  0  0  0
  -23.1709  -40.3892  -21.8946 N   0  0  0  0  0  0  0  0  0  0  0  0
  -18.3528  -28.7579  -23.2959 N   0  0  0  0  0  0  0  0  0  0  0  0
  -17.4781  -29.4950  -24.0051 C   0  0  0  0  0  0  0  0  0  0  0  0
  -17.8228  -30.5815  -24.7194 N   0  0  0  0  0  0  0  0  0  0  0  0
  -19.1096  -31.0036  -24.7638 C   0  0  0  0  0  0  0  0  0  0  0  0
  -20.1259  -30.2494  -24.0139 C   0  0  0  0  0  0  0  0  0  0  0  0
  -19.6674  -29.0641  -23.2515 C   0  0  0  0  0  0  0  0  0  0  0  0
  -20.5388  -28.3132  -22.5340 N   0  0  0  0  0  0  0  0  0  0  0  0
  -21.3006  -30.8720  -24.2266 N   0  0  0  0  0  0  0  0  0  0  0  0
  -21.0577  -31.9316  -25.0404 C   0  0  0  0  0  0  0  0  0  0  0  0
  -19.7529  -32.0102  -25.3602 N   0  0  0  0  0  0  0  0  0  0  0  0
  1  3  1  6  0  0  0
  1  5  2  0  0  0  0
  1  9  1  0  0  0  0
  1 18  1  0  0  0  0
  2  4  1  1  0  0  0
  2  6  2  0  0  0  0
  2 10  1  0  0  0  0
  2 17  1  0  0  0  0
  7  9  1  0  0  0  0
  8 10  1  0  0  0  0
 11  7  1  1  0  0  0
 11 13  1  0  0  0  0
 11 15  1  0  0  0  0
 12  8  1  1  0  0  0
 12 14  1  0  0  0  0
 12 16  1  0  0  0  0
 13 21  1  0  0  0  0
 14 22  1  0  0  0  0
 15 17  1  6  0  0  0
 15 19  1  0  0  0  0
 16 18  1  6  0  0  0
 16 20  1  0  0  0  0
 19 21  1  0  0  0  0
 20 22  1  0  0  0  0
 21 32  1  1  0  0  0
 22 42  1  1  0  0  0
 23 24  2  0  0  0  0
 23 28  1  0  0  0  0
 24 25  1  0  0  0  0
 25 26  2  0  0  0  0
 26 27  1  0  0  0  0
 26 32  1  0  0  0  0
 27 28  2  0  0  0  0
 27 30  1  0  0  0  0
 28 29  1  0  0  0  0
 30 31  2  0  0  0  0
 31 32  1  0  0  0  0
 33 34  2  0  0  0  0
 33 38  1  0  0  0  0
 34 35  1  0  0  0  0
 35 36  2  0  0  0  0
 36 37  1  0  0  0  0
 36 42  1  0  0  0  0
 37 38  2  0  0  0  0
 37 40  1  0  0  0  0
 38 39  1  0  0  0  0
 40 41  2  0  0  0  0
 41 42  1  0  0  0  0
M  CHG  2   3  -1   4  -1
M  END
>  <CHROM.1>
140.83574034,-135.92611497,-21.25511547,-36.05278447,-24.09871471,-2.82538259
1.21566923,0.83632438

>  <Name>
ligand

>  <RI>
0

>  <Rbt.Current_Directory>
/home/itssahil/PROJECTS/Mol_Feturizer/New_Systems/rnas/4QLN

>  <Rbt.Executable>
rbdock ($Id: //depot/dev/client3/rdock/2013.1/src/exe/rbdock.cxx#4 $)

>  <Rbt.Library>
libRbt.so (2013.1, Build901 2013/11/27)

>  <Rbt.Parameter_File>
/export/apps/rDock/src/rDock_2013.1_src/data/scripts/dock_solv.prm

>  <Rbt.Receptor>
prm/blind_docking_60.prm

>  <SCORE>
162.155

>  <SCORE.INTER>
155.173

>  <SCORE.INTER.CONST>
1

>  <SCORE.INTER.POLAR>
0

>  <SCORE.INTER.ROT>
2

>  <SCORE.INTER.SOLV>
38.8273

>  <SCORE.INTER.VDW>
85.5727

>  <SCORE.INTER.norm>
3.69459

>  <SCORE.INTRA>
1.74877

>  <SCORE.INTRA.DIHEDRAL>
0.00047495

>  <SCORE.INTRA.DIHEDRAL.0>
2.39985

>  <SCORE.INTRA.POLAR>
0

>  <SCORE.INTRA.POLAR.0>
0

>  <SCORE.INTRA.REPUL>
0

>  <SCORE.INTRA.REPUL.0>
0

>  <SCORE.INTRA.SOLV>
-0.0945481

>  <SCORE.INTRA.SOLV.lig_0>
-110.958

>  <SCORE.INTRA.VDW>
1.79581

>  <SCORE.INTRA.VDW.0>
-2.34644

>  <SCORE.INTRA.norm>
0.0416374

>  <SCORE.RESTR>
5.23352

>  <SCORE.RESTR.CAVITY>
5.23352

>  <SCORE.RESTR.norm>
0.124608

>  <SCORE.SYSTEM>
0

>  <SCORE.SYSTEM.CONST>
0

>  <SCORE.SYSTEM.DIHEDRAL>
0

>  <SCORE.SYSTEM.SOLV>
0

>  <SCORE.SYSTEM.norm>
0

>  <SCORE.heavy>
42

>  <SCORE.norm>
3.86083

>  <RMSD>
29.040

$$$$
ligand
 OpenBabel11021811513D
libRbt.so/2013.1/901 2013/11/27
 42 48  0  0  0  0  0  0  0  0999 V2000
  -18.7166  -27.0743   -4.7046 P   0  0  2  0  0  0  0  0  0  0  0  0
  -21.0507  -22.8947   -3.0930 P   0  0  1  0  0  0  0  0  0  0  0  0
  -18.5047  -28.2097   -3.7304 O   0  5  0  0  0  0  0  0  0  0  0  0
  -20.4608  -22.4241   -4.4010 O   0  5  0  0  0  0  0  0  0  0  0  0
  -17.9522  -27.0467   -6.0065 O   0  0  0  0  0  0  0  0  0  0  0  0
  -22.0806  -22.0495   -2.3828 O   0  0  0  0  0  0  0  0  0  0  0  0
  -17.4617  -25.6177   -2.8989 C   0  0  0  0  0  0  0  0  0  0  0  0
  -22.7120  -24.5683   -4.2731 C   0  0  0  0  0  0  0  0  0  0  0  0
  -18.4443  -25.6895   -3.9306 O   0  0  0  0  0  0  0  0  0  0  0  0
  -21.6723  -24.3627   -3.3195 O   0  0  0  0  0  0  0  0  0  0  0  0
  -17.8750  -24.5656   -1.8766 C   0  0  1  0  0  0  0  0  0  0  0  0
  -22.3526  -25.7426   -5.1748 C   0  0  1  0  0  0  0  0  0  0  0  0
  -16.7229  -24.1077   -1.1635 O   0  0  0  0  0  0  0  0  0  0  0  0
  -23.0582  -25.6334   -6.4134 O   0  0  0  0  0  0  0  0  0  0  0  0
  -18.5130  -23.3629   -2.5511 C   0  0  1  0  0  0  0  0  0  0  0  0
  -20.8649  -25.7628   -5.4879 C   0  0  1  0  0  0  0  0  0  0  0  0
  -19.8407  -23.1795   -2.0689 O   0  0  0  0  0  0  0  0  0  0  0  0
  -20.2883  -26.9862   -5.0406 O   0  0  0  0  0  0  0  0  0  0  0  0
  -17.6577  -22.1633   -2.1882 C   0  0  0  0  0  0  0  0  0  0  0  0
  -20.7417  -25.6505   -6.9952 C   0  0  0  0  0  0  0  0  0  0  0  0
  -16.5363  -22.6973   -1.3096 C   0  0  2  0  0  0  0  0  0  0  0  0
  -22.1651  -25.5684   -7.5279 C   0  0  2  0  0  0  0  0  0  0  0  0
  -13.9763  -21.8236   -5.8108 N   0  0  0  0  0  0  0  0  0  0  0  0
  -15.2845  -22.0447   -5.5854 C   0  0  0  0  0  0  0  0  0  0  0  0
  -15.8073  -22.2565   -4.3635 N   0  0  0  0  0  0  0  0  0  0  0  0
  -15.0200  -22.2576   -3.2612 C   0  0  0  0  0  0  0  0  0  0  0  0
  -13.5769  -22.0226   -3.4254 C   0  0  0  0  0  0  0  0  0  0  0  0
  -13.0764  -21.7979   -4.8023 C   0  0  0  0  0  0  0  0  0  0  0  0
  -11.7619  -21.5736   -5.0419 N   0  0  0  0  0  0  0  0  0  0  0  0
  -13.0368  -22.0751   -2.1933 N   0  0  0  0  0  0  0  0  0  0  0  0
  -14.0438  -22.3221   -1.3170 C   0  0  0  0  0  0  0  0  0  0  0  0
  -15.2261  -22.4307   -1.9533 N   0  0  0  0  0  0  0  0  0  0  0  0
  -20.9912  -20.4544   -7.7307 N   0  0  0  0  0  0  0  0  0  0  0  0
  -20.6003  -21.4003   -6.8566 C   0  0  0  0  0  0  0  0  0  0  0  0
  -20.9842  -22.6876   -6.9271 N   0  0  0  0  0  0  0  0  0  0  0  0
  -21.8105  -23.1127   -7.9133 C   0  0  0  0  0  0  0  0  0  0  0  0
  -22.2815  -22.1371   -8.9085 C   0  0  0  0  0  0  0  0  0  0  0  0
  -21.8141  -20.7383   -8.7632 C   0  0  0  0  0  0  0  0  0  0  0  0
  -22.2001  -19.7767   -9.6375 N   0  0  0  0  0  0  0  0  0  0  0  0
  -23.0748  -22.8120   -9.7618 N   0  0  0  0  0  0  0  0  0  0  0  0
  -23.1091  -24.1051   -9.3490 C   0  0  0  0  0  0  0  0  0  0  0  0
  -22.3563  -24.2843   -8.2480 N   0  0  0  0  0  0  0  0  0  0  0  0
  1  3  1  1  0  0  0
  1  5  2  0  0  0  0
  1  9  1  0  0  0  0
  1 18  1  0  0  0  0
  2  4  1  6  0  0  0
  2  6  2  0  0  0  0
  2 10  1  0  0  0  0
  2 17  1  0  0  0  0
  7  9  1  0  0  0  0
  8 10  1  0  0  0  0
 11  7  1  6  0  0  0
 11 13  1  0  0  0  0
 11 15  1  0  0  0  0
 12  8  1  1  0  0  0
 12 14  1  0  0  0  0
 12 16  1  0  0  0  0
 13 21  1  0  0  0  0
 14 22  1  0  0  0  0
 15 17  1  1  0  0  0
 15 19  1  0  0  0  0
 16 18  1  6  0  0  0
 16 20  1  0  0  0  0
 19 21  1  0  0  0  0
 20 22  1  0  0  0  0
 21 32  1  6  0  0  0
 22 42  1  1  0  0  0
 23 24  2  0  0  0  0
 23 28  1  0  0  0  0
 24 25  1  0  0  0  0
 25 26  2  0  0  0  0
 26 27  1  0  0  0  0
 26 32  1  0  0  0  0
 27 28  2  0  0  0  0
 27 30  1  0  0  0  0
 28 29  1  0  0  0  0
 30 31  2  0  0  0  0
 31 32  1  0  0  0  0
 33 34  2  0  0  0  0
 33 38  1  0  0  0  0
 34 35  1  0  0  0  0
 35 36  2  0  0  0  0
 36 37  1  0  0  0  0
 36 42  1  0  0  0  0
 37 38  2  0  0  0  0
 37 40  1  0  0  0  0
 38 39  1  0  0  0  0
 40 41  2  0  0  0  0
 41 42  1  0  0  0  0
M  CHG  2   3  -1   4  -1
M  END
>  <CHROM.1>
93.83992432,82.68129487,-19.04922353,-23.67160359,-4.84205513,2.88007484
-0.47972093,-0.72939614

>  <Name>
ligand

>  <RI>
0

>  <Rbt.Current_Directory>
/home/itssahil/PROJECTS/Mol_Feturizer/New_Systems/rnas/4QLN

>  <Rbt.Executable>
rbdock ($Id: //depot/dev/client3/rdock/2013.1/src/exe/rbdock.cxx#4 $)

>  <Rbt.Library>
libRbt.so (2013.1, Build901 2013/11/27)

>  <Rbt.Parameter_File>
/export/apps/rDock/src/rDock_2013.1_src/data/scripts/dock_solv.prm

>  <Rbt.Receptor>
prm/blind_docking_40.prm

>  <SCORE>
23.358

>  <SCORE.INTER>
15.3971

>  <SCORE.INTER.CONST>
1

>  <SCORE.INTER.POLAR>
0

>  <SCORE.INTER.ROT>
2

>  <SCORE.INTER.SOLV>
36.2036

>  <SCORE.INTER.VDW>
-6.73645

>  <SCORE.INTER.norm>
0.366599

>  <SCORE.INTRA>
2.12252

>  <SCORE.INTRA.DIHEDRAL>
0.00110352

>  <SCORE.INTRA.DIHEDRAL.0>
2.39985

>  <SCORE.INTRA.POLAR>
0

>  <SCORE.INTRA.POLAR.0>
0

>  <SCORE.INTRA.REPUL>
0

>  <SCORE.INTRA.REPUL.0>
0

>  <SCORE.INTRA.SOLV>
0.921303

>  <SCORE.INTRA.SOLV.lig_0>
-110.958

>  <SCORE.INTRA.VDW>
1.66131

>  <SCORE.INTRA.VDW.0>
-2.34644

>  <SCORE.INTRA.norm>
0.0505361

>  <SCORE.RESTR>
5.83833

>  <SCORE.RESTR.CAVITY>
5.83833

>  <SCORE.RESTR.norm>
0.139008

>  <SCORE.SYSTEM>
0

>  <SCORE.SYSTEM.CONST>
0

>  <SCORE.SYSTEM.DIHEDRAL>
0

>  <SCORE.SYSTEM.SOLV>
0

>  <SCORE.SYSTEM.norm>
0

>  <SCORE.heavy>
42

>  <SCORE.norm>
0.556142

>  <RMSD>
29.048

$$$$
ligand
 OpenBabel11021811513D
libRbt.so/2013.1/901 2013/11/27
 42 48  0  0  0  0  0  0  0  0999 V2000
  -19.4255  -26.1768   -0.5680 P   0  0  2  0  0  0  0  0  0  0  0  0
  -18.8932  -21.8835   -3.1755 P   0  0  1  0  0  0  0  0  0  0  0  0
  -19.3984  -26.1181    0.9416 O   0  5  0  0  0  0  0  0  0  0  0  0
  -18.6811  -22.9186   -4.2544 O   0  5  0  0  0  0  0  0  0  0  0  0
  -19.2646  -27.5023   -1.2729 O   0  0  0  0  0  0  0  0  0  0  0  0
  -19.1013  -20.4358   -3.5500 O   0  0  0  0  0  0  0  0  0  0  0  0
  -17.0920  -24.9573   -0.4114 C   0  0  0  0  0  0  0  0  0  0  0  0
  -21.4263  -22.5352   -2.8407 C   0  0  0  0  0  0  0  0  0  0  0  0
  -18.3056  -25.1670   -1.1312 O   0  0  0  0  0  0  0  0  0  0  0  0
  -20.1352  -22.3523   -2.2643 O   0  0  0  0  0  0  0  0  0  0  0  0
  -16.5895  -23.5410   -0.6650 C   0  0  1  0  0  0  0  0  0  0  0  0
  -21.9828  -23.8916   -2.4263 C   0  0  1  0  0  0  0  0  0  0  0  0
  -15.1828  -23.4766   -0.4153 O   0  0  0  0  0  0  0  0  0  0  0  0
  -22.9654  -24.3194   -3.3725 O   0  0  0  0  0  0  0  0  0  0  0  0
  -16.8258  -23.1226   -2.1064 C   0  0  1  0  0  0  0  0  0  0  0  0
  -20.8892  -24.9469   -2.3829 C   0  0  1  0  0  0  0  0  0  0  0  0
  -17.6542  -21.9648   -2.1497 O   0  0  0  0  0  0  0  0  0  0  0  0
  -20.7955  -25.4997   -1.0734 O   0  0  0  0  0  0  0  0  0  0  0  0
  -15.4614  -22.8079   -2.6912 C   0  0  0  0  0  0  0  0  0  0  0  0
  -21.2906  -26.0224   -3.3738 C   0  0  0  0  0  0  0  0  0  0  0  0
  -14.4587  -23.0531   -1.5735 C   0  0  2  0  0  0  0  0  0  0  0  0
  -22.6141  -25.5684   -3.9730 C   0  0  2  0  0  0  0  0  0  0  0  0
  -13.8496  -28.0687   -3.0059 N   0  0  0  0  0  0  0  0  0  0  0  0
  -14.9643  -27.3885   -2.6801 C   0  0  0  0  0  0  0  0  0  0  0  0
  -14.9714  -26.0897   -2.3279 N   0  0  0  0  0  0  0  0  0  0  0  0
  -13.8213  -25.3755   -2.2819 C   0  0  0  0  0  0  0  0  0  0  0  0
  -12.5590  -26.0491   -2.6251 C   0  0  0  0  0  0  0  0  0  0  0  0
  -12.6324  -27.4807   -3.0023 C   0  0  0  0  0  0  0  0  0  0  0  0
  -11.5175  -28.1759   -3.3330 N   0  0  0  0  0  0  0  0  0  0  0  0
  -11.5858  -25.1274   -2.5004 N   0  0  0  0  0  0  0  0  0  0  0  0
  -12.1716  -23.9660   -2.1116 C   0  0  0  0  0  0  0  0  0  0  0  0
  -13.5042  -24.1137   -1.9815 N   0  0  0  0  0  0  0  0  0  0  0  0
  -21.6933  -22.2109   -7.9039 N   0  0  0  0  0  0  0  0  0  0  0  0
  -21.7602  -21.9959   -6.5770 C   0  0  0  0  0  0  0  0  0  0  0  0
  -22.0071  -22.9625   -5.6746 N   0  0  0  0  0  0  0  0  0  0  0  0
  -22.2074  -24.2439   -6.0671 C   0  0  0  0  0  0  0  0  0  0  0  0
  -22.1496  -24.5592   -7.5028 C   0  0  0  0  0  0  0  0  0  0  0  0
  -21.8727  -23.4400   -8.4339 C   0  0  0  0  0  0  0  0  0  0  0  0
  -21.8020  -23.6440   -9.7724 N   0  0  0  0  0  0  0  0  0  0  0  0
  -22.3789  -25.8813   -7.6148 N   0  0  0  0  0  0  0  0  0  0  0  0
  -22.5672  -26.3691   -6.3616 C   0  0  0  0  0  0  0  0  0  0  0  0
  -22.4653  -25.3939   -5.4398 N   0  0  0  0  0  0  0  0  0  0  0  0
  1  3  1  1  0  0  0
  1  5  2  0  0  0  0
  1  9  1  0  0  0  0
  1 18  1  0  0  0  0
  2  4  1  6  0  0  0
  2  6  2  0  0  0  0
  2 10  1  0  0  0  0
  2 17  1  0  0  0  0
  7  9  1  0  0  0  0
  8 10  1  0  0  0  0
 11  7  1  6  0  0  0
 11 13  1  0  0  0  0
 11 15  1  0  0  0  0
 12  8  1  6  0  0  0
 12 14  1  0  0  0  0
 12 16  1  0  0  0  0
 13 21  1  0  0  0  0
 14 22  1  0  0  0  0
 15 17  1  1  0  0  0
 15 19  1  0  0  0  0
 16 18  1  1  0  0  0
 16 20  1  0  0  0  0
 19 21  1  0  0  0  0
 20 22  1  0  0  0  0
 21 32  1  6  0  0  0
 22 42  1  6  0  0  0
 23 24  2  0  0  0  0
 23 28  1  0  0  0  0
 24 25  1  0  0  0  0
 25 26  2  0  0  0  0
 26 27  1  0  0  0  0
 26 32  1  0  0  0  0
 27 28  2  0  0  0  0
 27 30  1  0  0  0  0
 28 29  1  0  0  0  0
 30 31  2  0  0  0  0
 31 32  1  0  0  0  0
 33 34  2  0  0  0  0
 33 38  1  0  0  0  0
 34 35  1  0  0  0  0
 35 36  2  0  0  0  0
 36 37  1  0  0  0  0
 36 42  1  0  0  0  0
 37 38  2  0  0  0  0
 37 40  1  0  0  0  0
 38 39  1  0  0  0  0
 40 41  2  0  0  0  0
 41 42  1  0  0  0  0
M  CHG  2   3  -1   4  -1
M  END
>  <CHROM.1>
57.13126602,22.67062984,-18.44207769,-24.48356426,-3.21337590,0.46387844
-0.07711017,1.80715036

>  <Name>
ligand

>  <RI>
0

>  <Rbt.Current_Directory>
/home/itssahil/PROJECTS/Mol_Feturizer/New_Systems/rnas/4QLN

>  <Rbt.Executable>
rbdock ($Id: //depot/dev/client3/rdock/2013.1/src/exe/rbdock.cxx#4 $)

>  <Rbt.Library>
libRbt.so (2013.1, Build901 2013/11/27)

>  <Rbt.Parameter_File>
/export/apps/rDock/src/rDock_2013.1_src/data/scripts/dock_solv.prm

>  <Rbt.Receptor>
prm/blind_docking_40.prm

>  <SCORE>
3.35527

>  <SCORE.INTER>
-6.35431

>  <SCORE.INTER.CONST>
1

>  <SCORE.INTER.POLAR>
0

>  <SCORE.INTER.ROT>
2

>  <SCORE.INTER.SOLV>
34.0311

>  <SCORE.INTER.VDW>
-20.5132

>  <SCORE.INTER.norm>
-0.151293

>  <SCORE.INTRA>
-0.651995

>  <SCORE.INTRA.DIHEDRAL>
-0.000587365

>  <SCORE.INTRA.DIHEDRAL.0>
2.39985

>  <SCORE.INTRA.POLAR>
0

>  <SCORE.INTRA.POLAR.0>
0

>  <SCORE.INTRA.REPUL>
0

>  <SCORE.INTRA.REPUL.0>
0

>  <SCORE.INTRA.SOLV>
0.188873

>  <SCORE.INTRA.SOLV.lig_0>
-110.958

>  <SCORE.INTRA.VDW>
-0.746137

>  <SCORE.INTRA.VDW.0>
-2.34644

>  <SCORE.INTRA.norm>
-0.0155237

>  <SCORE.RESTR>
10.3616

>  <SCORE.RESTR.CAVITY>
10.3616

>  <SCORE.RESTR.norm>
0.246704

>  <SCORE.SYSTEM>
0

>  <SCORE.SYSTEM.CONST>
0

>  <SCORE.SYSTEM.DIHEDRAL>
0

>  <SCORE.SYSTEM.SOLV>
0

>  <SCORE.SYSTEM.norm>
0

>  <SCORE.heavy>
42

>  <SCORE.norm>
0.0798875

>  <RMSD>
29.067

$$$$
ligand
 OpenBabel11021811513D
libRbt.so/2013.1/901 2013/11/27
 42 48  0  0  0  0  0  0  0  0999 V2000
  -19.4288  -26.1810   -0.5503 P   0  0  2  0  0  0  0  0  0  0  0  0
  -18.8802  -21.8727   -3.1293 P   0  0  1  0  0  0  0  0  0  0  0  0
  -19.3988  -26.1327    0.9596 O   0  5  0  0  0  0  0  0  0  0  0  0
  -18.6750  -22.9014   -4.2157 O   0  5  0  0  0  0  0  0  0  0  0  0
  -19.2757  -27.5025   -1.2645 O   0  0  0  0  0  0  0  0  0  0  0  0
  -19.0818  -20.4214   -3.4936 O   0  0  0  0  0  0  0  0  0  0  0  0
  -17.0891  -24.9740   -0.3896 C   0  0  0  0  0  0  0  0  0  0  0  0
  -21.4158  -22.5143   -2.7945 C   0  0  0  0  0  0  0  0  0  0  0  0
  -18.3050  -25.1729   -1.1086 O   0  0  0  0  0  0  0  0  0  0  0  0
  -20.1229  -22.3416   -2.2192 O   0  0  0  0  0  0  0  0  0  0  0  0
  -16.5802  -23.5585   -0.6344 C   0  0  1  0  0  0  0  0  0  0  0  0
  -21.9782  -23.8707   -2.3883 C   0  0  1  0  0  0  0  0  0  0  0  0
  -15.1727  -23.5026   -0.3868 O   0  0  0  0  0  0  0  0  0  0  0  0
  -22.9646  -24.2873   -3.3356 O   0  0  0  0  0  0  0  0  0  0  0  0
  -16.8169  -23.1291   -2.0725 C   0  0  1  0  0  0  0  0  0  0  0  0
  -20.8897  -24.9317   -2.3541 C   0  0  1  0  0  0  0  0  0  0  0  0
  -17.6398  -21.9670   -2.1064 O   0  0  0  0  0  0  0  0  0  0  0  0
  -20.7964  -25.4938   -1.0486 O   0  0  0  0  0  0  0  0  0  0  0  0
  -15.4521  -22.8170   -2.6576 C   0  0  0  0  0  0  0  0  0  0  0  0
  -21.2981  -25.9984   -3.3516 C   0  0  0  0  0  0  0  0  0  0  0  0
  -14.4486  -23.0748   -1.5435 C   0  0  2  0  0  0  0  0  0  0  0  0
  -22.6204  -25.5339   -3.9453 C   0  0  2  0  0  0  0  0  0  0  0  0
  -13.8668  -28.0830   -3.0124 N   0  0  0  0  0  0  0  0  0  0  0  0
  -14.9775  -27.3996   -2.6802 C   0  0  0  0  0  0  0  0  0  0  0  0
  -14.9776  -26.1033   -2.3187 N   0  0  0  0  0  0  0  0  0  0  0  0
  -13.8239  -25.3953   -2.2693 C   0  0  0  0  0  0  0  0  0  0  0  0
  -12.5655  -26.0727   -2.6192 C   0  0  0  0  0  0  0  0  0  0  0  0
  -12.6466  -27.5011   -3.0064 C   0  0  0  0  0  0  0  0  0  0  0  0
  -11.5357  -28.1995   -3.3437 N   0  0  0  0  0  0  0  0  0  0  0  0
  -11.5875  -25.1567   -2.4893 N   0  0  0  0  0  0  0  0  0  0  0  0
  -12.1669  -23.9953   -2.0914 C   0  0  0  0  0  0  0  0  0  0  0  0
  -13.5000  -24.1372   -1.9604 N   0  0  0  0  0  0  0  0  0  0  0  0
  -21.6729  -22.1574   -7.8535 N   0  0  0  0  0  0  0  0  0  0  0  0
  -21.7342  -21.9515   -6.5248 C   0  0  0  0  0  0  0  0  0  0  0  0
  -21.9893  -22.9221   -5.6290 N   0  0  0  0  0  0  0  0  0  0  0  0
  -22.2045  -24.1982   -6.0305 C   0  0  0  0  0  0  0  0  0  0  0  0
  -22.1538  -24.5035   -7.4687 C   0  0  0  0  0  0  0  0  0  0  0  0
  -21.8670  -23.3805   -8.3921 C   0  0  0  0  0  0  0  0  0  0  0  0
  -21.8019  -23.5752   -9.7323 N   0  0  0  0  0  0  0  0  0  0  0  0
  -22.3977  -25.8221   -7.5899 N   0  0  0  0  0  0  0  0  0  0  0  0
  -22.5882  -26.3171   -6.3399 C   0  0  0  0  0  0  0  0  0  0  0  0
  -22.4734  -25.3501   -5.4111 N   0  0  0  0  0  0  0  0  0  0  0  0
  1  3  1  1  0  0  0
  1  5  2  0  0  0  0
  1  9  1  0  0  0  0
  1 18  1  0  0  0  0
  2  4  1  6  0  0  0
  2  6  2  0  0  0  0
  2 10  1  0  0  0  0
  2 17  1  0  0  0  0
  7  9  1  0  0  0  0
  8 10  1  0  0  0  0
 11  7  1  6  0  0  0
 11 13  1  0  0  0  0
 11 15  1  0  0  0  0
 12  8  1  6  0  0  0
 12 14  1  0  0  0  0
 12 16  1  0  0  0  0
 13 21  1  0  0  0  0
 14 22  1  0  0  0  0
 15 17  1  1  0  0  0
 15 19  1  0  0  0  0
 16 18  1  1  0  0  0
 16 20  1  0  0  0  0
 19 21  1  0  0  0  0
 20 22  1  0  0  0  0
 21 32  1  6  0  0  0
 22 42  1  6  0  0  0
 23 24  2  0  0  0  0
 23 28  1  0  0  0  0
 24 25  1  0  0  0  0
 25 26  2  0  0  0  0
 26 27  1  0  0  0  0
 26 32  1  0  0  0  0
 27 28  2  0  0  0  0
 27 30  1  0  0  0  0
 28 29  1  0  0  0  0
 30 31  2  0  0  0  0
 31 32  1  0  0  0  0
 33 34  2  0  0  0  0
 33 38  1  0  0  0  0
 34 35  1  0  0  0  0
 35 36  2  0  0  0  0
 36 37  1  0  0  0  0
 36 42  1  0  0  0  0
 37 38  2  0  0  0  0
 37 40  1  0  0  0  0
 38 39  1  0  0  0  0
 40 41  2  0  0  0  0
 41 42  1  0  0  0  0
M  CHG  2   3  -1   4  -1
M  END
>  <CHROM.1>
57.15849434,23.01839737,-18.44042646,-24.47480915,-3.18581545,0.46315041
-0.08218284,1.81371652

>  <Name>
ligand

>  <RI>
0

>  <Rbt.Current_Directory>
/home/itssahil/PROJECTS/Mol_Feturizer/New_Systems/rnas/4QLN

>  <Rbt.Executable>
rbdock ($Id: //depot/dev/client3/rdock/2013.1/src/exe/rbdock.cxx#4 $)

>  <Rbt.Library>
libRbt.so (2013.1, Build901 2013/11/27)

>  <Rbt.Parameter_File>
/export/apps/rDock/src/rDock_2013.1_src/data/scripts/dock_solv.prm

>  <Rbt.Receptor>
prm/blind_docking_40.prm

>  <SCORE>
3.12585

>  <SCORE.INTER>
-6.64019

>  <SCORE.INTER.CONST>
1

>  <SCORE.INTER.POLAR>
0

>  <SCORE.INTER.ROT>
2

>  <SCORE.INTER.SOLV>
34.0002

>  <SCORE.INTER.VDW>
-20.6935

>  <SCORE.INTER.norm>
-0.1581

>  <SCORE.INTRA>
-0.651234

>  <SCORE.INTRA.DIHEDRAL>
-0.000592018

>  <SCORE.INTRA.DIHEDRAL.0>
2.39985

>  <SCORE.INTRA.POLAR>
0

>  <SCORE.INTRA.POLAR.0>
0

>  <SCORE.INTRA.REPUL>
0

>  <SCORE.INTRA.REPUL.0>
0

>  <SCORE.INTRA.SOLV>
0.20053

>  <SCORE.INTRA.SOLV.lig_0>
-110.958

>  <SCORE.INTRA.VDW>
-0.751204

>  <SCORE.INTRA.VDW.0>
-2.34644

>  <SCORE.INTRA.norm>
-0.0155056

>  <SCORE.RESTR>
10.4173

>  <SCORE.RESTR.CAVITY>
10.4173

>  <SCORE.RESTR.norm>
0.24803

>  <SCORE.SYSTEM>
0

>  <SCORE.SYSTEM.CONST>
0

>  <SCORE.SYSTEM.DIHEDRAL>
0

>  <SCORE.SYSTEM.SOLV>
0

>  <SCORE.SYSTEM.norm>
0

>  <SCORE.heavy>
42

>  <SCORE.norm>
0.074425

>  <RMSD>
29.082

$$$$
ligand
 OpenBabel11021811513D
libRbt.so/2013.1/901 2013/11/27
 42 48  0  0  0  0  0  0  0  0999 V2000
  -23.8449  -36.1238  -25.7265 P   0  0  2  0  0  0  0  0  0  0  0  0
  -19.1536  -37.6880  -24.6975 P   0  0  1  0  0  0  0  0  0  0  0  0
  -24.2947  -36.0749  -27.1682 O   0  5  0  0  0  0  0  0  0  0  0  0
  -19.5581  -37.0659  -23.3823 O   0  5  0  0  0  0  0  0  0  0  0  0
  -24.6403  -35.4026  -24.6648 O   0  0  0  0  0  0  0  0  0  0  0  0
  -17.9120  -38.5434  -24.7767 O   0  0  0  0  0  0  0  0  0  0  0  0
  -21.8604  -34.5946  -26.5513 C   0  0  0  0  0  0  0  0  0  0  0  0
  -20.9187  -39.6360  -24.4892 C   0  0  0  0  0  0  0  0  0  0  0  0
  -22.3230  -35.6044  -25.6561 O   0  0  0  0  0  0  0  0  0  0  0  0
  -20.3960  -38.5499  -25.2508 O   0  0  0  0  0  0  0  0  0  0  0  0
  -20.3748  -34.7990  -26.8232 C   0  0  1  0  0  0  0  0  0  0  0  0
  -22.4323  -39.5014  -24.3807 C   0  0  1  0  0  0  0  0  0  0  0  0
  -19.7897  -33.5673  -27.2546 O   0  0  0  0  0  0  0  0  0  0  0  0
  -22.8989  -40.2142  -23.2327 O   0  0  0  0  0  0  0  0  0  0  0  0
  -19.6422  -35.2483  -25.5703 C   0  0  1  0  0  0  0  0  0  0  0  0
  -22.8474  -38.0471  -24.2250 C   0  0  1  0  0  0  0  0  0  0  0  0
  -19.0258  -36.5132  -25.7917 O   0  0  0  0  0  0  0  0  0  0  0  0
  -23.7097  -37.6682  -25.2936 O   0  0  0  0  0  0  0  0  0  0  0  0
  -18.5849  -34.1965  -25.2906 C   0  0  0  0  0  0  0  0  0  0  0  0
  -23.5840  -37.9499  -22.9030 C   0  0  0  0  0  0  0  0  0  0  0  0
  -18.7283  -33.1543  -26.3897 C   0  0  2  0  0  0  0  0  0  0  0  0
  -23.5825  -39.3547  -22.3172 C   0  0  2  0  0  0  0  0  0  0  0  0
  -21.5438  -30.5710  -22.7873 N   0  0  0  0  0  0  0  0  0  0  0  0
  -21.4967  -31.8853  -23.0729 C   0  0  0  0  0  0  0  0  0  0  0  0
  -20.7190  -32.4136  -24.0358 N   0  0  0  0  0  0  0  0  0  0  0  0
  -19.9168  -31.6262  -24.7917 C   0  0  0  0  0  0  0  0  0  0  0  0
  -19.9118  -30.1766  -24.5396 C   0  0  0  0  0  0  0  0  0  0  0  0
  -20.7957  -29.6702  -23.4629 C   0  0  0  0  0  0  0  0  0  0  0  0
  -20.8513  -28.3495  -23.1655 N   0  0  0  0  0  0  0  0  0  0  0  0
  -19.0424  -29.6378  -25.4148 N   0  0  0  0  0  0  0  0  0  0  0  0
  -18.5350  -30.6515  -26.1619 C   0  0  0  0  0  0  0  0  0  0  0  0
  -19.0559  -31.8368  -25.7904 N   0  0  0  0  0  0  0  0  0  0  0  0
  -22.4426  -42.0505  -17.9576 N   0  0  0  0  0  0  0  0  0  0  0  0
  -23.1788  -42.4027  -19.0279 C   0  0  0  0  0  0  0  0  0  0  0  0
  -23.3895  -41.6005  -20.0870 N   0  0  0  0  0  0  0  0  0  0  0  0
  -22.8543  -40.3565  -20.1329 C   0  0  0  0  0  0  0  0  0  0  0  0
  -22.0360  -39.8981  -18.9996 C   0  0  0  0  0  0  0  0  0  0  0  0
  -21.8502  -40.8401  -17.8706 C   0  0  0  0  0  0  0  0  0  0  0  0
  -21.1104  -40.4973  -16.7874 N   0  0  0  0  0  0  0  0  0  0  0  0
  -21.6333  -38.6484  -19.2976 N   0  0  0  0  0  0  0  0  0  0  0  0
  -22.1487  -38.3342  -20.5140 C   0  0  0  0  0  0  0  0  0  0  0  0
  -22.8760  -39.3514  -21.0115 N   0  0  0  0  0  0  0  0  0  0  0  0
  1  3  1  6  0  0  0
  1  5  2  0  0  0  0
  1  9  1  0  0  0  0
  1 18  1  0  0  0  0
  2  4  1  1  0  0  0
  2  6  2  0  0  0  0
  2 10  1  0  0  0  0
  2 17  1  0  0  0  0
  7  9  1  0  0  0  0
  8 10  1  0  0  0  0
 11  7  1  1  0  0  0
 11 13  1  0  0  0  0
 11 15  1  0  0  0  0
 12  8  1  1  0  0  0
 12 14  1  0  0  0  0
 12 16  1  0  0  0  0
 13 21  1  0  0  0  0
 14 22  1  0  0  0  0
 15 17  1  6  0  0  0
 15 19  1  0  0  0  0
 16 18  1  6  0  0  0
 16 20  1  0  0  0  0
 19 21  1  0  0  0  0
 20 22  1  0  0  0  0
 21 32  1  1  0  0  0
 22 42  1  1  0  0  0
 23 24  2  0  0  0  0
 23 28  1  0  0  0  0
 24 25  1  0  0  0  0
 25 26  2  0  0  0  0
 26 27  1  0  0  0  0
 26 32  1  0  0  0  0
 27 28  2  0  0  0  0
 27 30  1  0  0  0  0
 28 29  1  0  0  0  0
 30 31  2  0  0  0  0
 31 32  1  0  0  0  0
 33 34  2  0  0  0  0
 33 38  1  0  0  0  0
 34 35  1  0  0  0  0
 35 36  2  0  0  0  0
 36 37  1  0  0  0  0
 36 42  1  0  0  0  0
 37 38  2  0  0  0  0
 37 40  1  0  0  0  0
 38 39  1  0  0  0  0
 40 41  2  0  0  0  0
 41 42  1  0  0  0  0
M  CHG  2   3  -1   4  -1
M  END
>  <CHROM.1>
76.56854844,-71.99995483,-21.33740301,-36.27512424,-23.68436156,0.47575170
-1.31804735,-1.60630165

>  <Name>
ligand

>  <RI>
0

>  <Rbt.Current_Directory>
/home/itssahil/PROJECTS/Mol_Feturizer/New_Systems/rnas/4QLN

>  <Rbt.Executable>
rbdock ($Id: //depot/dev/client3/rdock/2013.1/src/exe/rbdock.cxx#4 $)

>  <Rbt.Library>
libRbt.so (2013.1, Build901 2013/11/27)

>  <Rbt.Parameter_File>
/export/apps/rDock/src/rDock_2013.1_src/data/scripts/dock_solv.prm

>  <Rbt.Receptor>
prm/blind_docking_60.prm

>  <SCORE>
189.195

>  <SCORE.INTER>
183.261

>  <SCORE.INTER.CONST>
1

>  <SCORE.INTER.POLAR>
0

>  <SCORE.INTER.ROT>
2

>  <SCORE.INTER.SOLV>
43.4359

>  <SCORE.INTER.VDW>
102.762

>  <SCORE.INTER.norm>
4.36336

>  <SCORE.INTRA>
1.368

>  <SCORE.INTRA.DIHEDRAL>
-9.37547e-05

>  <SCORE.INTRA.DIHEDRAL.0>
2.39985

>  <SCORE.INTRA.POLAR>
0

>  <SCORE.INTRA.POLAR.0>
0

>  <SCORE.INTRA.REPUL>
0

>  <SCORE.INTRA.REPUL.0>
0

>  <SCORE.INTRA.SOLV>
-0.0754552

>  <SCORE.INTRA.SOLV.lig_0>
-110.958

>  <SCORE.INTRA.VDW>
1.40578

>  <SCORE.INTRA.VDW.0>
-2.34644

>  <SCORE.INTRA.norm>
0.0325715

>  <SCORE.RESTR>
4.56597

>  <SCORE.RESTR.CAVITY>
4.56597

>  <SCORE.RESTR.norm>
0.108714

>  <SCORE.SYSTEM>
0

>  <SCORE.SYSTEM.CONST>
0

>  <SCORE.SYSTEM.DIHEDRAL>
0

>  <SCORE.SYSTEM.SOLV>
0

>  <SCORE.SYSTEM.norm>
0

>  <SCORE.heavy>
42

>  <SCORE.norm>
4.50464

>  <RMSD>
29.085

$$$$
ligand
 OpenBabel11021811513D
libRbt.so/2013.1/901 2013/11/27
 42 48  0  0  0  0  0  0  0  0999 V2000
  -18.5346  -26.9293   -4.9304 P   0  0  2  0  0  0  0  0  0  0  0  0
  -20.9422  -22.8609   -3.1511 P   0  0  1  0  0  0  0  0  0  0  0  0
  -18.2575  -28.0788   -3.9896 O   0  5  0  0  0  0  0  0  0  0  0  0
  -20.4088  -22.3434   -4.4656 O   0  5  0  0  0  0  0  0  0  0  0  0
  -17.8132  -26.8493   -6.2544 O   0  0  0  0  0  0  0  0  0  0  0  0
  -21.9742  -22.0640   -2.3899 O   0  0  0  0  0  0  0  0  0  0  0  0
  -17.2678  -25.4746   -3.1315 C   0  0  0  0  0  0  0  0  0  0  0  0
  -22.5886  -24.5589   -4.3172 C   0  0  0  0  0  0  0  0  0  0  0  0
  -18.2801  -25.5541   -4.1336 O   0  0  0  0  0  0  0  0  0  0  0  0
  -21.5258  -24.3421   -3.3919 O   0  0  0  0  0  0  0  0  0  0  0  0
  -17.6802  -24.4587   -2.0729 C   0  0  1  0  0  0  0  0  0  0  0  0
  -22.2225  -25.7012   -5.2565 C   0  0  1  0  0  0  0  0  0  0  0  0
  -16.5204  -23.9810   -1.3856 O   0  0  0  0  0  0  0  0  0  0  0  0
  -22.9701  -25.5867   -6.4696 O   0  0  0  0  0  0  0  0  0  0  0  0
  -18.3756  -23.2618   -2.6993 C   0  0  1  0  0  0  0  0  0  0  0  0
  -20.7456  -25.6683   -5.6161 C   0  0  1  0  0  0  0  0  0  0  0  0
  -19.6922  -23.1305   -2.1720 O   0  0  0  0  0  0  0  0  0  0  0  0
  -20.1182  -26.8827   -5.2151 O   0  0  0  0  0  0  0  0  0  0  0  0
  -17.5460  -22.0444   -2.3357 C   0  0  0  0  0  0  0  0  0  0  0  0
  -20.6739  -25.5190   -7.1235 C   0  0  0  0  0  0  0  0  0  0  0  0
  -16.3815  -22.5627   -1.5049 C   0  0  2  0  0  0  0  0  0  0  0  0
  -22.1154  -25.4694   -7.6096 C   0  0  2  0  0  0  0  0  0  0  0  0
  -13.8203  -22.2335   -6.0776 N   0  0  0  0  0  0  0  0  0  0  0  0
  -15.0911  -22.5930   -5.8188 C   0  0  0  0  0  0  0  0  0  0  0  0
  -15.6196  -22.6328   -4.5817 N   0  0  0  0  0  0  0  0  0  0  0  0
  -14.8776  -22.3020   -3.4978 C   0  0  0  0  0  0  0  0  0  0  0  0
  -13.4774  -21.8972   -3.6988 C   0  0  0  0  0  0  0  0  0  0  0  0
  -12.9675  -21.8788   -5.0905 C   0  0  0  0  0  0  0  0  0  0  0  0
  -11.6905  -21.5180   -5.3639 N   0  0  0  0  0  0  0  0  0  0  0  0
  -12.9771  -21.6264   -2.4787 N   0  0  0  0  0  0  0  0  0  0  0  0
  -13.9681  -21.8388   -1.5754 C   0  0  0  0  0  0  0  0  0  0  0  0
  -15.1011  -22.2412   -2.1827 N   0  0  0  0  0  0  0  0  0  0  0  0
  -22.5988  -20.2675   -7.0825 N   0  0  0  0  0  0  0  0  0  0  0  0
  -22.3445  -21.2131   -6.1591 C   0  0  0  0  0  0  0  0  0  0  0  0
  -22.2468  -22.5250   -6.4402 N   0  0  0  0  0  0  0  0  0  0  0  0
  -22.4041  -22.9771   -7.7078 C   0  0  0  0  0  0  0  0  0  0  0  0
  -22.6845  -22.0035   -8.7744 C   0  0  0  0  0  0  0  0  0  0  0  0
  -22.7768  -20.5765   -8.3850 C   0  0  0  0  0  0  0  0  0  0  0  0
  -23.0317  -19.6146   -9.3057 N   0  0  0  0  0  0  0  0  0  0  0  0
  -22.7931  -22.7069   -9.9173 N   0  0  0  0  0  0  0  0  0  0  0  0
  -22.5998  -24.0153   -9.6095 C   0  0  0  0  0  0  0  0  0  0  0  0
  -22.3683  -24.1763   -8.2936 N   0  0  0  0  0  0  0  0  0  0  0  0
  1  3  1  1  0  0  0
  1  5  2  0  0  0  0
  1  9  1  0  0  0  0
  1 18  1  0  0  0  0
  2  4  1  6  0  0  0
  2  6  2  0  0  0  0
  2 10  1  0  0  0  0
  2 17  1  0  0  0  0
  7  9  1  0  0  0  0
  8 10  1  0  0  0  0
 11  7  1  6  0  0  0
 11 13  1  0  0  0  0
 11 15  1  0  0  0  0
 12  8  1  1  0  0  0
 12 14  1  0  0  0  0
 12 16  1  0  0  0  0
 13 21  1  0  0  0  0
 14 22  1  0  0  0  0
 15 17  1  1  0  0  0
 15 19  1  0  0  0  0
 16 18  1  6  0  0  0
 16 20  1  0  0  0  0
 19 21  1  0  0  0  0
 20 22  1  0  0  0  0
 21 32  1  6  0  0  0
 22 42  1  1  0  0  0
 23 24  2  0  0  0  0
 23 28  1  0  0  0  0
 24 25  1  0  0  0  0
 25 26  2  0  0  0  0
 26 27  1  0  0  0  0
 26 32  1  0  0  0  0
 27 28  2  0  0  0  0
 27 30  1  0  0  0  0
 28 29  1  0  0  0  0
 30 31  2  0  0  0  0
 31 32  1  0  0  0  0
 33 34  2  0  0  0  0
 33 38  1  0  0  0  0
 34 35  1  0  0  0  0
 35 36  2  0  0  0  0
 36 37  1  0  0  0  0
 36 42  1  0  0  0  0
 37 38  2  0  0  0  0
 37 40  1  0  0  0  0
 38 39  1  0  0  0  0
 40 41  2  0  0  0  0
 41 42  1  0  0  0  0
M  CHG  2   3  -1   4  -1
M  END
>  <CHROM.1>
79.17465771,50.16072628,-19.08323814,-23.59159763,-4.92696493,0.17346687
0.44788396,2.61865564

>  <Name>
ligand

>  <RI>
0

>  <Rbt.Current_Directory>
/home/itssahil/PROJECTS/Mol_Feturizer/New_Systems/rnas/4QLN

>  <Rbt.Executable>
rbdock ($Id: //depot/dev/client3/rdock/2013.1/src/exe/rbdock.cxx#4 $)

>  <Rbt.Library>
libRbt.so (2013.1, Build901 2013/11/27)

>  <Rbt.Parameter_File>
/export/apps/rDock/src/rDock_2013.1_src/data/scripts/dock_solv.prm

>  <Rbt.Receptor>
prm/blind_docking_40.prm

>  <SCORE>
13.5412

>  <SCORE.INTER>
8.40198

>  <SCORE.INTER.CONST>
1

>  <SCORE.INTER.POLAR>
0

>  <SCORE.INTER.ROT>
2

>  <SCORE.INTER.SOLV>
37.2212

>  <SCORE.INTER.VDW>
-11.7391

>  <SCORE.INTER.norm>
0.200047

>  <SCORE.INTRA>
0.109168

>  <SCORE.INTRA.DIHEDRAL>
-1.06264e-06

>  <SCORE.INTRA.DIHEDRAL.0>
2.39985

>  <SCORE.INTRA.POLAR>
0

>  <SCORE.INTRA.POLAR.0>
0

>  <SCORE.INTRA.REPUL>
0

>  <SCORE.INTRA.REPUL.0>
0

>  <SCORE.INTRA.SOLV>
1.15601

>  <SCORE.INTRA.SOLV.lig_0>
-110.958

>  <SCORE.INTRA.VDW>
-0.468835

>  <SCORE.INTRA.VDW.0>
-2.34644

>  <SCORE.INTRA.norm>
0.00259923

>  <SCORE.RESTR>
5.03011

>  <SCORE.RESTR.CAVITY>
5.03011

>  <SCORE.RESTR.norm>
0.119764

>  <SCORE.SYSTEM>
0

>  <SCORE.SYSTEM.CONST>
0

>  <SCORE.SYSTEM.DIHEDRAL>
0

>  <SCORE.SYSTEM.SOLV>
0

>  <SCORE.SYSTEM.norm>
0

>  <SCORE.heavy>
42

>  <SCORE.norm>
0.322411

>  <RMSD>
29.088

$$$$
ligand
 OpenBabel11021811513D
libRbt.so/2013.1/901 2013/11/27
 42 48  0  0  0  0  0  0  0  0999 V2000
  -18.5355  -26.9334   -4.9219 P   0  0  2  0  0  0  0  0  0  0  0  0
  -20.9423  -22.8613   -3.1503 P   0  0  1  0  0  0  0  0  0  0  0  0
  -18.2584  -28.0811   -3.9790 O   0  5  0  0  0  0  0  0  0  0  0  0
  -20.4090  -22.3464   -4.4659 O   0  5  0  0  0  0  0  0  0  0  0  0
  -17.8141  -26.8561   -6.2462 O   0  0  0  0  0  0  0  0  0  0  0  0
  -21.9742  -22.0627   -2.3906 O   0  0  0  0  0  0  0  0  0  0  0  0
  -17.2683  -25.4754   -3.1260 C   0  0  0  0  0  0  0  0  0  0  0  0
  -22.5890  -24.5613   -4.3130 C   0  0  0  0  0  0  0  0  0  0  0  0
  -18.2806  -25.5567   -4.1278 O   0  0  0  0  0  0  0  0  0  0  0  0
  -21.5262  -24.3429   -3.3882 O   0  0  0  0  0  0  0  0  0  0  0  0
  -17.6804  -24.4574   -2.0693 C   0  0  1  0  0  0  0  0  0  0  0  0
  -22.2232  -25.7054   -5.2501 C   0  0  1  0  0  0  0  0  0  0  0  0
  -16.5206  -23.9786   -1.3830 O   0  0  0  0  0  0  0  0  0  0  0  0
  -22.9709  -25.5932   -6.4634 O   0  0  0  0  0  0  0  0  0  0  0  0
  -18.3757  -23.2617   -2.6980 C   0  0  1  0  0  0  0  0  0  0  0  0
  -20.7463  -25.6735   -5.6099 C   0  0  1  0  0  0  0  0  0  0  0  0
  -19.6923  -23.1291   -2.1708 O   0  0  0  0  0  0  0  0  0  0  0  0
  -20.1190  -26.8871   -5.2067 O   0  0  0  0  0  0  0  0  0  0  0  0
  -17.5459  -22.0437   -2.3368 C   0  0  0  0  0  0  0  0  0  0  0  0
  -20.6747  -25.5271   -7.1176 C   0  0  0  0  0  0  0  0  0  0  0  0
  -16.3814  -22.5605   -1.5050 C   0  0  2  0  0  0  0  0  0  0  0  0
  -22.1162  -25.4783   -7.6037 C   0  0  2  0  0  0  0  0  0  0  0  0
  -13.8228  -22.2332   -6.0794 N   0  0  0  0  0  0  0  0  0  0  0  0
  -15.0939  -22.5911   -5.8198 C   0  0  0  0  0  0  0  0  0  0  0  0
  -15.6216  -22.6306   -4.5824 N   0  0  0  0  0  0  0  0  0  0  0  0
  -14.8785  -22.3012   -3.4989 C   0  0  0  0  0  0  0  0  0  0  0  0
  -13.4779  -21.8982   -3.7007 C   0  0  0  0  0  0  0  0  0  0  0  0
  -12.9689  -21.8800   -5.0927 C   0  0  0  0  0  0  0  0  0  0  0  0
  -11.6916  -21.5208   -5.3668 N   0  0  0  0  0  0  0  0  0  0  0  0
  -12.9764  -21.6285   -2.4808 N   0  0  0  0  0  0  0  0  0  0  0  0
  -13.9671  -21.8399   -1.5770 C   0  0  0  0  0  0  0  0  0  0  0  0
  -15.1010  -22.2406   -2.1836 N   0  0  0  0  0  0  0  0  0  0  0  0
  -22.6022  -20.2755   -7.0860 N   0  0  0  0  0  0  0  0  0  0  0  0
  -22.3484  -21.2195   -6.1608 C   0  0  0  0  0  0  0  0  0  0  0  0
  -22.2500  -22.5319   -6.4394 N   0  0  0  0  0  0  0  0  0  0  0  0
  -22.4059  -22.9861   -7.7064 C   0  0  0  0  0  0  0  0  0  0  0  0
  -22.6857  -22.0145   -8.7750 C   0  0  0  0  0  0  0  0  0  0  0  0
  -22.7789  -20.5870   -8.3881 C   0  0  0  0  0  0  0  0  0  0  0  0
  -23.0333  -19.6268   -9.3108 N   0  0  0  0  0  0  0  0  0  0  0  0
  -22.7929  -22.7200   -9.9167 N   0  0  0  0  0  0  0  0  0  0  0  0
  -22.5994  -24.0278   -9.6065 C   0  0  0  0  0  0  0  0  0  0  0  0
  -22.3690  -24.1864   -8.2902 N   0  0  0  0  0  0  0  0  0  0  0  0
  1  3  1  1  0  0  0
  1  5  2  0  0  0  0
  1  9  1  0  0  0  0
  1 18  1  0  0  0  0
  2  4  1  6  0  0  0
  2  6  2  0  0  0  0
  2 10  1  0  0  0  0
  2 17  1  0  0  0  0
  7  9  1  0  0  0  0
  8 10  1  0  0  0  0
 11  7  1  6  0  0  0
 11 13  1  0  0  0  0
 11 15  1  0  0  0  0
 12  8  1  1  0  0  0
 12 14  1  0  0  0  0
 12 16  1  0  0  0  0
 13 21  1  0  0  0  0
 14 22  1  0  0  0  0
 15 17  1  1  0  0  0
 15 19  1  0  0  0  0
 16 18  1  6  0  0  0
 16 20  1  0  0  0  0
 19 21  1  0  0  0  0
 20 22  1  0  0  0  0
 21 32  1  6  0  0  0
 22 42  1  1  0  0  0
 23 24  2  0  0  0  0
 23 28  1  0  0  0  0
 24 25  1  0  0  0  0
 25 26  2  0  0  0  0
 26 27  1  0  0  0  0
 26 32  1  0  0  0  0
 27 28  2  0  0  0  0
 27 30  1  0  0  0  0
 28 29  1  0  0  0  0
 30 31  2  0  0  0  0
 31 32  1  0  0  0  0
 33 34  2  0  0  0  0
 33 38  1  0  0  0  0
 34 35  1  0  0  0  0
 35 36  2  0  0  0  0
 36 37  1  0  0  0  0
 36 42  1  0  0  0  0
 37 38  2  0  0  0  0
 37 40  1  0  0  0  0
 38 39  1  0  0  0  0
 40 41  2  0  0  0  0
 41 42  1  0  0  0  0
M  CHG  2   3  -1   4  -1
M  END
>  <CHROM.1>
79.32570956,50.09381808,-19.08406661,-23.59508511,-4.92493130,0.17346472
0.44778157,2.61650340

>  <Name>
ligand

>  <RI>
0

>  <Rbt.Current_Directory>
/home/itssahil/PROJECTS/Mol_Feturizer/New_Systems/rnas/4QLN

>  <Rbt.Executable>
rbdock ($Id: //depot/dev/client3/rdock/2013.1/src/exe/rbdock.cxx#4 $)

>  <Rbt.Library>
libRbt.so (2013.1, Build901 2013/11/27)

>  <Rbt.Parameter_File>
/export/apps/rDock/src/rDock_2013.1_src/data/scripts/dock_solv.prm

>  <Rbt.Receptor>
prm/blind_docking_40.prm

>  <SCORE>
13.5371

>  <SCORE.INTER>
8.39936

>  <SCORE.INTER.CONST>
1

>  <SCORE.INTER.POLAR>
0

>  <SCORE.INTER.ROT>
2

>  <SCORE.INTER.SOLV>
37.1639

>  <SCORE.INTER.VDW>
-11.7217

>  <SCORE.INTER.norm>
0.199985

>  <SCORE.INTRA>
0.111665

>  <SCORE.INTRA.DIHEDRAL>
-2.24907e-06

>  <SCORE.INTRA.DIHEDRAL.0>
2.39985

>  <SCORE.INTRA.POLAR>
0

>  <SCORE.INTRA.POLAR.0>
0

>  <SCORE.INTRA.REPUL>
0

>  <SCORE.INTRA.REPUL.0>
0

>  <SCORE.INTRA.SOLV>
1.15438

>  <SCORE.INTRA.SOLV.lig_0>
-110.958

>  <SCORE.INTRA.VDW>
-0.465523

>  <SCORE.INTRA.VDW.0>
-2.34644

>  <SCORE.INTRA.norm>
0.00265869

>  <SCORE.RESTR>
5.02609

>  <SCORE.RESTR.CAVITY>
5.02609

>  <SCORE.RESTR.norm>
0.119669

>  <SCORE.SYSTEM>
0

>  <SCORE.SYSTEM.CONST>
0

>  <SCORE.SYSTEM.DIHEDRAL>
0

>  <SCORE.SYSTEM.SOLV>
0

>  <SCORE.SYSTEM.norm>
0

>  <SCORE.heavy>
42

>  <SCORE.norm>
0.322312

>  <RMSD>
29.088

$$$$
ligand
 OpenBabel11021811513D
libRbt.so/2013.1/901 2013/11/27
 42 48  0  0  0  0  0  0  0  0999 V2000
  -18.5378  -26.9371   -4.9089 P   0  0  2  0  0  0  0  0  0  0  0  0
  -20.9435  -22.8608   -3.1454 P   0  0  1  0  0  0  0  0  0  0  0  0
  -18.2619  -28.0834   -3.9640 O   0  5  0  0  0  0  0  0  0  0  0  0
  -20.4092  -22.3483   -4.4615 O   0  5  0  0  0  0  0  0  0  0  0  0
  -17.8157  -26.8623   -6.2329 O   0  0  0  0  0  0  0  0  0  0  0  0
  -21.9754  -22.0605   -2.3876 O   0  0  0  0  0  0  0  0  0  0  0  0
  -17.2709  -25.4768   -3.1147 C   0  0  0  0  0  0  0  0  0  0  0  0
  -22.5904  -24.5619   -4.3062 C   0  0  0  0  0  0  0  0  0  0  0  0
  -18.2827  -25.5592   -4.1169 O   0  0  0  0  0  0  0  0  0  0  0  0
  -21.5280  -24.3425   -3.3812 O   0  0  0  0  0  0  0  0  0  0  0  0
  -17.6830  -24.4569   -2.0599 C   0  0  1  0  0  0  0  0  0  0  0  0
  -22.2247  -25.7078   -5.2412 C   0  0  1  0  0  0  0  0  0  0  0  0
  -16.5233  -23.9775   -1.3738 O   0  0  0  0  0  0  0  0  0  0  0  0
  -22.9717  -25.5971   -6.4551 O   0  0  0  0  0  0  0  0  0  0  0  0
  -18.3774  -23.2618   -2.6910 C   0  0  1  0  0  0  0  0  0  0  0  0
  -20.7476  -25.6771   -5.6002 C   0  0  1  0  0  0  0  0  0  0  0  0
  -19.6941  -23.1277   -2.1647 O   0  0  0  0  0  0  0  0  0  0  0  0
  -20.1212  -26.8905   -5.1946 O   0  0  0  0  0  0  0  0  0  0  0  0
  -17.5471  -22.0437   -2.3313 C   0  0  0  0  0  0  0  0  0  0  0  0
  -20.6750  -25.5333   -7.1081 C   0  0  0  0  0  0  0  0  0  0  0  0
  -16.3834  -22.5597   -1.4981 C   0  0  2  0  0  0  0  0  0  0  0  0
  -22.1163  -25.4845   -7.5951 C   0  0  2  0  0  0  0  0  0  0  0  0
  -13.8231  -22.2377   -6.0719 N   0  0  0  0  0  0  0  0  0  0  0  0
  -15.0947  -22.5940   -5.8125 C   0  0  0  0  0  0  0  0  0  0  0  0
  -15.6228  -22.6323   -4.5752 N   0  0  0  0  0  0  0  0  0  0  0  0
  -14.8796  -22.3031   -3.4916 C   0  0  0  0  0  0  0  0  0  0  0  0
  -13.4785  -21.9018   -3.6933 C   0  0  0  0  0  0  0  0  0  0  0  0
  -12.9691  -21.8849   -5.0851 C   0  0  0  0  0  0  0  0  0  0  0  0
  -11.6913  -21.5272   -5.3590 N   0  0  0  0  0  0  0  0  0  0  0  0
  -12.9771  -21.6320   -2.4734 N   0  0  0  0  0  0  0  0  0  0  0  0
  -13.9683  -21.8417   -1.5697 C   0  0  0  0  0  0  0  0  0  0  0  0
  -15.1024  -22.2415   -2.1765 N   0  0  0  0  0  0  0  0  0  0  0  0
  -22.5954  -20.2802   -7.0870 N   0  0  0  0  0  0  0  0  0  0  0  0
  -22.3420  -21.2227   -6.1602 C   0  0  0  0  0  0  0  0  0  0  0  0
  -22.2454  -22.5357   -6.4364 N   0  0  0  0  0  0  0  0  0  0  0  0
  -22.4029  -22.9923   -7.7024 C   0  0  0  0  0  0  0  0  0  0  0  0
  -22.6823  -22.0223   -8.7726 C   0  0  0  0  0  0  0  0  0  0  0  0
  -22.7735  -20.5939   -8.3884 C   0  0  0  0  0  0  0  0  0  0  0  0
  -23.0275  -19.6352   -9.3127 N   0  0  0  0  0  0  0  0  0  0  0  0
  -22.7914  -22.7299   -9.9129 N   0  0  0  0  0  0  0  0  0  0  0  0
  -22.5992  -24.0373   -9.6003 C   0  0  0  0  0  0  0  0  0  0  0  0
  -22.3680  -24.1936   -8.2839 N   0  0  0  0  0  0  0  0  0  0  0  0
  1  3  1  1  0  0  0
  1  5  2  0  0  0  0
  1  9  1  0  0  0  0
  1 18  1  0  0  0  0
  2  4  1  6  0  0  0
  2  6  2  0  0  0  0
  2 10  1  0  0  0  0
  2 17  1  0  0  0  0
  7  9  1  0  0  0  0
  8 10  1  0  0  0  0
 11  7  1  6  0  0  0
 11 13  1  0  0  0  0
 11 15  1  0  0  0  0
 12  8  1  1  0  0  0
 12 14  1  0  0  0  0
 12 16  1  0  0  0  0
 13 21  1  0  0  0  0
 14 22  1  0  0  0  0
 15 17  1  1  0  0  0
 15 19  1  0  0  0  0
 16 18  1  6  0  0  0
 16 20  1  0  0  0  0
 19 21  1  0  0  0  0
 20 22  1  0  0  0  0
 21 32  1  6  0  0  0
 22 42  1  1  0  0  0
 23 24  2  0  0  0  0
 23 28  1  0  0  0  0
 24 25  1  0  0  0  0
 25 26  2  0  0  0  0
 26 27  1  0  0  0  0
 26 32  1  0  0  0  0
 27 28  2  0  0  0  0
 27 30  1  0  0  0  0
 28 29  1  0  0  0  0
 30 31  2  0  0  0  0
 31 32  1  0  0  0  0
 33 34  2  0  0  0  0
 33 38  1  0  0  0  0
 34 35  1  0  0  0  0
 35 36  2  0  0  0  0
 36 37  1  0  0  0  0
 36 42  1  0  0  0  0
 37 38  2  0  0  0  0
 37 40  1  0  0  0  0
 38 39  1  0  0  0  0
 40 41  2  0  0  0  0
 41 42  1  0  0  0  0
M  CHG  2   3  -1   4  -1
M  END
>  <CHROM.1>
79.39929009,50.18356432,-19.08436508,-23.59816703,-4.91786061,0.17436090
0.44810747,2.61397130

>  <Name>
ligand

>  <RI>
0

>  <Rbt.Current_Directory>
/home/itssahil/PROJECTS/Mol_Feturizer/New_Systems/rnas/4QLN

>  <Rbt.Executable>
rbdock ($Id: //depot/dev/client3/rdock/2013.1/src/exe/rbdock.cxx#4 $)

>  <Rbt.Library>
libRbt.so (2013.1, Build901 2013/11/27)

>  <Rbt.Parameter_File>
/export/apps/rDock/src/rDock_2013.1_src/data/scripts/dock_solv.prm

>  <Rbt.Receptor>
prm/blind_docking_40.prm

>  <SCORE>
13.6184

>  <SCORE.INTER>
8.48307

>  <SCORE.INTER.CONST>
1

>  <SCORE.INTER.POLAR>
0

>  <SCORE.INTER.ROT>
2

>  <SCORE.INTER.SOLV>
37.0957

>  <SCORE.INTER.VDW>
-11.6432

>  <SCORE.INTER.norm>
0.201978

>  <SCORE.INTRA>
0.120418

>  <SCORE.INTRA.DIHEDRAL>
1.35789e-06

>  <SCORE.INTRA.DIHEDRAL.0>
2.39985

>  <SCORE.INTRA.POLAR>
0

>  <SCORE.INTRA.POLAR.0>
0

>  <SCORE.INTRA.REPUL>
0

>  <SCORE.INTRA.REPUL.0>
0

>  <SCORE.INTRA.SOLV>
1.15616

>  <SCORE.INTRA.SOLV.lig_0>
-110.958

>  <SCORE.INTRA.VDW>
-0.45766

>  <SCORE.INTRA.VDW.0>
-2.34644

>  <SCORE.INTRA.norm>
0.0028671

>  <SCORE.RESTR>
5.01487

>  <SCORE.RESTR.CAVITY>
5.01487

>  <SCORE.RESTR.norm>
0.119402

>  <SCORE.SYSTEM>
0

>  <SCORE.SYSTEM.CONST>
0

>  <SCORE.SYSTEM.DIHEDRAL>
0

>  <SCORE.SYSTEM.SOLV>
0

>  <SCORE.SYSTEM.norm>
0

>  <SCORE.heavy>
42

>  <SCORE.norm>
0.324247

>  <RMSD>
29.089

$$$$
ligand
 OpenBabel11021811513D
libRbt.so/2013.1/901 2013/11/27
 42 48  0  0  0  0  0  0  0  0999 V2000
  -18.5411  -26.9331   -4.9279 P   0  0  2  0  0  0  0  0  0  0  0  0
  -20.9463  -22.8602   -3.1555 P   0  0  1  0  0  0  0  0  0  0  0  0
  -18.2653  -28.0814   -3.9854 O   0  5  0  0  0  0  0  0  0  0  0  0
  -20.4118  -22.3450   -4.4705 O   0  5  0  0  0  0  0  0  0  0  0  0
  -17.8189  -26.8555   -6.2517 O   0  0  0  0  0  0  0  0  0  0  0  0
  -21.9780  -22.0614   -2.3960 O   0  0  0  0  0  0  0  0  0  0  0  0
  -17.2740  -25.4768   -3.1305 C   0  0  0  0  0  0  0  0  0  0  0  0
  -22.5934  -24.5585   -4.3200 C   0  0  0  0  0  0  0  0  0  0  0  0
  -18.2858  -25.5569   -4.1329 O   0  0  0  0  0  0  0  0  0  0  0  0
  -21.5309  -24.3413   -3.3945 O   0  0  0  0  0  0  0  0  0  0  0  0
  -17.6860  -24.4591   -2.0735 C   0  0  1  0  0  0  0  0  0  0  0  0
  -22.2278  -25.7025   -5.2575 C   0  0  1  0  0  0  0  0  0  0  0  0
  -16.5262  -23.9814   -1.3863 O   0  0  0  0  0  0  0  0  0  0  0  0
  -22.9748  -25.5891   -6.4712 O   0  0  0  0  0  0  0  0  0  0  0  0
  -18.3801  -23.2626   -2.7019 C   0  0  1  0  0  0  0  0  0  0  0  0
  -20.7507  -25.6713   -5.6165 C   0  0  1  0  0  0  0  0  0  0  0  0
  -19.6969  -23.1294   -2.1754 O   0  0  0  0  0  0  0  0  0  0  0  0
  -20.1244  -26.8856   -5.2135 O   0  0  0  0  0  0  0  0  0  0  0  0
  -17.5498  -22.0453   -2.3397 C   0  0  0  0  0  0  0  0  0  0  0  0
  -20.6781  -25.5241   -7.1240 C   0  0  0  0  0  0  0  0  0  0  0  0
  -16.3861  -22.5633   -1.5075 C   0  0  2  0  0  0  0  0  0  0  0  0
  -22.1193  -25.4741   -7.6110 C   0  0  2  0  0  0  0  0  0  0  0  0
  -13.8245  -22.2358   -6.0802 N   0  0  0  0  0  0  0  0  0  0  0  0
  -15.0960  -22.5931   -5.8216 C   0  0  0  0  0  0  0  0  0  0  0  0
  -15.6245  -22.6327   -4.5845 N   0  0  0  0  0  0  0  0  0  0  0  0
  -14.8818  -22.3041   -3.5004 C   0  0  0  0  0  0  0  0  0  0  0  0
  -13.4808  -21.9018   -3.7012 C   0  0  0  0  0  0  0  0  0  0  0  0
  -12.9710  -21.8835   -5.0929 C   0  0  0  0  0  0  0  0  0  0  0  0
  -11.6933  -21.5249   -5.3661 N   0  0  0  0  0  0  0  0  0  0  0  0
  -12.9799  -21.6329   -2.4809 N   0  0  0  0  0  0  0  0  0  0  0  0
  -13.9713  -21.8440   -1.5777 C   0  0  0  0  0  0  0  0  0  0  0  0
  -15.1051  -22.2438   -2.1852 N   0  0  0  0  0  0  0  0  0  0  0  0
  -22.6005  -20.2712   -7.0911 N   0  0  0  0  0  0  0  0  0  0  0  0
  -22.3477  -21.2158   -6.1663 C   0  0  0  0  0  0  0  0  0  0  0  0
  -22.2504  -22.5281   -6.4455 N   0  0  0  0  0  0  0  0  0  0  0  0
  -22.4067  -22.9817   -7.7127 C   0  0  0  0  0  0  0  0  0  0  0  0
  -22.6855  -22.0094   -8.7808 C   0  0  0  0  0  0  0  0  0  0  0  0
  -22.7775  -20.5819   -8.3934 C   0  0  0  0  0  0  0  0  0  0  0  0
  -23.0309  -19.6211   -9.3157 N   0  0  0  0  0  0  0  0  0  0  0  0
  -22.7933  -22.7143   -9.9229 N   0  0  0  0  0  0  0  0  0  0  0  0
  -22.6010  -24.0224   -9.6132 C   0  0  0  0  0  0  0  0  0  0  0  0
  -22.3709  -24.1818   -8.2969 N   0  0  0  0  0  0  0  0  0  0  0  0
  1  3  1  1  0  0  0
  1  5  2  0  0  0  0
  1  9  1  0  0  0  0
  1 18  1  0  0  0  0
  2  4  1  6  0  0  0
  2  6  2  0  0  0  0
  2 10  1  0  0  0  0
  2 17  1  0  0  0  0
  7  9  1  0  0  0  0
  8 10  1  0  0  0  0
 11  7  1  6  0  0  0
 11 13  1  0  0  0  0
 11 15  1  0  0  0  0
 12  8  1  1  0  0  0
 12 14  1  0  0  0  0
 12 16  1  0  0  0  0
 13 21  1  0  0  0  0
 14 22  1  0  0  0  0
 15 17  1  1  0  0  0
 15 19  1  0  0  0  0
 16 18  1  6  0  0  0
 16 20  1  0  0  0  0
 19 21  1  0  0  0  0
 20 22  1  0  0  0  0
 21 32  1  6  0  0  0
 22 42  1  1  0  0  0
 23 24  2  0  0  0  0
 23 28  1  0  0  0  0
 24 25  1  0  0  0  0
 25 26  2  0  0  0  0
 26 27  1  0  0  0  0
 26 32  1  0  0  0  0
 27 28  2  0  0  0  0
 27 30  1  0  0  0  0
 28 29  1  0  0  0  0
 30 31  2  0  0  0  0
 31 32  1  0  0  0  0
 33 34  2  0  0  0  0
 33 38  1  0  0  0  0
 34 35  1  0  0  0  0
 35 36  2  0  0  0  0
 36 37  1  0  0  0  0
 36 42  1  0  0  0  0
 37 38  2  0  0  0  0
 37 40  1  0  0  0  0
 38 39  1  0  0  0  0
 40 41  2  0  0  0  0
 41 42  1  0  0  0  0
M  CHG  2   3  -1   4  -1
M  END
>  <CHROM.1>
79.31574416,50.12730134,-19.08731415,-23.59436932,-4.92951304,0.17444506
0.44795920,2.61651684

>  <Name>
ligand

>  <RI>
0

>  <Rbt.Current_Directory>
/home/itssahil/PROJECTS/Mol_Feturizer/New_Systems/rnas/4QLN

>  <Rbt.Executable>
rbdock ($Id: //depot/dev/client3/rdock/2013.1/src/exe/rbdock.cxx#4 $)

>  <Rbt.Library>
libRbt.so (2013.1, Build901 2013/11/27)

>  <Rbt.Parameter_File>
/export/apps/rDock/src/rDock_2013.1_src/data/scripts/dock_solv.prm

>  <Rbt.Receptor>
prm/blind_docking_40.prm

>  <SCORE>
13.5429

>  <SCORE.INTER>
8.40084

>  <SCORE.INTER.CONST>
1

>  <SCORE.INTER.POLAR>
0

>  <SCORE.INTER.ROT>
2

>  <SCORE.INTER.SOLV>
37.1842

>  <SCORE.INTER.VDW>
-11.7275

>  <SCORE.INTER.norm>
0.20002

>  <SCORE.INTRA>
0.113279

>  <SCORE.INTRA.DIHEDRAL>
-1.17562e-06

>  <SCORE.INTRA.DIHEDRAL.0>
2.39985

>  <SCORE.INTRA.POLAR>
0

>  <SCORE.INTRA.POLAR.0>
0

>  <SCORE.INTRA.REPUL>
0

>  <SCORE.INTRA.REPUL.0>
0

>  <SCORE.INTRA.SOLV>
1.1551

>  <SCORE.INTRA.SOLV.lig_0>
-110.958

>  <SCORE.INTRA.VDW>
-0.46427

>  <SCORE.INTRA.VDW.0>
-2.34644

>  <SCORE.INTRA.norm>
0.00269712

>  <SCORE.RESTR>
5.02881

>  <SCORE.RESTR.CAVITY>
5.02881

>  <SCORE.RESTR.norm>
0.119734

>  <SCORE.SYSTEM>
0

>  <SCORE.SYSTEM.CONST>
0

>  <SCORE.SYSTEM.DIHEDRAL>
0

>  <SCORE.SYSTEM.SOLV>
0

>  <SCORE.SYSTEM.norm>
0

>  <SCORE.heavy>
42

>  <SCORE.norm>
0.322451

>  <RMSD>
29.090

$$$$
ligand
 OpenBabel11021811513D
libRbt.so/2013.1/901 2013/11/27
 42 48  0  0  0  0  0  0  0  0999 V2000
  -18.5411  -26.9360   -4.9214 P   0  0  2  0  0  0  0  0  0  0  0  0
  -20.9476  -22.8636   -3.1497 P   0  0  1  0  0  0  0  0  0  0  0  0
  -18.2646  -28.0839   -3.9787 O   0  5  0  0  0  0  0  0  0  0  0  0
  -20.4138  -22.3486   -4.4650 O   0  5  0  0  0  0  0  0  0  0  0  0
  -17.8193  -26.8585   -6.2454 O   0  0  0  0  0  0  0  0  0  0  0  0
  -21.9795  -22.0650   -2.3901 O   0  0  0  0  0  0  0  0  0  0  0  0
  -17.2742  -25.4786   -3.1248 C   0  0  0  0  0  0  0  0  0  0  0  0
  -22.5943  -24.5630   -4.3133 C   0  0  0  0  0  0  0  0  0  0  0  0
  -18.2862  -25.5595   -4.1269 O   0  0  0  0  0  0  0  0  0  0  0  0
  -21.5317  -24.3450   -3.3881 O   0  0  0  0  0  0  0  0  0  0  0  0
  -17.6864  -24.4607   -2.0680 C   0  0  1  0  0  0  0  0  0  0  0  0
  -22.2285  -25.7071   -5.2505 C   0  0  1  0  0  0  0  0  0  0  0  0
  -16.5266  -23.9823   -1.3813 O   0  0  0  0  0  0  0  0  0  0  0  0
  -22.9758  -25.5944   -6.4640 O   0  0  0  0  0  0  0  0  0  0  0  0
  -18.3812  -23.2647   -2.6967 C   0  0  1  0  0  0  0  0  0  0  0  0
  -20.7515  -25.6753   -5.6098 C   0  0  1  0  0  0  0  0  0  0  0  0
  -19.6979  -23.1320   -2.1698 O   0  0  0  0  0  0  0  0  0  0  0  0
  -20.1246  -26.8893   -5.2067 O   0  0  0  0  0  0  0  0  0  0  0  0
  -17.5513  -22.0470   -2.3350 C   0  0  0  0  0  0  0  0  0  0  0  0
  -20.6793  -25.5287   -7.1175 C   0  0  0  0  0  0  0  0  0  0  0  0
  -16.3872  -22.5642   -1.5030 C   0  0  2  0  0  0  0  0  0  0  0  0
  -22.1207  -25.4794   -7.6040 C   0  0  2  0  0  0  0  0  0  0  0  0
  -13.8259  -22.2401   -6.0761 N   0  0  0  0  0  0  0  0  0  0  0  0
  -15.0971  -22.5983   -5.8170 C   0  0  0  0  0  0  0  0  0  0  0  0
  -15.6255  -22.6369   -4.5799 N   0  0  0  0  0  0  0  0  0  0  0  0
  -14.8831  -22.3061   -3.4962 C   0  0  0  0  0  0  0  0  0  0  0  0
  -13.4825  -21.9028   -3.6975 C   0  0  0  0  0  0  0  0  0  0  0  0
  -12.9727  -21.8858   -5.0892 C   0  0  0  0  0  0  0  0  0  0  0  0
  -11.6954  -21.5263   -5.3629 N   0  0  0  0  0  0  0  0  0  0  0  0
  -12.9819  -21.6318   -2.4776 N   0  0  0  0  0  0  0  0  0  0  0  0
  -13.9731  -21.8427   -1.5741 C   0  0  0  0  0  0  0  0  0  0  0  0
  -15.1065  -22.2444   -2.1811 N   0  0  0  0  0  0  0  0  0  0  0  0
  -22.5995  -20.2761   -7.0864 N   0  0  0  0  0  0  0  0  0  0  0  0
  -22.3455  -21.2202   -6.1614 C   0  0  0  0  0  0  0  0  0  0  0  0
  -22.2490  -22.5327   -6.4400 N   0  0  0  0  0  0  0  0  0  0  0  0
  -22.4075  -22.9870   -7.7067 C   0  0  0  0  0  0  0  0  0  0  0  0
  -22.6877  -22.0152   -8.7750 C   0  0  0  0  0  0  0  0  0  0  0  0
  -22.7787  -20.5875   -8.3882 C   0  0  0  0  0  0  0  0  0  0  0  0
  -23.0333  -19.6271   -9.3106 N   0  0  0  0  0  0  0  0  0  0  0  0
  -22.7976  -22.7207   -9.9165 N   0  0  0  0  0  0  0  0  0  0  0  0
  -22.6052  -24.0287   -9.6063 C   0  0  0  0  0  0  0  0  0  0  0  0
  -22.3730  -24.1874   -8.2903 N   0  0  0  0  0  0  0  0  0  0  0  0
  1  3  1  1  0  0  0
  1  5  2  0  0  0  0
  1  9  1  0  0  0  0
  1 18  1  0  0  0  0
  2  4  1  6  0  0  0
  2  6  2  0  0  0  0
  2 10  1  0  0  0  0
  2 17  1  0  0  0  0
  7  9  1  0  0  0  0
  8 10  1  0  0  0  0
 11  7  1  6  0  0  0
 11 13  1  0  0  0  0
 11 15  1  0  0  0  0
 12  8  1  1  0  0  0
 12 14  1  0  0  0  0
 12 16  1  0  0  0  0
 13 21  1  0  0  0  0
 14 22  1  0  0  0  0
 15 17  1  1  0  0  0
 15 19  1  0  0  0  0
 16 18  1  6  0  0  0
 16 20  1  0  0  0  0
 19 21  1  0  0  0  0
 20 22  1  0  0  0  0
 21 32  1  6  0  0  0
 22 42  1  1  0  0  0
 23 24  2  0  0  0  0
 23 28  1  0  0  0  0
 24 25  1  0  0  0  0
 25 26  2  0  0  0  0
 26 27  1  0  0  0  0
 26 32  1  0  0  0  0
 27 28  2  0  0  0  0
 27 30  1  0  0  0  0
 28 29  1  0  0  0  0
 30 31  2  0  0  0  0
 31 32  1  0  0  0  0
 33 34  2  0  0  0  0
 33 38  1  0  0  0  0
 34 35  1  0  0  0  0
 35 36  2  0  0  0  0
 36 37  1  0  0  0  0
 36 42  1  0  0  0  0
 37 38  2  0  0  0  0
 37 40  1  0  0  0  0
 38 39  1  0  0  0  0
 40 41  2  0  0  0  0
 41 42  1  0  0  0  0
M  CHG  2   3  -1   4  -1
M  END
>  <CHROM.1>
79.25107299,50.21678136,-19.08836615,-23.59772903,-4.92398004,0.17399379
0.44797611,2.61630431

>  <Name>
ligand

>  <RI>
0

>  <Rbt.Current_Directory>
/home/itssahil/PROJECTS/Mol_Feturizer/New_Systems/rnas/4QLN

>  <Rbt.Executable>
rbdock ($Id: //depot/dev/client3/rdock/2013.1/src/exe/rbdock.cxx#4 $)

>  <Rbt.Library>
libRbt.so (2013.1, Build901 2013/11/27)

>  <Rbt.Parameter_File>
/export/apps/rDock/src/rDock_2013.1_src/data/scripts/dock_solv.prm

>  <Rbt.Receptor>
prm/blind_docking_40.prm

>  <SCORE>
13.5548

>  <SCORE.INTER>
8.41406

>  <SCORE.INTER.CONST>
1

>  <SCORE.INTER.POLAR>
0

>  <SCORE.INTER.ROT>
2

>  <SCORE.INTER.SOLV>
37.1433

>  <SCORE.INTER.VDW>
-11.7051

>  <SCORE.INTER.norm>
0.200335

>  <SCORE.INTRA>
0.115985

>  <SCORE.INTRA.DIHEDRAL>
1.42068e-06

>  <SCORE.INTRA.DIHEDRAL.0>
2.39985

>  <SCORE.INTRA.POLAR>
0

>  <SCORE.INTRA.POLAR.0>
0

>  <SCORE.INTRA.REPUL>
0

>  <SCORE.INTRA.REPUL.0>
0

>  <SCORE.INTRA.SOLV>
1.15706

>  <SCORE.INTRA.SOLV.lig_0>
-110.958

>  <SCORE.INTRA.VDW>
-0.462548

>  <SCORE.INTRA.VDW.0>
-2.34644

>  <SCORE.INTRA.norm>
0.00276155

>  <SCORE.RESTR>
5.02473

>  <SCORE.RESTR.CAVITY>
5.02473

>  <SCORE.RESTR.norm>
0.119636

>  <SCORE.SYSTEM>
0

>  <SCORE.SYSTEM.CONST>
0

>  <SCORE.SYSTEM.DIHEDRAL>
0

>  <SCORE.SYSTEM.SOLV>
0

>  <SCORE.SYSTEM.norm>
0

>  <SCORE.heavy>
42

>  <SCORE.norm>
0.322733

>  <RMSD>
29.091

$$$$
ligand
 OpenBabel11021811513D
libRbt.so/2013.1/901 2013/11/27
 42 48  0  0  0  0  0  0  0  0999 V2000
  -18.5379  -26.9325   -4.9224 P   0  0  2  0  0  0  0  0  0  0  0  0
  -20.9471  -22.8620   -3.1504 P   0  0  1  0  0  0  0  0  0  0  0  0
  -18.2616  -28.0808   -3.9801 O   0  5  0  0  0  0  0  0  0  0  0  0
  -20.4125  -22.3461   -4.4650 O   0  5  0  0  0  0  0  0  0  0  0  0
  -17.8152  -26.8541   -6.2459 O   0  0  0  0  0  0  0  0  0  0  0  0
  -21.9798  -22.0641   -2.3911 O   0  0  0  0  0  0  0  0  0  0  0  0
  -17.2727  -25.4756   -3.1242 C   0  0  0  0  0  0  0  0  0  0  0  0
  -22.5924  -24.5614   -4.3159 C   0  0  0  0  0  0  0  0  0  0  0  0
  -18.2840  -25.5563   -4.1271 O   0  0  0  0  0  0  0  0  0  0  0  0
  -21.5305  -24.3435   -3.3899 O   0  0  0  0  0  0  0  0  0  0  0  0
  -17.6860  -24.4584   -2.0672 C   0  0  1  0  0  0  0  0  0  0  0  0
  -22.2255  -25.7049   -5.2534 C   0  0  1  0  0  0  0  0  0  0  0  0
  -16.5270  -23.9799   -1.3794 O   0  0  0  0  0  0  0  0  0  0  0  0
  -22.9720  -25.5919   -6.4674 O   0  0  0  0  0  0  0  0  0  0  0  0
  -18.3809  -23.2623   -2.6957 C   0  0  1  0  0  0  0  0  0  0  0  0
  -20.7482  -25.6724   -5.6117 C   0  0  1  0  0  0  0  0  0  0  0  0
  -19.6980  -23.1303   -2.1698 O   0  0  0  0  0  0  0  0  0  0  0  0
  -20.1212  -26.8863   -5.2087 O   0  0  0  0  0  0  0  0  0  0  0  0
  -17.5516  -22.0445   -2.3329 C   0  0  0  0  0  0  0  0  0  0  0  0
  -20.6751  -25.5249   -7.1193 C   0  0  0  0  0  0  0  0  0  0  0  0
  -16.3879  -22.5616   -1.5004 C   0  0  2  0  0  0  0  0  0  0  0  0
  -22.1162  -25.4760   -7.6068 C   0  0  2  0  0  0  0  0  0  0  0  0
  -13.8292  -22.2159   -6.0733 N   0  0  0  0  0  0  0  0  0  0  0  0
  -15.1011  -22.5723   -5.8154 C   0  0  0  0  0  0  0  0  0  0  0  0
  -15.6287  -22.6172   -4.5782 N   0  0  0  0  0  0  0  0  0  0  0  0
  -14.8846  -22.2952   -3.4930 C   0  0  0  0  0  0  0  0  0  0  0  0
  -13.4832  -21.8943   -3.6929 C   0  0  0  0  0  0  0  0  0  0  0  0
  -12.9743  -21.8700   -5.0848 C   0  0  0  0  0  0  0  0  0  0  0  0
  -11.6963  -21.5122   -5.3572 N   0  0  0  0  0  0  0  0  0  0  0  0
  -12.9809  -21.6323   -2.4717 N   0  0  0  0  0  0  0  0  0  0  0  0
  -13.9720  -21.8461   -1.5688 C   0  0  0  0  0  0  0  0  0  0  0  0
  -15.1069  -22.2410   -2.1774 N   0  0  0  0  0  0  0  0  0  0  0  0
  -22.5991  -20.2733   -7.0866 N   0  0  0  0  0  0  0  0  0  0  0  0
  -22.3456  -21.2178   -6.1619 C   0  0  0  0  0  0  0  0  0  0  0  0
  -22.2479  -22.5301   -6.4412 N   0  0  0  0  0  0  0  0  0  0  0  0
  -22.4045  -22.9837   -7.7083 C   0  0  0  0  0  0  0  0  0  0  0  0
  -22.6841  -22.0115   -8.7763 C   0  0  0  0  0  0  0  0  0  0  0  0
  -22.7765  -20.5840   -8.3888 C   0  0  0  0  0  0  0  0  0  0  0  0
  -23.0306  -19.6233   -9.3110 N   0  0  0  0  0  0  0  0  0  0  0  0
  -22.7921  -22.7164   -9.9184 N   0  0  0  0  0  0  0  0  0  0  0  0
  -22.5991  -24.0244   -9.6088 C   0  0  0  0  0  0  0  0  0  0  0  0
  -22.3685  -24.1837   -8.2926 N   0  0  0  0  0  0  0  0  0  0  0  0
  1  3  1  1  0  0  0
  1  5  2  0  0  0  0
  1  9  1  0  0  0  0
  1 18  1  0  0  0  0
  2  4  1  6  0  0  0
  2  6  2  0  0  0  0
  2 10  1  0  0  0  0
  2 17  1  0  0  0  0
  7  9  1  0  0  0  0
  8 10  1  0  0  0  0
 11  7  1  6  0  0  0
 11 13  1  0  0  0  0
 11 15  1  0  0  0  0
 12  8  1  1  0  0  0
 12 14  1  0  0  0  0
 12 16  1  0  0  0  0
 13 21  1  0  0  0  0
 14 22  1  0  0  0  0
 15 17  1  1  0  0  0
 15 19  1  0  0  0  0
 16 18  1  6  0  0  0
 16 20  1  0  0  0  0
 19 21  1  0  0  0  0
 20 22  1  0  0  0  0
 21 32  1  6  0  0  0
 22 42  1  1  0  0  0
 23 24  2  0  0  0  0
 23 28  1  0  0  0  0
 24 25  1  0  0  0  0
 25 26  2  0  0  0  0
 26 27  1  0  0  0  0
 26 32  1  0  0  0  0
 27 28  2  0  0  0  0
 27 30  1  0  0  0  0
 28 29  1  0  0  0  0
 30 31  2  0  0  0  0
 31 32  1  0  0  0  0
 33 34  2  0  0  0  0
 33 38  1  0  0  0  0
 34 35  1  0  0  0  0
 35 36  2  0  0  0  0
 36 37  1  0  0  0  0
 36 42  1  0  0  0  0
 37 38  2  0  0  0  0
 37 40  1  0  0  0  0
 38 39  1  0  0  0  0
 40 41  2  0  0  0  0
 41 42  1  0  0  0  0
M  CHG  2   3  -1   4  -1
M  END
>  <CHROM.1>
79.63112800,50.18002416,-19.08698099,-23.59300225,-4.92383190,0.17392216
0.44895765,2.61587036

>  <Name>
ligand

>  <RI>
0

>  <Rbt.Current_Directory>
/home/itssahil/PROJECTS/Mol_Feturizer/New_Systems/rnas/4QLN

>  <Rbt.Executable>
rbdock ($Id: //depot/dev/client3/rdock/2013.1/src/exe/rbdock.cxx#4 $)

>  <Rbt.Library>
libRbt.so (2013.1, Build901 2013/11/27)

>  <Rbt.Parameter_File>
/export/apps/rDock/src/rDock_2013.1_src/data/scripts/dock_solv.prm

>  <Rbt.Receptor>
prm/blind_docking_40.prm

>  <SCORE>
13.5605

>  <SCORE.INTER>
8.40878

>  <SCORE.INTER.CONST>
1

>  <SCORE.INTER.POLAR>
0

>  <SCORE.INTER.ROT>
2

>  <SCORE.INTER.SOLV>
37.1268

>  <SCORE.INTER.VDW>
-11.7031

>  <SCORE.INTER.norm>
0.200209

>  <SCORE.INTRA>
0.130423

>  <SCORE.INTRA.DIHEDRAL>
2.89425e-06

>  <SCORE.INTRA.DIHEDRAL.0>
2.39985

>  <SCORE.INTRA.POLAR>
0

>  <SCORE.INTRA.POLAR.0>
0

>  <SCORE.INTRA.REPUL>
0

>  <SCORE.INTRA.REPUL.0>
0

>  <SCORE.INTRA.SOLV>
1.15574

>  <SCORE.INTRA.SOLV.lig_0>
-110.958

>  <SCORE.INTRA.VDW>
-0.447449

>  <SCORE.INTRA.VDW.0>
-2.34644

>  <SCORE.INTRA.norm>
0.00310532

>  <SCORE.RESTR>
5.02131

>  <SCORE.RESTR.CAVITY>
5.02131

>  <SCORE.RESTR.norm>
0.119555

>  <SCORE.SYSTEM>
0

>  <SCORE.SYSTEM.CONST>
0

>  <SCORE.SYSTEM.DIHEDRAL>
0

>  <SCORE.SYSTEM.SOLV>
0

>  <SCORE.SYSTEM.norm>
0

>  <SCORE.heavy>
42

>  <SCORE.norm>
0.322869

>  <RMSD>
29.092

$$$$
ligand
 OpenBabel11021811513D
libRbt.so/2013.1/901 2013/11/27
 42 48  0  0  0  0  0  0  0  0999 V2000
  -18.5389  -26.9323   -4.9241 P   0  0  2  0  0  0  0  0  0  0  0  0
  -20.9486  -22.8625   -3.1508 P   0  0  1  0  0  0  0  0  0  0  0  0
  -18.2636  -28.0813   -3.9824 O   0  5  0  0  0  0  0  0  0  0  0  0
  -20.4130  -22.3457   -4.4648 O   0  5  0  0  0  0  0  0  0  0  0  0
  -17.8153  -26.8530   -6.2470 O   0  0  0  0  0  0  0  0  0  0  0  0
  -21.9817  -22.0650   -2.3918 O   0  0  0  0  0  0  0  0  0  0  0  0
  -17.2748  -25.4769   -3.1239 C   0  0  0  0  0  0  0  0  0  0  0  0
  -22.5934  -24.5607   -4.3188 C   0  0  0  0  0  0  0  0  0  0  0  0
  -18.2854  -25.5567   -4.1276 O   0  0  0  0  0  0  0  0  0  0  0  0
  -21.5321  -24.3437   -3.3919 O   0  0  0  0  0  0  0  0  0  0  0  0
  -17.6886  -24.4604   -2.0665 C   0  0  1  0  0  0  0  0  0  0  0  0
  -22.2260  -25.7036   -5.2569 C   0  0  1  0  0  0  0  0  0  0  0  0
  -16.5300  -23.9826   -1.3776 O   0  0  0  0  0  0  0  0  0  0  0  0
  -22.9717  -25.5896   -6.4713 O   0  0  0  0  0  0  0  0  0  0  0  0
  -18.3828  -23.2637   -2.6947 C   0  0  1  0  0  0  0  0  0  0  0  0
  -20.7485  -25.6712   -5.6141 C   0  0  1  0  0  0  0  0  0  0  0  0
  -19.7002  -23.1318   -2.1696 O   0  0  0  0  0  0  0  0  0  0  0  0
  -20.1220  -26.8855   -5.2115 O   0  0  0  0  0  0  0  0  0  0  0  0
  -17.5536  -22.0463   -2.3303 C   0  0  0  0  0  0  0  0  0  0  0  0
  -20.6743  -25.5226   -7.1215 C   0  0  0  0  0  0  0  0  0  0  0  0
  -16.3905  -22.5643   -1.4973 C   0  0  2  0  0  0  0  0  0  0  0  0
  -22.1150  -25.4731   -7.6100 C   0  0  2  0  0  0  0  0  0  0  0  0
  -13.8269  -22.2212   -6.0677 N   0  0  0  0  0  0  0  0  0  0  0  0
  -15.0988  -22.5782   -5.8109 C   0  0  0  0  0  0  0  0  0  0  0  0
  -15.6278  -22.6222   -4.5743 N   0  0  0  0  0  0  0  0  0  0  0  0
  -14.8852  -22.2987   -3.4885 C   0  0  0  0  0  0  0  0  0  0  0  0
  -13.4837  -21.8971   -3.6872 C   0  0  0  0  0  0  0  0  0  0  0  0
  -12.9733  -21.8737   -5.0786 C   0  0  0  0  0  0  0  0  0  0  0  0
  -11.6952  -21.5153   -5.3499 N   0  0  0  0  0  0  0  0  0  0  0  0
  -12.9830  -21.6336   -2.4657 N   0  0  0  0  0  0  0  0  0  0  0  0
  -13.9750  -21.8473   -1.5637 C   0  0  0  0  0  0  0  0  0  0  0  0
  -15.1089  -22.2435   -2.1733 N   0  0  0  0  0  0  0  0  0  0  0  0
  -22.6014  -20.2711   -7.0857 N   0  0  0  0  0  0  0  0  0  0  0  0
  -22.3493  -21.2164   -6.1615 C   0  0  0  0  0  0  0  0  0  0  0  0
  -22.2505  -22.5283   -6.4418 N   0  0  0  0  0  0  0  0  0  0  0  0
  -22.4043  -22.9808   -7.7097 C   0  0  0  0  0  0  0  0  0  0  0  0
  -22.6822  -22.0076   -8.7773 C   0  0  0  0  0  0  0  0  0  0  0  0
  -22.7760  -20.5806   -8.3886 C   0  0  0  0  0  0  0  0  0  0  0  0
  -23.0287  -19.6191   -9.3104 N   0  0  0  0  0  0  0  0  0  0  0  0
  -22.7876  -22.7115   -9.9203 N   0  0  0  0  0  0  0  0  0  0  0  0
  -22.5947  -24.0197   -9.6116 C   0  0  0  0  0  0  0  0  0  0  0  0
  -22.3665  -24.1802   -8.2951 N   0  0  0  0  0  0  0  0  0  0  0  0
  1  3  1  1  0  0  0
  1  5  2  0  0  0  0
  1  9  1  0  0  0  0
  1 18  1  0  0  0  0
  2  4  1  6  0  0  0
  2  6  2  0  0  0  0
  2 10  1  0  0  0  0
  2 17  1  0  0  0  0
  7  9  1  0  0  0  0
  8 10  1  0  0  0  0
 11  7  1  6  0  0  0
 11 13  1  0  0  0  0
 11 15  1  0  0  0  0
 12  8  1  1  0  0  0
 12 14  1  0  0  0  0
 12 16  1  0  0  0  0
 13 21  1  0  0  0  0
 14 22  1  0  0  0  0
 15 17  1  1  0  0  0
 15 19  1  0  0  0  0
 16 18  1  6  0  0  0
 16 20  1  0  0  0  0
 19 21  1  0  0  0  0
 20 22  1  0  0  0  0
 21 32  1  6  0  0  0
 22 42  1  1  0  0  0
 23 24  2  0  0  0  0
 23 28  1  0  0  0  0
 24 25  1  0  0  0  0
 25 26  2  0  0  0  0
 26 27  1  0  0  0  0
 26 32  1  0  0  0  0
 27 28  2  0  0  0  0
 27 30  1  0  0  0  0
 28 29  1  0  0  0  0
 30 31  2  0  0  0  0
 31 32  1  0  0  0  0
 33 34  2  0  0  0  0
 33 38  1  0  0  0  0
 34 35  1  0  0  0  0
 35 36  2  0  0  0  0
 36 37  1  0  0  0  0
 36 42  1  0  0  0  0
 37 38  2  0  0  0  0
 37 40  1  0  0  0  0
 38 39  1  0  0  0  0
 40 41  2  0  0  0  0
 41 42  1  0  0  0  0
M  CHG  2   3  -1   4  -1
M  END
>  <CHROM.1>
79.52086086,50.09628039,-19.08756036,-23.59310465,-4.92341784,0.17445225
0.44935821,2.61693795

>  <Name>
ligand

>  <RI>
0

>  <Rbt.Current_Directory>
/home/itssahil/PROJECTS/Mol_Feturizer/New_Systems/rnas/4QLN

>  <Rbt.Executable>
rbdock ($Id: //depot/dev/client3/rdock/2013.1/src/exe/rbdock.cxx#4 $)

>  <Rbt.Library>
libRbt.so (2013.1, Build901 2013/11/27)

>  <Rbt.Parameter_File>
/export/apps/rDock/src/rDock_2013.1_src/data/scripts/dock_solv.prm

>  <Rbt.Receptor>
prm/blind_docking_40.prm

>  <SCORE>
13.5638

>  <SCORE.INTER>
8.41823

>  <SCORE.INTER.CONST>
1

>  <SCORE.INTER.POLAR>
0

>  <SCORE.INTER.ROT>
2

>  <SCORE.INTER.SOLV>
37.1269

>  <SCORE.INTER.VDW>
-11.6968

>  <SCORE.INTER.norm>
0.200434

>  <SCORE.INTRA>
0.120398

>  <SCORE.INTRA.DIHEDRAL>
-7.5844e-07

>  <SCORE.INTRA.DIHEDRAL.0>
2.39985

>  <SCORE.INTRA.POLAR>
0

>  <SCORE.INTRA.POLAR.0>
0

>  <SCORE.INTRA.REPUL>
0

>  <SCORE.INTRA.REPUL.0>
0

>  <SCORE.INTRA.SOLV>
1.15415

>  <SCORE.INTRA.SOLV.lig_0>
-110.958

>  <SCORE.INTRA.VDW>
-0.456674

>  <SCORE.INTRA.VDW.0>
-2.34644

>  <SCORE.INTRA.norm>
0.00286662

>  <SCORE.RESTR>
5.02512

>  <SCORE.RESTR.CAVITY>
5.02512

>  <SCORE.RESTR.norm>
0.119646

>  <SCORE.SYSTEM>
0

>  <SCORE.SYSTEM.CONST>
0

>  <SCORE.SYSTEM.DIHEDRAL>
0

>  <SCORE.SYSTEM.SOLV>
0

>  <SCORE.SYSTEM.norm>
0

>  <SCORE.heavy>
42

>  <SCORE.norm>
0.322946

>  <RMSD>
29.092

$$$$
ligand
 OpenBabel11021811513D
libRbt.so/2013.1/901 2013/11/27
 42 48  0  0  0  0  0  0  0  0999 V2000
  -18.5401  -26.9318   -4.9200 P   0  0  2  0  0  0  0  0  0  0  0  0
  -20.9469  -22.8592   -3.1493 P   0  0  1  0  0  0  0  0  0  0  0  0
  -18.2645  -28.0799   -3.9773 O   0  5  0  0  0  0  0  0  0  0  0  0
  -20.4120  -22.3440   -4.4642 O   0  5  0  0  0  0  0  0  0  0  0  0
  -17.8174  -26.8542   -6.2435 O   0  0  0  0  0  0  0  0  0  0  0  0
  -21.9791  -22.0604   -2.3903 O   0  0  0  0  0  0  0  0  0  0  0  0
  -17.2740  -25.4749   -3.1223 C   0  0  0  0  0  0  0  0  0  0  0  0
  -22.5932  -24.5580   -4.3142 C   0  0  0  0  0  0  0  0  0  0  0  0
  -18.2854  -25.5555   -4.1252 O   0  0  0  0  0  0  0  0  0  0  0  0
  -21.5312  -24.3404   -3.3883 O   0  0  0  0  0  0  0  0  0  0  0  0
  -17.6867  -24.4572   -2.0657 C   0  0  1  0  0  0  0  0  0  0  0  0
  -22.2270  -25.7020   -5.2513 C   0  0  1  0  0  0  0  0  0  0  0  0
  -16.5273  -23.9791   -1.3781 O   0  0  0  0  0  0  0  0  0  0  0  0
  -22.9735  -25.5890   -6.4653 O   0  0  0  0  0  0  0  0  0  0  0  0
  -18.3809  -23.2609   -2.6946 C   0  0  1  0  0  0  0  0  0  0  0  0
  -20.7497  -25.6706   -5.6097 C   0  0  1  0  0  0  0  0  0  0  0  0
  -19.6979  -23.1279   -2.1687 O   0  0  0  0  0  0  0  0  0  0  0  0
  -20.1234  -26.8847   -5.2063 O   0  0  0  0  0  0  0  0  0  0  0  0
  -17.5509  -22.0434   -2.3322 C   0  0  0  0  0  0  0  0  0  0  0  0
  -20.6765  -25.5237   -7.1173 C   0  0  0  0  0  0  0  0  0  0  0  0
  -16.3874  -22.5610   -1.4995 C   0  0  2  0  0  0  0  0  0  0  0  0
  -22.1176  -25.4741   -7.6048 C   0  0  2  0  0  0  0  0  0  0  0  0
  -13.8248  -22.2312   -6.0715 N   0  0  0  0  0  0  0  0  0  0  0  0
  -15.0964  -22.5883   -5.8133 C   0  0  0  0  0  0  0  0  0  0  0  0
  -15.6252  -22.6286   -4.5764 N   0  0  0  0  0  0  0  0  0  0  0  0
  -14.8827  -22.3008   -3.4919 C   0  0  0  0  0  0  0  0  0  0  0  0
  -13.4816  -21.8988   -3.6921 C   0  0  0  0  0  0  0  0  0  0  0  0
  -12.9714  -21.8796   -5.0837 C   0  0  0  0  0  0  0  0  0  0  0  0
  -11.6936  -21.5211   -5.3564 N   0  0  0  0  0  0  0  0  0  0  0  0
  -12.9809  -21.6307   -2.4716 N   0  0  0  0  0  0  0  0  0  0  0  0
  -13.9725  -21.8422   -1.5688 C   0  0  0  0  0  0  0  0  0  0  0  0
  -15.1062  -22.2414   -2.1767 N   0  0  0  0  0  0  0  0  0  0  0  0
  -22.6007  -20.2712   -7.0859 N   0  0  0  0  0  0  0  0  0  0  0  0
  -22.3481  -21.2156   -6.1608 C   0  0  0  0  0  0  0  0  0  0  0  0
  -22.2502  -22.5279   -6.4398 N   0  0  0  0  0  0  0  0  0  0  0  0
  -22.4056  -22.9817   -7.7070 C   0  0  0  0  0  0  0  0  0  0  0  0
  -22.6841  -22.0096   -8.7754 C   0  0  0  0  0  0  0  0  0  0  0  0
  -22.7768  -20.5821   -8.3882 C   0  0  0  0  0  0  0  0  0  0  0  0
  -23.0299  -19.6215   -9.3108 N   0  0  0  0  0  0  0  0  0  0  0  0
  -22.7911  -22.7147   -9.9175 N   0  0  0  0  0  0  0  0  0  0  0  0
  -22.5986  -24.0227   -9.6075 C   0  0  0  0  0  0  0  0  0  0  0  0
  -22.3692  -24.1818   -8.2911 N   0  0  0  0  0  0  0  0  0  0  0  0
  1  3  1  1  0  0  0
  1  5  2  0  0  0  0
  1  9  1  0  0  0  0
  1 18  1  0  0  0  0
  2  4  1  6  0  0  0
  2  6  2  0  0  0  0
  2 10  1  0  0  0  0
  2 17  1  0  0  0  0
  7  9  1  0  0  0  0
  8 10  1  0  0  0  0
 11  7  1  6  0  0  0
 11 13  1  0  0  0  0
 11 15  1  0  0  0  0
 12  8  1  1  0  0  0
 12 14  1  0  0  0  0
 12 16  1  0  0  0  0
 13 21  1  0  0  0  0
 14 22  1  0  0  0  0
 15 17  1  1  0  0  0
 15 19  1  0  0  0  0
 16 18  1  6  0  0  0
 16 20  1  0  0  0  0
 19 21  1  0  0  0  0
 20 22  1  0  0  0  0
 21 32  1  6  0  0  0
 22 42  1  1  0  0  0
 23 24  2  0  0  0  0
 23 28  1  0  0  0  0
 24 25  1  0  0  0  0
 25 26  2  0  0  0  0
 26 27  1  0  0  0  0
 26 32  1  0  0  0  0
 27 28  2  0  0  0  0
 27 30  1  0  0  0  0
 28 29  1  0  0  0  0
 30 31  2  0  0  0  0
 31 32  1  0  0  0  0
 33 34  2  0  0  0  0
 33 38  1  0  0  0  0
 34 35  1  0  0  0  0
 35 36  2  0  0  0  0
 36 37  1  0  0  0  0
 36 42  1  0  0  0  0
 37 38  2  0  0  0  0
 37 40  1  0  0  0  0
 38 39  1  0  0  0  0
 40 41  2  0  0  0  0
 41 42  1  0  0  0  0
M  CHG  2   3  -1   4  -1
M  END
>  <CHROM.1>
79.36808003,50.11590396,-19.08716511,-23.59299801,-4.92243415,0.17444951
0.44844140,2.61623714

>  <Name>
ligand

>  <RI>
0

>  <Rbt.Current_Directory>
/home/itssahil/PROJECTS/Mol_Feturizer/New_Systems/rnas/4QLN

>  <Rbt.Executable>
rbdock ($Id: //depot/dev/client3/rdock/2013.1/src/exe/rbdock.cxx#4 $)

>  <Rbt.Library>
libRbt.so (2013.1, Build901 2013/11/27)

>  <Rbt.Parameter_File>
/export/apps/rDock/src/rDock_2013.1_src/data/scripts/dock_solv.prm

>  <Rbt.Receptor>
prm/blind_docking_40.prm

>  <SCORE>
13.5504

>  <SCORE.INTER>
8.40898

>  <SCORE.INTER.CONST>
1

>  <SCORE.INTER.POLAR>
0

>  <SCORE.INTER.ROT>
2

>  <SCORE.INTER.SOLV>
37.1394

>  <SCORE.INTER.VDW>
-11.7072

>  <SCORE.INTER.norm>
0.200214

>  <SCORE.INTRA>
0.114876

>  <SCORE.INTRA.DIHEDRAL>
-1.18603e-06

>  <SCORE.INTRA.DIHEDRAL.0>
2.39985

>  <SCORE.INTRA.POLAR>
0

>  <SCORE.INTRA.POLAR.0>
0

>  <SCORE.INTRA.REPUL>
0

>  <SCORE.INTRA.REPUL.0>
0

>  <SCORE.INTRA.SOLV>
1.15478

>  <SCORE.INTRA.SOLV.lig_0>
-110.958

>  <SCORE.INTRA.VDW>
-0.462515

>  <SCORE.INTRA.VDW.0>
-2.34644

>  <SCORE.INTRA.norm>
0.00273513

>  <SCORE.RESTR>
5.02656

>  <SCORE.RESTR.CAVITY>
5.02656

>  <SCORE.RESTR.norm>
0.11968

>  <SCORE.SYSTEM>
0

>  <SCORE.SYSTEM.CONST>
0

>  <SCORE.SYSTEM.DIHEDRAL>
0

>  <SCORE.SYSTEM.SOLV>
0

>  <SCORE.SYSTEM.norm>
0

>  <SCORE.heavy>
42

>  <SCORE.norm>
0.322629

>  <RMSD>
29.092

$$$$
ligand
 OpenBabel11021811513D
libRbt.so/2013.1/901 2013/11/27
 42 48  0  0  0  0  0  0  0  0999 V2000
  -18.5449  -26.9370   -4.9115 P   0  0  2  0  0  0  0  0  0  0  0  0
  -20.9504  -22.8613   -3.1461 P   0  0  1  0  0  0  0  0  0  0  0  0
  -18.2703  -28.0842   -3.9674 O   0  5  0  0  0  0  0  0  0  0  0  0
  -20.4147  -22.3478   -4.4613 O   0  5  0  0  0  0  0  0  0  0  0  0
  -17.8216  -26.8612   -6.2348 O   0  0  0  0  0  0  0  0  0  0  0  0
  -21.9825  -22.0612   -2.3884 O   0  0  0  0  0  0  0  0  0  0  0  0
  -17.2789  -25.4789   -3.1148 C   0  0  0  0  0  0  0  0  0  0  0  0
  -22.5970  -24.5605   -4.3099 C   0  0  0  0  0  0  0  0  0  0  0  0
  -18.2898  -25.5599   -4.1180 O   0  0  0  0  0  0  0  0  0  0  0  0
  -21.5353  -24.3425   -3.3838 O   0  0  0  0  0  0  0  0  0  0  0  0
  -17.6914  -24.4598   -2.0594 C   0  0  1  0  0  0  0  0  0  0  0  0
  -22.2310  -25.7057   -5.2457 C   0  0  1  0  0  0  0  0  0  0  0  0
  -16.5321  -23.9815   -1.3719 O   0  0  0  0  0  0  0  0  0  0  0  0
  -22.9769  -25.5935   -6.4601 O   0  0  0  0  0  0  0  0  0  0  0  0
  -18.3847  -23.2638   -2.6899 C   0  0  1  0  0  0  0  0  0  0  0  0
  -20.7536  -25.6753   -5.6035 C   0  0  1  0  0  0  0  0  0  0  0  0
  -19.7019  -23.1296   -2.1646 O   0  0  0  0  0  0  0  0  0  0  0  0
  -20.1280  -26.8893   -5.1985 O   0  0  0  0  0  0  0  0  0  0  0  0
  -17.5543  -22.0463   -2.3284 C   0  0  0  0  0  0  0  0  0  0  0  0
  -20.6797  -25.5301   -7.1112 C   0  0  0  0  0  0  0  0  0  0  0  0
  -16.3915  -22.5636   -1.4947 C   0  0  2  0  0  0  0  0  0  0  0  0
  -22.1205  -25.4802   -7.5993 C   0  0  2  0  0  0  0  0  0  0  0  0
  -13.8285  -22.2339   -6.0664 N   0  0  0  0  0  0  0  0  0  0  0  0
  -15.1007  -22.5894   -5.8085 C   0  0  0  0  0  0  0  0  0  0  0  0
  -15.6294  -22.6299   -4.5716 N   0  0  0  0  0  0  0  0  0  0  0  0
  -14.8864  -22.3041   -3.4869 C   0  0  0  0  0  0  0  0  0  0  0  0
  -13.4847  -21.9040   -3.6869 C   0  0  0  0  0  0  0  0  0  0  0  0
  -12.9746  -21.8845   -5.0784 C   0  0  0  0  0  0  0  0  0  0  0  0
  -11.6963  -21.5277   -5.3509 N   0  0  0  0  0  0  0  0  0  0  0  0
  -12.9836  -21.6376   -2.4661 N   0  0  0  0  0  0  0  0  0  0  0  0
  -13.9755  -21.8484   -1.5634 C   0  0  0  0  0  0  0  0  0  0  0  0
  -15.1098  -22.2454   -2.1717 N   0  0  0  0  0  0  0  0  0  0  0  0
  -22.5975  -20.2762   -7.0867 N   0  0  0  0  0  0  0  0  0  0  0  0
  -22.3453  -21.2197   -6.1606 C   0  0  0  0  0  0  0  0  0  0  0  0
  -22.2491  -22.5325   -6.4380 N   0  0  0  0  0  0  0  0  0  0  0  0
  -22.4059  -22.9877   -7.7045 C   0  0  0  0  0  0  0  0  0  0  0  0
  -22.6840  -22.0167   -8.7740 C   0  0  0  0  0  0  0  0  0  0  0  0
  -22.7748  -20.5886   -8.3885 C   0  0  0  0  0  0  0  0  0  0  0  0
  -23.0276  -19.6289   -9.3121 N   0  0  0  0  0  0  0  0  0  0  0  0
  -22.7925  -22.7231   -9.9151 N   0  0  0  0  0  0  0  0  0  0  0  0
  -22.6012  -24.0309   -9.6036 C   0  0  0  0  0  0  0  0  0  0  0  0
  -22.3711  -24.1886   -8.2871 N   0  0  0  0  0  0  0  0  0  0  0  0
  1  3  1  1  0  0  0
  1  5  2  0  0  0  0
  1  9  1  0  0  0  0
  1 18  1  0  0  0  0
  2  4  1  6  0  0  0
  2  6  2  0  0  0  0
  2 10  1  0  0  0  0
  2 17  1  0  0  0  0
  7  9  1  0  0  0  0
  8 10  1  0  0  0  0
 11  7  1  6  0  0  0
 11 13  1  0  0  0  0
 11 15  1  0  0  0  0
 12  8  1  1  0  0  0
 12 14  1  0  0  0  0
 12 16  1  0  0  0  0
 13 21  1  0  0  0  0
 14 22  1  0  0  0  0
 15 17  1  1  0  0  0
 15 19  1  0  0  0  0
 16 18  1  6  0  0  0
 16 20  1  0  0  0  0
 19 21  1  0  0  0  0
 20 22  1  0  0  0  0
 21 32  1  6  0  0  0
 22 42  1  1  0  0  0
 23 24  2  0  0  0  0
 23 28  1  0  0  0  0
 24 25  1  0  0  0  0
 25 26  2  0  0  0  0
 26 27  1  0  0  0  0
 26 32  1  0  0  0  0
 27 28  2  0  0  0  0
 27 30  1  0  0  0  0
 28 29  1  0  0  0  0
 30 31  2  0  0  0  0
 31 32  1  0  0  0  0
 33 34  2  0  0  0  0
 33 38  1  0  0  0  0
 34 35  1  0  0  0  0
 35 36  2  0  0  0  0
 36 37  1  0  0  0  0
 36 42  1  0  0  0  0
 37 38  2  0  0  0  0
 37 40  1  0  0  0  0
 38 39  1  0  0  0  0
 40 41  2  0  0  0  0
 41 42  1  0  0  0  0
M  CHG  2   3  -1   4  -1
M  END
>  <CHROM.1>
79.49183722,50.18786952,-19.09010087,-23.59736777,-4.91776051,0.17523730
0.44867334,2.61426486

>  <Name>
ligand

>  <RI>
0

>  <Rbt.Current_Directory>
/home/itssahil/PROJECTS/Mol_Feturizer/New_Systems/rnas/4QLN

>  <Rbt.Executable>
rbdock ($Id: //depot/dev/client3/rdock/2013.1/src/exe/rbdock.cxx#4 $)

>  <Rbt.Library>
libRbt.so (2013.1, Build901 2013/11/27)

>  <Rbt.Parameter_File>
/export/apps/rDock/src/rDock_2013.1_src/data/scripts/dock_solv.prm

>  <Rbt.Receptor>
prm/blind_docking_40.prm

>  <SCORE>
13.6029

>  <SCORE.INTER>
8.46059

>  <SCORE.INTER.CONST>
1

>  <SCORE.INTER.POLAR>
0

>  <SCORE.INTER.ROT>
2

>  <SCORE.INTER.SOLV>
37.0794

>  <SCORE.INTER.VDW>
-11.6527

>  <SCORE.INTER.norm>
0.201443

>  <SCORE.INTRA>
0.124758

>  <SCORE.INTRA.DIHEDRAL>
2.17126e-06

>  <SCORE.INTRA.DIHEDRAL.0>
2.39985

>  <SCORE.INTRA.POLAR>
0

>  <SCORE.INTRA.POLAR.0>
0

>  <SCORE.INTRA.REPUL>
0

>  <SCORE.INTRA.REPUL.0>
0

>  <SCORE.INTRA.SOLV>
1.15611

>  <SCORE.INTRA.SOLV.lig_0>
-110.958

>  <SCORE.INTRA.VDW>
-0.453298

>  <SCORE.INTRA.VDW.0>
-2.34644

>  <SCORE.INTRA.norm>
0.00297043

>  <SCORE.RESTR>
5.01754

>  <SCORE.RESTR.CAVITY>
5.01754

>  <SCORE.RESTR.norm>
0.119465

>  <SCORE.SYSTEM>
0

>  <SCORE.SYSTEM.CONST>
0

>  <SCORE.SYSTEM.DIHEDRAL>
0

>  <SCORE.SYSTEM.SOLV>
0

>  <SCORE.SYSTEM.norm>
0

>  <SCORE.heavy>
42

>  <SCORE.norm>
0.323878

>  <RMSD>
29.095

$$$$
ligand
 OpenBabel11021811513D
libRbt.so/2013.1/901 2013/11/27
 42 48  0  0  0  0  0  0  0  0999 V2000
  -18.8113  -37.6117  -25.7489 P   0  0  2  0  0  0  0  0  0  0  0  0
  -23.5903  -35.9800  -25.8636 P   0  0  1  0  0  0  0  0  0  0  0  0
  -18.4207  -38.7785  -26.6257 O   0  5  0  0  0  0  0  0  0  0  0  0
  -23.0684  -35.2943  -24.6235 O   0  5  0  0  0  0  0  0  0  0  0  0
  -17.9015  -37.1768  -24.6249 O   0  0  0  0  0  0  0  0  0  0  0  0
  -24.9154  -35.5628  -26.4548 O   0  0  0  0  0  0  0  0  0  0  0  0
  -20.6617  -39.2464  -24.8210 C   0  0  0  0  0  0  0  0  0  0  0  0
  -22.0272  -34.5911  -27.4702 C   0  0  0  0  0  0  0  0  0  0  0  0
  -20.2674  -37.9110  -25.1317 O   0  0  0  0  0  0  0  0  0  0  0  0
  -22.4676  -35.8674  -27.0123 O   0  0  0  0  0  0  0  0  0  0  0  0
  -22.1706  -39.3818  -24.9866 C   0  0  1  0  0  0  0  0  0  0  0  0
  -20.5045  -34.5431  -27.4612 C   0  0  1  0  0  0  0  0  0  0  0  0
  -22.6440  -40.4842  -24.2081 O   0  0  0  0  0  0  0  0  0  0  0  0
  -20.0650  -33.1849  -27.3850 O   0  0  0  0  0  0  0  0  0  0  0  0
  -22.8914  -38.1321  -24.5099 C   0  0  1  0  0  0  0  0  0  0  0  0
  -19.9361  -35.2833  -26.2609 C   0  0  1  0  0  0  0  0  0  0  0  0
  -23.6433  -37.5642  -25.5780 O   0  0  0  0  0  0  0  0  0  0  0  0
  -19.0857  -36.3398  -26.6965 O   0  0  0  0  0  0  0  0  0  0  0  0
  -23.8222  -38.5722  -23.3953 C   0  0  0  0  0  0  0  0  0  0  0  0
  -19.1377  -34.2666  -25.4680 C   0  0  0  0  0  0  0  0  0  0  0  0
  -23.6197  -40.0728  -23.2468 C   0  0  2  0  0  0  0  0  0  0  0  0
  -19.2584  -32.9531  -26.2275 C   0  0  2  0  0  0  0  0  0  0  0  0
  -23.2895  -38.4541  -18.2620 N   0  0  0  0  0  0  0  0  0  0  0  0
  -23.8548  -37.8628  -19.3306 C   0  0  0  0  0  0  0  0  0  0  0  0
  -23.8639  -38.4001  -20.5645 N   0  0  0  0  0  0  0  0  0  0  0  0
  -23.2874  -39.6024  -20.8035 C   0  0  0  0  0  0  0  0  0  0  0  0
  -22.6480  -40.3125  -19.6847 C   0  0  0  0  0  0  0  0  0  0  0  0
  -22.6783  -39.6562  -18.3561 C   0  0  0  0  0  0  0  0  0  0  0  0
  -22.1135  -40.2417  -17.2726 N   0  0  0  0  0  0  0  0  0  0  0  0
  -22.1616  -41.4625  -20.1878 N   0  0  0  0  0  0  0  0  0  0  0  0
  -22.4620  -41.4877  -21.5116 C   0  0  0  0  0  0  0  0  0  0  0  0
  -23.1333  -40.3792  -21.8787 N   0  0  0  0  0  0  0  0  0  0  0  0
  -18.7137  -28.3758  -23.7127 N   0  0  0  0  0  0  0  0  0  0  0  0
  -17.8354  -29.0602  -24.4689 C   0  0  0  0  0  0  0  0  0  0  0  0
  -18.1148  -30.2360  -25.0596 N   0  0  0  0  0  0  0  0  0  0  0  0
  -19.3338  -30.8108  -24.9198 C   0  0  0  0  0  0  0  0  0  0  0  0
  -20.3493  -30.1230  -24.1076 C   0  0  0  0  0  0  0  0  0  0  0  0
  -19.9652  -28.8318  -23.4898 C   0  0  0  0  0  0  0  0  0  0  0  0
  -20.8410  -28.1328  -22.7268 N   0  0  0  0  0  0  0  0  0  0  0  0
  -21.4507  -30.8970  -24.1341 N   0  0  0  0  0  0  0  0  0  0  0  0
  -21.1654  -31.9844  -24.8957 C   0  0  0  0  0  0  0  0  0  0  0  0
  -19.9046  -31.9333  -25.3635 N   0  0  0  0  0  0  0  0  0  0  0  0
  1  3  1  6  0  0  0
  1  5  2  0  0  0  0
  1  9  1  0  0  0  0
  1 18  1  0  0  0  0
  2  4  1  1  0  0  0
  2  6  2  0  0  0  0
  2 10  1  0  0  0  0
  2 17  1  0  0  0  0
  7  9  1  0  0  0  0
  8 10  1  0  0  0  0
 11  7  1  1  0  0  0
 11 13  1  0  0  0  0
 11 15  1  0  0  0  0
 12  8  1  1  0  0  0
 12 14  1  0  0  0  0
 12 16  1  0  0  0  0
 13 21  1  0  0  0  0
 14 22  1  0  0  0  0
 15 17  1  6  0  0  0
 15 19  1  0  0  0  0
 16 18  1  6  0  0  0
 16 20  1  0  0  0  0
 19 21  1  0  0  0  0
 20 22  1  0  0  0  0
 21 32  1  1  0  0  0
 22 42  1  1  0  0  0
 23 24  2  0  0  0  0
 23 28  1  0  0  0  0
 24 25  1  0  0  0  0
 25 26  2  0  0  0  0
 26 27  1  0  0  0  0
 26 32  1  0  0  0  0
 27 28  2  0  0  0  0
 27 30  1  0  0  0  0
 28 29  1  0  0  0  0
 30 31  2  0  0  0  0
 31 32  1  0  0  0  0
 33 34  2  0  0  0  0
 33 38  1  0  0  0  0
 34 35  1  0  0  0  0
 35 36  2  0  0  0  0
 36 37  1  0  0  0  0
 36 42  1  0  0  0  0
 37 38  2  0  0  0  0
 37 40  1  0  0  0  0
 38 39  1  0  0  0  0
 40 41  2  0  0  0  0
 41 42  1  0  0  0  0
M  CHG  2   3  -1   4  -1
M  END
>  <CHROM.1>
140.60905473,-126.05085983,-21.32361206,-35.98389691,-24.12583633,-2.68211803
1.22621292,0.68262863

>  <Name>
ligand

>  <RI>
0

>  <Rbt.Current_Directory>
/home/itssahil/PROJECTS/Mol_Feturizer/New_Systems/rnas/4QLN

>  <Rbt.Executable>
rbdock ($Id: //depot/dev/client3/rdock/2013.1/src/exe/rbdock.cxx#4 $)

>  <Rbt.Library>
libRbt.so (2013.1, Build901 2013/11/27)

>  <Rbt.Parameter_File>
/export/apps/rDock/src/rDock_2013.1_src/data/scripts/dock_solv.prm

>  <Rbt.Receptor>
prm/blind_docking_60.prm

>  <SCORE>
162.89

>  <SCORE.INTER>
155.691

>  <SCORE.INTER.CONST>
1

>  <SCORE.INTER.POLAR>
0

>  <SCORE.INTER.ROT>
2

>  <SCORE.INTER.SOLV>
37.3712

>  <SCORE.INTER.VDW>
86.4037

>  <SCORE.INTER.norm>
3.70693

>  <SCORE.INTRA>
1.8451

>  <SCORE.INTRA.DIHEDRAL>
0.000153711

>  <SCORE.INTRA.DIHEDRAL.0>
2.39985

>  <SCORE.INTRA.POLAR>
0

>  <SCORE.INTRA.POLAR.0>
0

>  <SCORE.INTRA.REPUL>
0

>  <SCORE.INTRA.REPUL.0>
0

>  <SCORE.INTRA.SOLV>
-0.0730516

>  <SCORE.INTRA.SOLV.lig_0>
-110.958

>  <SCORE.INTRA.VDW>
1.88154

>  <SCORE.INTRA.VDW.0>
-2.34644

>  <SCORE.INTRA.norm>
0.0439308

>  <SCORE.RESTR>
5.35336

>  <SCORE.RESTR.CAVITY>
5.35336

>  <SCORE.RESTR.norm>
0.127461

>  <SCORE.SYSTEM>
0

>  <SCORE.SYSTEM.CONST>
0

>  <SCORE.SYSTEM.DIHEDRAL>
0

>  <SCORE.SYSTEM.SOLV>
0

>  <SCORE.SYSTEM.norm>
0

>  <SCORE.heavy>
42

>  <SCORE.norm>
3.87832

>  <RMSD>
29.119

$$$$
ligand
 OpenBabel11021811513D
libRbt.so/2013.1/901 2013/11/27
 42 48  0  0  0  0  0  0  0  0999 V2000
  -23.8385  -36.0491  -25.7273 P   0  0  2  0  0  0  0  0  0  0  0  0
  -19.1579  -37.6107  -24.6468 P   0  0  1  0  0  0  0  0  0  0  0  0
  -24.2501  -35.9356  -27.1767 O   0  5  0  0  0  0  0  0  0  0  0  0
  -19.6049  -37.0571  -23.3148 O   0  5  0  0  0  0  0  0  0  0  0  0
  -24.6707  -35.3886  -24.6544 O   0  0  0  0  0  0  0  0  0  0  0  0
  -17.9044  -38.4478  -24.7330 O   0  0  0  0  0  0  0  0  0  0  0  0
  -21.8512  -34.4606  -26.4233 C   0  0  0  0  0  0  0  0  0  0  0  0
  -20.9043  -39.5853  -24.5804 C   0  0  0  0  0  0  0  0  0  0  0  0
  -22.3254  -35.5174  -25.5906 O   0  0  0  0  0  0  0  0  0  0  0  0
  -20.3745  -38.4582  -25.2745 O   0  0  0  0  0  0  0  0  0  0  0  0
  -20.3565  -34.6357  -26.6641 C   0  0  1  0  0  0  0  0  0  0  0  0
  -22.4218  -39.4724  -24.5070 C   0  0  1  0  0  0  0  0  0  0  0  0
  -19.7750  -33.3784  -27.0197 O   0  0  0  0  0  0  0  0  0  0  0  0
  -22.9104  -40.2447  -23.4076 O   0  0  0  0  0  0  0  0  0  0  0  0
  -19.6524  -35.1371  -25.4146 C   0  0  1  0  0  0  0  0  0  0  0  0
  -22.8584  -38.0318  -24.2931 C   0  0  1  0  0  0  0  0  0  0  0  0
  -19.0150  -36.3831  -25.6795 O   0  0  0  0  0  0  0  0  0  0  0  0
  -23.6963  -37.6111  -25.3654 O   0  0  0  0  0  0  0  0  0  0  0  0
  -18.6157  -34.0887  -25.0560 C   0  0  0  0  0  0  0  0  0  0  0  0
  -23.6312  -38.0064  -22.9885 C   0  0  0  0  0  0  0  0  0  0  0  0
  -18.7421  -32.9963  -26.1074 C   0  0  2  0  0  0  0  0  0  0  0  0
  -23.6286  -39.4378  -22.4710 C   0  0  2  0  0  0  0  0  0  0  0  0
  -21.8793  -30.5737  -22.6625 N   0  0  0  0  0  0  0  0  0  0  0  0
  -21.8339  -31.8661  -23.0351 C   0  0  0  0  0  0  0  0  0  0  0  0
  -20.9663  -32.3528  -23.9414 N   0  0  0  0  0  0  0  0  0  0  0  0
  -20.0640  -31.5426  -24.5450 C   0  0  0  0  0  0  0  0  0  0  0  0
  -20.0504  -30.1148  -24.1902 C   0  0  0  0  0  0  0  0  0  0  0  0
  -21.0370  -29.6542  -23.1845 C   0  0  0  0  0  0  0  0  0  0  0  0
  -21.0920  -28.3560  -22.8007 N   0  0  0  0  0  0  0  0  0  0  0  0
  -19.0742  -29.5465  -24.9226 N   0  0  0  0  0  0  0  0  0  0  0  0
  -18.5118  -30.5229  -25.6799 C   0  0  0  0  0  0  0  0  0  0  0  0
  -19.1015  -31.7128  -25.4548 N   0  0  0  0  0  0  0  0  0  0  0  0
  -22.5322  -42.3446  -18.2377 N   0  0  0  0  0  0  0  0  0  0  0  0
  -23.2299  -42.6548  -19.3461 C   0  0  0  0  0  0  0  0  0  0  0  0
  -23.4340  -41.7998  -20.3644 N   0  0  0  0  0  0  0  0  0  0  0  0
  -22.9317  -40.5420  -20.3262 C   0  0  0  0  0  0  0  0  0  0  0  0
  -22.1565  -40.1274  -19.1466 C   0  0  0  0  0  0  0  0  0  0  0  0
  -21.9753  -41.1263  -18.0670 C   0  0  0  0  0  0  0  0  0  0  0  0
  -21.2741  -40.8262  -16.9461 N   0  0  0  0  0  0  0  0  0  0  0  0
  -21.7801  -38.8529  -19.3634 N   0  0  0  0  0  0  0  0  0  0  0  0
  -22.2713  -38.4841  -20.5744 C   0  0  0  0  0  0  0  0  0  0  0  0
  -22.9573  -39.4899  -21.1478 N   0  0  0  0  0  0  0  0  0  0  0  0
  1  3  1  6  0  0  0
  1  5  2  0  0  0  0
  1  9  1  0  0  0  0
  1 18  1  0  0  0  0
  2  4  1  1  0  0  0
  2  6  2  0  0  0  0
  2 10  1  0  0  0  0
  2 17  1  0  0  0  0
  7  9  1  0  0  0  0
  8 10  1  0  0  0  0
 11  7  1  1  0  0  0
 11 13  1  0  0  0  0
 11 15  1  0  0  0  0
 12  8  1  1  0  0  0
 12 14  1  0  0  0  0
 12 16  1  0  0  0  0
 13 21  1  0  0  0  0
 14 22  1  0  0  0  0
 15 17  1  6  0  0  0
 15 19  1  0  0  0  0
 16 18  1  6  0  0  0
 16 20  1  0  0  0  0
 19 21  1  0  0  0  0
 20 22  1  0  0  0  0
 21 32  1  1  0  0  0
 22 42  1  1  0  0  0
 23 24  2  0  0  0  0
 23 28  1  0  0  0  0
 24 25  1  0  0  0  0
 25 26  2  0  0  0  0
 26 27  1  0  0  0  0
 26 32  1  0  0  0  0
 27 28  2  0  0  0  0
 27 30  1  0  0  0  0
 28 29  1  0  0  0  0
 30 31  2  0  0  0  0
 31 32  1  0  0  0  0
 33 34  2  0  0  0  0
 33 38  1  0  0  0  0
 34 35  1  0  0  0  0
 35 36  2  0  0  0  0
 36 37  1  0  0  0  0
 36 42  1  0  0  0  0
 37 38  2  0  0  0  0
 37 40  1  0  0  0  0
 38 39  1  0  0  0  0
 40 41  2  0  0  0  0
 41 42  1  0  0  0  0
M  CHG  2   3  -1   4  -1
M  END
>  <CHROM.1>
71.00303741,-71.03353461,-21.39757616,-36.26939422,-23.64517851,0.29641739
-1.34109758,-1.73770010

>  <Name>
ligand

>  <RI>
0

>  <Rbt.Current_Directory>
/home/itssahil/PROJECTS/Mol_Feturizer/New_Systems/rnas/4QLN

>  <Rbt.Executable>
rbdock ($Id: //depot/dev/client3/rdock/2013.1/src/exe/rbdock.cxx#4 $)

>  <Rbt.Library>
libRbt.so (2013.1, Build901 2013/11/27)

>  <Rbt.Parameter_File>
/export/apps/rDock/src/rDock_2013.1_src/data/scripts/dock_solv.prm

>  <Rbt.Receptor>
prm/blind_docking_60.prm

>  <SCORE>
188.718

>  <SCORE.INTER>
182.955

>  <SCORE.INTER.CONST>
1

>  <SCORE.INTER.POLAR>
0

>  <SCORE.INTER.ROT>
2

>  <SCORE.INTER.SOLV>
44.5736

>  <SCORE.INTER.VDW>
102.179

>  <SCORE.INTER.norm>
4.35606

>  <SCORE.INTRA>
1.13117

>  <SCORE.INTRA.DIHEDRAL>
-0.000119444

>  <SCORE.INTRA.DIHEDRAL.0>
2.39985

>  <SCORE.INTRA.POLAR>
0

>  <SCORE.INTRA.POLAR.0>
0

>  <SCORE.INTRA.REPUL>
0

>  <SCORE.INTRA.REPUL.0>
0

>  <SCORE.INTRA.SOLV>
-0.0740302

>  <SCORE.INTRA.SOLV.lig_0>
-110.958

>  <SCORE.INTRA.VDW>
1.16824

>  <SCORE.INTRA.VDW.0>
-2.34644

>  <SCORE.INTRA.norm>
0.0269326

>  <SCORE.RESTR>
4.6324

>  <SCORE.RESTR.CAVITY>
4.6324

>  <SCORE.RESTR.norm>
0.110295

>  <SCORE.SYSTEM>
0

>  <SCORE.SYSTEM.CONST>
0

>  <SCORE.SYSTEM.DIHEDRAL>
0

>  <SCORE.SYSTEM.SOLV>
0

>  <SCORE.SYSTEM.norm>
0

>  <SCORE.heavy>
42

>  <SCORE.norm>
4.49329

>  <RMSD>
29.126

$$$$
ligand
 OpenBabel11021811513D
libRbt.so/2013.1/901 2013/11/27
 42 48  0  0  0  0  0  0  0  0999 V2000
  -18.8222  -37.6043  -25.7552 P   0  0  2  0  0  0  0  0  0  0  0  0
  -23.6084  -35.9937  -25.8678 P   0  0  1  0  0  0  0  0  0  0  0  0
  -18.4278  -38.7717  -26.6296 O   0  5  0  0  0  0  0  0  0  0  0  0
  -23.0879  -35.3024  -24.6302 O   0  5  0  0  0  0  0  0  0  0  0  0
  -17.9129  -37.1626  -24.6336 O   0  0  0  0  0  0  0  0  0  0  0  0
  -24.9361  -35.5837  -26.4583 O   0  0  0  0  0  0  0  0  0  0  0  0
  -20.6643  -39.2445  -24.8206 C   0  0  0  0  0  0  0  0  0  0  0  0
  -22.0535  -34.6021  -27.4800 C   0  0  0  0  0  0  0  0  0  0  0  0
  -20.2763  -37.9083  -25.1353 O   0  0  0  0  0  0  0  0  0  0  0  0
  -22.4878  -35.8791  -27.0183 O   0  0  0  0  0  0  0  0  0  0  0  0
  -22.1728  -39.3869  -24.9839 C   0  0  1  0  0  0  0  0  0  0  0  0
  -20.5310  -34.5475  -27.4732 C   0  0  1  0  0  0  0  0  0  0  0  0
  -22.6404  -40.4894  -24.2019 O   0  0  0  0  0  0  0  0  0  0  0  0
  -20.0974  -33.1872  -27.4011 O   0  0  0  0  0  0  0  0  0  0  0  0
  -22.8984  -38.1392  -24.5094 C   0  0  1  0  0  0  0  0  0  0  0  0
  -19.9578  -35.2821  -26.2717 C   0  0  1  0  0  0  0  0  0  0  0  0
  -23.6542  -37.5773  -25.5780 O   0  0  0  0  0  0  0  0  0  0  0  0
  -19.1035  -36.3361  -26.7057 O   0  0  0  0  0  0  0  0  0  0  0  0
  -23.8259  -38.5804  -23.3924 C   0  0  0  0  0  0  0  0  0  0  0  0
  -19.1628  -34.2599  -25.4825 C   0  0  0  0  0  0  0  0  0  0  0  0
  -23.6166  -40.0797  -23.2404 C   0  0  2  0  0  0  0  0  0  0  0  0
  -19.2902  -32.9489  -26.2453 C   0  0  2  0  0  0  0  0  0  0  0  0
  -23.2856  -38.4460  -18.2605 N   0  0  0  0  0  0  0  0  0  0  0  0
  -23.8547  -37.8598  -19.3300 C   0  0  0  0  0  0  0  0  0  0  0  0
  -23.8635  -38.4006  -20.5623 N   0  0  0  0  0  0  0  0  0  0  0  0
  -23.2827  -39.6012  -20.7988 C   0  0  0  0  0  0  0  0  0  0  0  0
  -22.6389  -40.3058  -19.6790 C   0  0  0  0  0  0  0  0  0  0  0  0
  -22.6699  -39.6460  -18.3521 C   0  0  0  0  0  0  0  0  0  0  0  0
  -22.1013  -40.2263  -17.2679 N   0  0  0  0  0  0  0  0  0  0  0  0
  -22.1487  -41.4553  -20.1796 N   0  0  0  0  0  0  0  0  0  0  0  0
  -22.4510  -41.4853  -21.5029 C   0  0  0  0  0  0  0  0  0  0  0  0
  -23.1271  -40.3804  -21.8721 N   0  0  0  0  0  0  0  0  0  0  0  0
  -18.7697  -28.3517  -23.7620 N   0  0  0  0  0  0  0  0  0  0  0  0
  -17.8904  -29.0328  -24.5200 C   0  0  0  0  0  0  0  0  0  0  0  0
  -18.1632  -30.2146  -25.1017 N   0  0  0  0  0  0  0  0  0  0  0  0
  -19.3760  -30.7995  -24.9501 C   0  0  0  0  0  0  0  0  0  0  0  0
  -20.3921  -30.1158  -24.1351 C   0  0  0  0  0  0  0  0  0  0  0  0
  -20.0154  -28.8175  -23.5279 C   0  0  0  0  0  0  0  0  0  0  0  0
  -20.8923  -28.1217  -22.7631 N   0  0  0  0  0  0  0  0  0  0  0  0
  -21.4867  -30.8998  -24.1495 N   0  0  0  0  0  0  0  0  0  0  0  0
  -21.1968  -31.9893  -24.9064 C   0  0  0  0  0  0  0  0  0  0  0  0
  -19.9397  -31.9297  -25.3831 N   0  0  0  0  0  0  0  0  0  0  0  0
  1  3  1  6  0  0  0
  1  5  2  0  0  0  0
  1  9  1  0  0  0  0
  1 18  1  0  0  0  0
  2  4  1  1  0  0  0
  2  6  2  0  0  0  0
  2 10  1  0  0  0  0
  2 17  1  0  0  0  0
  7  9  1  0  0  0  0
  8 10  1  0  0  0  0
 11  7  1  1  0  0  0
 11 13  1  0  0  0  0
 11 15  1  0  0  0  0
 12  8  1  1  0  0  0
 12 14  1  0  0  0  0
 12 16  1  0  0  0  0
 13 21  1  0  0  0  0
 14 22  1  0  0  0  0
 15 17  1  6  0  0  0
 15 19  1  0  0  0  0
 16 18  1  6  0  0  0
 16 20  1  0  0  0  0
 19 21  1  0  0  0  0
 20 22  1  0  0  0  0
 21 32  1  1  0  0  0
 22 42  1  1  0  0  0
 23 24  2  0  0  0  0
 23 28  1  0  0  0  0
 24 25  1  0  0  0  0
 25 26  2  0  0  0  0
 26 27  1  0  0  0  0
 26 32  1  0  0  0  0
 27 28  2  0  0  0  0
 27 30  1  0  0  0  0
 28 29  1  0  0  0  0
 30 31  2  0  0  0  0
 31 32  1  0  0  0  0
 33 34  2  0  0  0  0
 33 38  1  0  0  0  0
 34 35  1  0  0  0  0
 35 36  2  0  0  0  0
 36 37  1  0  0  0  0
 36 42  1  0  0  0  0
 37 38  2  0  0  0  0
 37 40  1  0  0  0  0
 38 39  1  0  0  0  0
 40 41  2  0  0  0  0
 41 42  1  0  0  0  0
M  CHG  2   3  -1   4  -1
M  END
>  <CHROM.1>
140.57986968,-125.59375167,-21.33998699,-35.98221242,-24.13461849,-2.67037800
1.22976860,0.66823336

>  <Name>
ligand

>  <RI>
0

>  <Rbt.Current_Directory>
/home/itssahil/PROJECTS/Mol_Feturizer/New_Systems/rnas/4QLN

>  <Rbt.Executable>
rbdock ($Id: //depot/dev/client3/rdock/2013.1/src/exe/rbdock.cxx#4 $)

>  <Rbt.Library>
libRbt.so (2013.1, Build901 2013/11/27)

>  <Rbt.Parameter_File>
/export/apps/rDock/src/rDock_2013.1_src/data/scripts/dock_solv.prm

>  <Rbt.Receptor>
prm/blind_docking_60.prm

>  <SCORE>
163.161

>  <SCORE.INTER>
156.009

>  <SCORE.INTER.CONST>
1

>  <SCORE.INTER.POLAR>
0

>  <SCORE.INTER.ROT>
2

>  <SCORE.INTER.SOLV>
37.2511

>  <SCORE.INTER.VDW>
86.6559

>  <SCORE.INTER.norm>
3.71451

>  <SCORE.INTRA>
1.84999

>  <SCORE.INTRA.DIHEDRAL>
0.000136724

>  <SCORE.INTRA.DIHEDRAL.0>
2.39985

>  <SCORE.INTRA.POLAR>
0

>  <SCORE.INTRA.POLAR.0>
0

>  <SCORE.INTRA.REPUL>
0

>  <SCORE.INTRA.REPUL.0>
0

>  <SCORE.INTRA.SOLV>
-0.0723167

>  <SCORE.INTRA.SOLV.lig_0>
-110.958

>  <SCORE.INTRA.VDW>
1.88608

>  <SCORE.INTRA.VDW.0>
-2.34644

>  <SCORE.INTRA.norm>
0.0440473

>  <SCORE.RESTR>
5.30106

>  <SCORE.RESTR.CAVITY>
5.30106

>  <SCORE.RESTR.norm>
0.126216

>  <SCORE.SYSTEM>
0

>  <SCORE.SYSTEM.CONST>
0

>  <SCORE.SYSTEM.DIHEDRAL>
0

>  <SCORE.SYSTEM.SOLV>
0

>  <SCORE.SYSTEM.norm>
0

>  <SCORE.heavy>
42

>  <SCORE.norm>
3.88477

>  <RMSD>
29.139

$$$$
ligand
 OpenBabel11021811513D
libRbt.so/2013.1/901 2013/11/27
 42 48  0  0  0  0  0  0  0  0999 V2000
  -19.3525  -21.0013   -4.9877 P   0  0  2  0  0  0  0  0  0  0  0  0
  -18.1460  -25.8879   -5.4110 P   0  0  1  0  0  0  0  0  0  0  0  0
  -19.1029  -20.0867   -6.1643 O   0  5  0  0  0  0  0  0  0  0  0  0
  -18.3470  -25.7561   -3.9201 O   0  5  0  0  0  0  0  0  0  0  0  0
  -19.6224  -20.4152   -3.6225 O   0  0  0  0  0  0  0  0  0  0  0  0
  -18.0410  -27.2566   -6.0395 O   0  0  0  0  0  0  0  0  0  0  0  0
  -16.7921  -21.5911   -5.2183 C   0  0  0  0  0  0  0  0  0  0  0  0
  -20.6900  -25.4428   -5.9435 C   0  0  0  0  0  0  0  0  0  0  0  0
  -18.1077  -22.0142   -4.8645 O   0  0  0  0  0  0  0  0  0  0  0  0
  -19.3266  -25.0819   -6.1520 O   0  0  0  0  0  0  0  0  0  0  0  0
  -15.9965  -22.7844   -5.7339 C   0  0  1  0  0  0  0  0  0  0  0  0
  -21.5003  -24.1992   -5.6001 C   0  0  1  0  0  0  0  0  0  0  0  0
  -14.5966  -22.5275   -5.5932 O   0  0  0  0  0  0  0  0  0  0  0  0
  -22.6794  -24.5743   -4.8839 O   0  0  0  0  0  0  0  0  0  0  0  0
  -16.3198  -24.0433   -4.9471 C   0  0  1  0  0  0  0  0  0  0  0  0
  -20.7052  -23.2479   -4.7201 C   0  0  1  0  0  0  0  0  0  0  0  0
  -16.8354  -25.0453   -5.8185 O   0  0  0  0  0  0  0  0  0  0  0  0
  -20.5700  -21.9846   -5.3642 O   0  0  0  0  0  0  0  0  0  0  0  0
  -15.0146  -24.5117   -4.3310 C   0  0  0  0  0  0  0  0  0  0  0  0
  -21.4925  -23.0939   -3.4332 C   0  0  0  0  0  0  0  0  0  0  0  0
  -13.9583  -23.5099   -4.7730 C   0  0  2  0  0  0  0  0  0  0  0  0
  -22.7333  -23.9607   -3.5937 C   0  0  2  0  0  0  0  0  0  0  0  0
  -14.2480  -22.7784    0.4192 N   0  0  0  0  0  0  0  0  0  0  0  0
  -15.0327  -23.5023   -0.4002 C   0  0  0  0  0  0  0  0  0  0  0  0
  -14.8377  -23.6003   -1.7281 N   0  0  0  0  0  0  0  0  0  0  0  0
  -13.8088  -22.9560   -2.3291 C   0  0  0  0  0  0  0  0  0  0  0  0
  -12.9051  -22.1435   -1.4998 C   0  0  0  0  0  0  0  0  0  0  0  0
  -13.1852  -22.0841   -0.0455 C   0  0  0  0  0  0  0  0  0  0  0  0
  -12.4022  -21.3596    0.7897 N   0  0  0  0  0  0  0  0  0  0  0  0
  -11.9854  -21.6212   -2.3327 N   0  0  0  0  0  0  0  0  0  0  0  0
  -12.2737  -22.0595   -3.5848 C   0  0  0  0  0  0  0  0  0  0  0  0
  -13.3604  -22.8553   -3.5829 N   0  0  0  0  0  0  0  0  0  0  0  0
  -19.8912  -26.8511   -0.2559 N   0  0  0  0  0  0  0  0  0  0  0  0
  -19.5025  -25.9138   -1.1401 C   0  0  0  0  0  0  0  0  0  0  0  0
  -20.3507  -25.2448   -1.9416 N   0  0  0  0  0  0  0  0  0  0  0  0
  -21.6832  -25.4872   -1.8989 C   0  0  0  0  0  0  0  0  0  0  0  0
  -22.1865  -26.4988   -0.9568 C   0  0  0  0  0  0  0  0  0  0  0  0
  -21.1894  -27.1925   -0.1077 C   0  0  0  0  0  0  0  0  0  0  0  0
  -21.5685  -28.1377    0.7871 N   0  0  0  0  0  0  0  0  0  0  0  0
  -23.5228  -26.5401   -1.1159 N   0  0  0  0  0  0  0  0  0  0  0  0
  -23.8464  -25.6354   -2.0754 C   0  0  0  0  0  0  0  0  0  0  0  0
  -22.7509  -25.0084   -2.5419 N   0  0  0  0  0  0  0  0  0  0  0  0
  1  3  1  6  0  0  0
  1  5  2  0  0  0  0
  1  9  1  0  0  0  0
  1 18  1  0  0  0  0
  2  4  1  1  0  0  0
  2  6  2  0  0  0  0
  2 10  1  0  0  0  0
  2 17  1  0  0  0  0
  7  9  1  0  0  0  0
  8 10  1  0  0  0  0
 11  7  1  1  0  0  0
 11 13  1  0  0  0  0
 11 15  1  0  0  0  0
 12  8  1  1  0  0  0
 12 14  1  0  0  0  0
 12 16  1  0  0  0  0
 13 21  1  0  0  0  0
 14 22  1  0  0  0  0
 15 17  1  6  0  0  0
 15 19  1  0  0  0  0
 16 18  1  6  0  0  0
 16 20  1  0  0  0  0
 19 21  1  0  0  0  0
 20 22  1  0  0  0  0
 21 32  1  1  0  0  0
 22 42  1  1  0  0  0
 23 24  2  0  0  0  0
 23 28  1  0  0  0  0
 24 25  1  0  0  0  0
 25 26  2  0  0  0  0
 26 27  1  0  0  0  0
 26 32  1  0  0  0  0
 27 28  2  0  0  0  0
 27 30  1  0  0  0  0
 28 29  1  0  0  0  0
 30 31  2  0  0  0  0
 31 32  1  0  0  0  0
 33 34  2  0  0  0  0
 33 38  1  0  0  0  0
 34 35  1  0  0  0  0
 35 36  2  0  0  0  0
 36 37  1  0  0  0  0
 36 42  1  0  0  0  0
 37 38  2  0  0  0  0
 37 40  1  0  0  0  0
 38 39  1  0  0  0  0
 40 41  2  0  0  0  0
 41 42  1  0  0  0  0
M  CHG  2   3  -1   4  -1
M  END
>  <CHROM.1>
108.58621695,94.01756516,-18.17513150,-23.88762456,-3.46945778,3.00426519
0.32826312,2.05772740

>  <Name>
ligand

>  <RI>
0

>  <Rbt.Current_Directory>
/home/itssahil/PROJECTS/Mol_Feturizer/New_Systems/rnas/4QLN

>  <Rbt.Executable>
rbdock ($Id: //depot/dev/client3/rdock/2013.1/src/exe/rbdock.cxx#4 $)

>  <Rbt.Library>
libRbt.so (2013.1, Build901 2013/11/27)

>  <Rbt.Parameter_File>
/export/apps/rDock/src/rDock_2013.1_src/data/scripts/dock_solv.prm

>  <Rbt.Receptor>
prm/blind_docking_80.prm

>  <SCORE>
38.7462

>  <SCORE.INTER>
20.7976

>  <SCORE.INTER.CONST>
1

>  <SCORE.INTER.POLAR>
0

>  <SCORE.INTER.ROT>
2

>  <SCORE.INTER.SOLV>
33.3228

>  <SCORE.INTER.VDW>
-2.1759

>  <SCORE.INTER.norm>
0.49518

>  <SCORE.INTRA>
2.7126

>  <SCORE.INTRA.DIHEDRAL>
0.00103268

>  <SCORE.INTRA.DIHEDRAL.0>
2.39985

>  <SCORE.INTRA.POLAR>
0

>  <SCORE.INTRA.POLAR.0>
0

>  <SCORE.INTRA.REPUL>
0

>  <SCORE.INTRA.REPUL.0>
0

>  <SCORE.INTRA.SOLV>
0.540479

>  <SCORE.INTRA.SOLV.lig_0>
-110.958

>  <SCORE.INTRA.VDW>
2.44185

>  <SCORE.INTRA.VDW.0>
-2.34644

>  <SCORE.INTRA.norm>
0.0645858

>  <SCORE.RESTR>
15.2361

>  <SCORE.RESTR.CAVITY>
15.2361

>  <SCORE.RESTR.norm>
0.362764

>  <SCORE.SYSTEM>
0

>  <SCORE.SYSTEM.CONST>
0

>  <SCORE.SYSTEM.DIHEDRAL>
0

>  <SCORE.SYSTEM.SOLV>
0

>  <SCORE.SYSTEM.norm>
0

>  <SCORE.heavy>
42

>  <SCORE.norm>
0.92253

>  <RMSD>
29.176

$$$$
ligand
 OpenBabel11021811513D
libRbt.so/2013.1/901 2013/11/27
 42 48  0  0  0  0  0  0  0  0999 V2000
  -19.3440  -21.0049   -5.0064 P   0  0  2  0  0  0  0  0  0  0  0  0
  -18.1538  -25.8984   -5.3959 P   0  0  1  0  0  0  0  0  0  0  0  0
  -19.0863  -20.0983   -6.1873 O   0  5  0  0  0  0  0  0  0  0  0  0
  -18.3601  -25.7570   -3.9067 O   0  5  0  0  0  0  0  0  0  0  0  0
  -19.6170  -20.4098   -3.6458 O   0  0  0  0  0  0  0  0  0  0  0  0
  -18.0513  -27.2712   -6.0159 O   0  0  0  0  0  0  0  0  0  0  0  0
  -16.7848  -21.6055   -5.2234 C   0  0  0  0  0  0  0  0  0  0  0  0
  -20.6940  -25.4471   -5.9411 C   0  0  0  0  0  0  0  0  0  0  0  0
  -18.1034  -22.0217   -4.8722 O   0  0  0  0  0  0  0  0  0  0  0  0
  -19.3285  -25.0924   -6.1464 O   0  0  0  0  0  0  0  0  0  0  0  0
  -15.9916  -22.8047   -5.7287 C   0  0  1  0  0  0  0  0  0  0  0  0
  -21.5011  -24.1986   -5.6083 C   0  0  1  0  0  0  0  0  0  0  0  0
  -14.5914  -22.5521   -5.5840 O   0  0  0  0  0  0  0  0  0  0  0  0
  -22.6844  -24.5651   -4.8945 O   0  0  0  0  0  0  0  0  0  0  0  0
  -16.3227  -24.0578   -4.9358 C   0  0  1  0  0  0  0  0  0  0  0  0
  -20.7060  -23.2450   -4.7308 C   0  0  1  0  0  0  0  0  0  0  0  0
  -16.8385  -25.0629   -5.8032 O   0  0  0  0  0  0  0  0  0  0  0  0
  -20.5636  -21.9860   -5.3818 O   0  0  0  0  0  0  0  0  0  0  0  0
  -15.0217  -24.5272   -4.3117 C   0  0  0  0  0  0  0  0  0  0  0  0
  -21.4977  -23.0804   -3.4479 C   0  0  0  0  0  0  0  0  0  0  0  0
  -13.9599  -23.5320   -4.7555 C   0  0  2  0  0  0  0  0  0  0  0  0
  -22.7410  -23.9437   -3.6082 C   0  0  2  0  0  0  0  0  0  0  0  0
  -14.2382  -22.8080    0.4384 N   0  0  0  0  0  0  0  0  0  0  0  0
  -15.0185  -23.5390   -0.3789 C   0  0  0  0  0  0  0  0  0  0  0  0
  -14.8274  -23.6338   -1.7076 N   0  0  0  0  0  0  0  0  0  0  0  0
  -13.8072  -22.9787   -2.3117 C   0  0  0  0  0  0  0  0  0  0  0  0
  -12.9085  -22.1580   -1.4849 C   0  0  0  0  0  0  0  0  0  0  0  0
  -13.1840  -22.1028   -0.0295 C   0  0  0  0  0  0  0  0  0  0  0  0
  -12.4052  -21.3712    0.8035 N   0  0  0  0  0  0  0  0  0  0  0  0
  -11.9971  -21.6258   -2.3205 N   0  0  0  0  0  0  0  0  0  0  0  0
  -12.2855  -22.0659   -3.5721 C   0  0  0  0  0  0  0  0  0  0  0  0
  -13.3643  -22.8725   -3.5670 N   0  0  0  0  0  0  0  0  0  0  0  0
  -19.9263  -26.8021   -0.2201 N   0  0  0  0  0  0  0  0  0  0  0  0
  -19.5311  -25.8686   -1.1055 C   0  0  0  0  0  0  0  0  0  0  0  0
  -20.3727  -25.2079   -1.9208 N   0  0  0  0  0  0  0  0  0  0  0  0
  -21.7045  -25.4555   -1.8921 C   0  0  0  0  0  0  0  0  0  0  0  0
  -22.2147  -26.4634   -0.9497 C   0  0  0  0  0  0  0  0  0  0  0  0
  -21.2247  -27.1478   -0.0849 C   0  0  0  0  0  0  0  0  0  0  0  0
  -21.6104  -28.0892    0.8112 N   0  0  0  0  0  0  0  0  0  0  0  0
  -23.5489  -26.5112   -1.1240 N   0  0  0  0  0  0  0  0  0  0  0  0
  -23.8650  -25.6136   -2.0927 C   0  0  0  0  0  0  0  0  0  0  0  0
  -22.7666  -24.9850   -2.5503 N   0  0  0  0  0  0  0  0  0  0  0  0
  1  3  1  6  0  0  0
  1  5  2  0  0  0  0
  1  9  1  0  0  0  0
  1 18  1  0  0  0  0
  2  4  1  1  0  0  0
  2  6  2  0  0  0  0
  2 10  1  0  0  0  0
  2 17  1  0  0  0  0
  7  9  1  0  0  0  0
  8 10  1  0  0  0  0
 11  7  1  1  0  0  0
 11 13  1  0  0  0  0
 11 15  1  0  0  0  0
 12  8  1  1  0  0  0
 12 14  1  0  0  0  0
 12 16  1  0  0  0  0
 13 21  1  0  0  0  0
 14 22  1  0  0  0  0
 15 17  1  6  0  0  0
 15 19  1  0  0  0  0
 16 18  1  6  0  0  0
 16 20  1  0  0  0  0
 19 21  1  0  0  0  0
 20 22  1  0  0  0  0
 21 32  1  1  0  0  0
 22 42  1  1  0  0  0
 23 24  2  0  0  0  0
 23 28  1  0  0  0  0
 24 25  1  0  0  0  0
 25 26  2  0  0  0  0
 26 27  1  0  0  0  0
 26 32  1  0  0  0  0
 27 28  2  0  0  0  0
 27 30  1  0  0  0  0
 28 29  1  0  0  0  0
 30 31  2  0  0  0  0
 31 32  1  0  0  0  0
 33 34  2  0  0  0  0
 33 38  1  0  0  0  0
 34 35  1  0  0  0  0
 35 36  2  0  0  0  0
 36 37  1  0  0  0  0
 36 42  1  0  0  0  0
 37 38  2  0  0  0  0
 37 40  1  0  0  0  0
 38 39  1  0  0  0  0
 40 41  2  0  0  0  0
 41 42  1  0  0  0  0
M  CHG  2   3  -1   4  -1
M  END
>  <CHROM.1>
109.56091841,94.64099103,-18.18107759,-23.88789500,-3.46401139,3.01140025
0.32509653,2.04982973

>  <Name>
ligand

>  <RI>
0

>  <Rbt.Current_Directory>
/home/itssahil/PROJECTS/Mol_Feturizer/New_Systems/rnas/4QLN

>  <Rbt.Executable>
rbdock ($Id: //depot/dev/client3/rdock/2013.1/src/exe/rbdock.cxx#4 $)

>  <Rbt.Library>
libRbt.so (2013.1, Build901 2013/11/27)

>  <Rbt.Parameter_File>
/export/apps/rDock/src/rDock_2013.1_src/data/scripts/dock_solv.prm

>  <Rbt.Receptor>
prm/blind_docking_80.prm

>  <SCORE>
38.481

>  <SCORE.INTER>
20.4027

>  <SCORE.INTER.CONST>
1

>  <SCORE.INTER.POLAR>
0

>  <SCORE.INTER.ROT>
2

>  <SCORE.INTER.SOLV>
33.275

>  <SCORE.INTER.VDW>
-2.42324

>  <SCORE.INTER.norm>
0.485777

>  <SCORE.INTRA>
2.76345

>  <SCORE.INTRA.DIHEDRAL>
0.00101595

>  <SCORE.INTRA.DIHEDRAL.0>
2.39985

>  <SCORE.INTRA.POLAR>
0

>  <SCORE.INTRA.POLAR.0>
0

>  <SCORE.INTRA.REPUL>
0

>  <SCORE.INTRA.REPUL.0>
0

>  <SCORE.INTRA.SOLV>
0.521669

>  <SCORE.INTRA.SOLV.lig_0>
-110.958

>  <SCORE.INTRA.VDW>
2.50211

>  <SCORE.INTRA.VDW.0>
-2.34644

>  <SCORE.INTRA.norm>
0.0657965

>  <SCORE.RESTR>
15.3149

>  <SCORE.RESTR.CAVITY>
15.3149

>  <SCORE.RESTR.norm>
0.364641

>  <SCORE.SYSTEM>
0

>  <SCORE.SYSTEM.CONST>
0

>  <SCORE.SYSTEM.DIHEDRAL>
0

>  <SCORE.SYSTEM.SOLV>
0

>  <SCORE.SYSTEM.norm>
0

>  <SCORE.heavy>
42

>  <SCORE.norm>
0.916215

>  <RMSD>
29.184

$$$$
ligand
 OpenBabel11021811513D
libRbt.so/2013.1/901 2013/11/27
 42 48  0  0  0  0  0  0  0  0999 V2000
  -23.8203  -35.9450  -26.0584 P   0  0  2  0  0  0  0  0  0  0  0  0
  -19.1854  -37.7920  -25.2706 P   0  0  1  0  0  0  0  0  0  0  0  0
  -24.2226  -35.5676  -27.4650 O   0  5  0  0  0  0  0  0  0  0  0  0
  -19.6241  -37.4703  -23.8619 O   0  5  0  0  0  0  0  0  0  0  0  0
  -24.6402  -35.4626  -24.8857 O   0  0  0  0  0  0  0  0  0  0  0  0
  -17.9531  -38.6328  -25.5031 O   0  0  0  0  0  0  0  0  0  0  0  0
  -21.7905  -34.3103  -26.4641 C   0  0  0  0  0  0  0  0  0  0  0  0
  -20.9815  -39.7019  -25.5526 C   0  0  0  0  0  0  0  0  0  0  0  0
  -22.2949  -35.4847  -25.8304 O   0  0  0  0  0  0  0  0  0  0  0  0
  -20.4204  -38.4843  -26.0375 O   0  0  0  0  0  0  0  0  0  0  0  0
  -20.2997  -34.4786  -26.7322 C   0  0  1  0  0  0  0  0  0  0  0  0
  -22.4960  -39.5649  -25.4602 C   0  0  1  0  0  0  0  0  0  0  0  0
  -19.6851  -33.1936  -26.8610 O   0  0  0  0  0  0  0  0  0  0  0  0
  -23.0087  -40.5059  -24.5139 O   0  0  0  0  0  0  0  0  0  0  0  0
  -19.6139  -35.2100  -25.5907 C   0  0  1  0  0  0  0  0  0  0  0  0
  -22.8969  -38.1737  -24.9958 C   0  0  1  0  0  0  0  0  0  0  0  0
  -19.0071  -36.4058  -26.0710 O   0  0  0  0  0  0  0  0  0  0  0  0
  -23.7193  -37.5494  -25.9772 O   0  0  0  0  0  0  0  0  0  0  0  0
  -18.5526  -34.2680  -25.0532 C   0  0  0  0  0  0  0  0  0  0  0  0
  -23.6745  -38.3586  -23.7071 C   0  0  0  0  0  0  0  0  0  0  0  0
  -18.6468  -33.0047  -25.8959 C   0  0  2  0  0  0  0  0  0  0  0  0
  -23.7103  -39.8583  -23.4497 C   0  0  2  0  0  0  0  0  0  0  0  0
  -22.3946  -30.4681  -23.2316 N   0  0  0  0  0  0  0  0  0  0  0  0
  -22.4649  -31.5882  -23.9745 C   0  0  0  0  0  0  0  0  0  0  0  0
  -21.4099  -32.1316  -24.6092 N   0  0  0  0  0  0  0  0  0  0  0  0
  -20.1830  -31.5629  -24.5310 C   0  0  0  0  0  0  0  0  0  0  0  0
  -20.0246  -30.3348  -23.7364 C   0  0  0  0  0  0  0  0  0  0  0  0
  -21.2329  -29.7965  -23.0675 C   0  0  0  0  0  0  0  0  0  0  0  0
  -21.1747  -28.6704  -22.3165 N   0  0  0  0  0  0  0  0  0  0  0  0
  -18.7276  -29.9850  -23.8247 N   0  0  0  0  0  0  0  0  0  0  0  0
  -18.1092  -30.9067  -24.6064 C   0  0  0  0  0  0  0  0  0  0  0  0
  -18.9764  -31.8474  -25.0274 N   0  0  0  0  0  0  0  0  0  0  0  0
  -23.1958  -38.5482  -18.3909 N   0  0  0  0  0  0  0  0  0  0  0  0
  -23.9600  -38.0024  -19.3550 C   0  0  0  0  0  0  0  0  0  0  0  0
  -23.9922  -38.4467  -20.6244 N   0  0  0  0  0  0  0  0  0  0  0  0
  -23.2331  -39.5005  -21.0106 C   0  0  0  0  0  0  0  0  0  0  0  0
  -22.3702  -40.1517  -20.0128 C   0  0  0  0  0  0  0  0  0  0  0  0
  -22.3904  -39.6042  -18.6359 C   0  0  0  0  0  0  0  0  0  0  0  0
  -21.6259  -40.1456  -17.6559 N   0  0  0  0  0  0  0  0  0  0  0  0
  -21.7355  -41.1537  -20.6500 N   0  0  0  0  0  0  0  0  0  0  0  0
  -22.1545  -41.1444  -21.9416 C   0  0  0  0  0  0  0  0  0  0  0  0
  -23.0463  -40.1597  -22.1565 N   0  0  0  0  0  0  0  0  0  0  0  0
  1  3  1  6  0  0  0
  1  5  2  0  0  0  0
  1  9  1  0  0  0  0
  1 18  1  0  0  0  0
  2  4  1  1  0  0  0
  2  6  2  0  0  0  0
  2 10  1  0  0  0  0
  2 17  1  0  0  0  0
  7  9  1  0  0  0  0
  8 10  1  0  0  0  0
 11  7  1  1  0  0  0
 11 13  1  0  0  0  0
 11 15  1  0  0  0  0
 12  8  1  1  0  0  0
 12 14  1  0  0  0  0
 12 16  1  0  0  0  0
 13 21  1  0  0  0  0
 14 22  1  0  0  0  0
 15 17  1  6  0  0  0
 15 19  1  0  0  0  0
 16 18  1  6  0  0  0
 16 20  1  0  0  0  0
 19 21  1  0  0  0  0
 20 22  1  0  0  0  0
 21 32  1  1  0  0  0
 22 42  1  1  0  0  0
 23 24  2  0  0  0  0
 23 28  1  0  0  0  0
 24 25  1  0  0  0  0
 25 26  2  0  0  0  0
 26 27  1  0  0  0  0
 26 32  1  0  0  0  0
 27 28  2  0  0  0  0
 27 30  1  0  0  0  0
 28 29  1  0  0  0  0
 30 31  2  0  0  0  0
 31 32  1  0  0  0  0
 33 34  2  0  0  0  0
 33 38  1  0  0  0  0
 34 35  1  0  0  0  0
 35 36  2  0  0  0  0
 36 37  1  0  0  0  0
 36 42  1  0  0  0  0
 37 38  2  0  0  0  0
 37 40  1  0  0  0  0
 38 39  1  0  0  0  0
 40 41  2  0  0  0  0
 41 42  1  0  0  0  0
M  CHG  2   3  -1   4  -1
M  END
>  <CHROM.1>
41.32770046,163.98139014,-21.48920493,-36.12904867,-24.02744368,-0.62379296
-1.24264188,-2.58019281

>  <Name>
ligand

>  <RI>
0

>  <Rbt.Current_Directory>
/home/itssahil/PROJECTS/Mol_Feturizer/New_Systems/rnas/4QLN

>  <Rbt.Executable>
rbdock ($Id: //depot/dev/client3/rdock/2013.1/src/exe/rbdock.cxx#4 $)

>  <Rbt.Library>
libRbt.so (2013.1, Build901 2013/11/27)

>  <Rbt.Parameter_File>
/export/apps/rDock/src/rDock_2013.1_src/data/scripts/dock_solv.prm

>  <Rbt.Receptor>
prm/blind_docking_60.prm

>  <SCORE>
142.085

>  <SCORE.INTER>
135.901

>  <SCORE.INTER.CONST>
1

>  <SCORE.INTER.POLAR>
0

>  <SCORE.INTER.ROT>
2

>  <SCORE.INTER.SOLV>
42.5889

>  <SCORE.INTER.VDW>
71.4712

>  <SCORE.INTER.norm>
3.23574

>  <SCORE.INTRA>
0.614019

>  <SCORE.INTRA.DIHEDRAL>
-0.000627564

>  <SCORE.INTRA.DIHEDRAL.0>
2.39985

>  <SCORE.INTRA.POLAR>
0

>  <SCORE.INTRA.POLAR.0>
0

>  <SCORE.INTRA.REPUL>
0

>  <SCORE.INTRA.REPUL.0>
0

>  <SCORE.INTRA.SOLV>
-0.0789041

>  <SCORE.INTRA.SOLV.lig_0>
-110.958

>  <SCORE.INTRA.VDW>
0.653784

>  <SCORE.INTRA.VDW.0>
-2.34644

>  <SCORE.INTRA.norm>
0.0146195

>  <SCORE.RESTR>
5.56968

>  <SCORE.RESTR.CAVITY>
5.56968

>  <SCORE.RESTR.norm>
0.132611

>  <SCORE.SYSTEM>
0

>  <SCORE.SYSTEM.CONST>
0

>  <SCORE.SYSTEM.DIHEDRAL>
0

>  <SCORE.SYSTEM.SOLV>
0

>  <SCORE.SYSTEM.norm>
0

>  <SCORE.heavy>
42

>  <SCORE.norm>
3.38297

>  <RMSD>
29.233

$$$$
ligand
 OpenBabel11021811513D
libRbt.so/2013.1/901 2013/11/27
 42 48  0  0  0  0  0  0  0  0999 V2000
  -23.8285  -35.9509  -26.0569 P   0  0  2  0  0  0  0  0  0  0  0  0
  -19.1915  -37.7952  -25.2749 P   0  0  1  0  0  0  0  0  0  0  0  0
  -24.2333  -35.5754  -27.4633 O   0  5  0  0  0  0  0  0  0  0  0  0
  -19.6279  -37.4720  -23.8658 O   0  5  0  0  0  0  0  0  0  0  0  0
  -24.6465  -35.4674  -24.8834 O   0  0  0  0  0  0  0  0  0  0  0  0
  -17.9593  -38.6358  -25.5085 O   0  0  0  0  0  0  0  0  0  0  0  0
  -21.8000  -34.3160  -26.4681 C   0  0  0  0  0  0  0  0  0  0  0  0
  -20.9874  -39.7062  -25.5515 C   0  0  0  0  0  0  0  0  0  0  0  0
  -22.3028  -35.4898  -25.8321 O   0  0  0  0  0  0  0  0  0  0  0  0
  -20.4276  -38.4889  -26.0388 O   0  0  0  0  0  0  0  0  0  0  0  0
  -20.3096  -34.4840  -26.7386 C   0  0  1  0  0  0  0  0  0  0  0  0
  -22.5017  -39.5696  -25.4566 C   0  0  1  0  0  0  0  0  0  0  0  0
  -19.6956  -33.1990  -26.8701 O   0  0  0  0  0  0  0  0  0  0  0  0
  -23.0124  -40.5096  -24.5083 O   0  0  0  0  0  0  0  0  0  0  0  0
  -19.6215  -35.2138  -25.5974 C   0  0  1  0  0  0  0  0  0  0  0  0
  -22.9024  -38.1780  -24.9932 C   0  0  1  0  0  0  0  0  0  0  0  0
  -19.0151  -36.4100  -26.0773 O   0  0  0  0  0  0  0  0  0  0  0  0
  -23.7267  -37.5552  -25.9739 O   0  0  0  0  0  0  0  0  0  0  0  0
  -18.5596  -34.2708  -25.0629 C   0  0  0  0  0  0  0  0  0  0  0  0
  -23.6777  -38.3616  -23.7029 C   0  0  0  0  0  0  0  0  0  0  0  0
  -18.6557  -33.0085  -25.9069 C   0  0  2  0  0  0  0  0  0  0  0  0
  -23.7124  -39.8610  -23.4436 C   0  0  2  0  0  0  0  0  0  0  0  0
  -22.3788  -30.5221  -23.1619 N   0  0  0  0  0  0  0  0  0  0  0  0
  -22.4472  -31.6497  -23.8933 C   0  0  0  0  0  0  0  0  0  0  0  0
  -21.3994  -32.1781  -24.5522 N   0  0  0  0  0  0  0  0  0  0  0  0
  -20.1823  -31.5850  -24.5124 C   0  0  0  0  0  0  0  0  0  0  0  0
  -20.0265  -30.3471  -23.7325 C   0  0  0  0  0  0  0  0  0  0  0  0
  -21.2264  -29.8266  -23.0352 C   0  0  0  0  0  0  0  0  0  0  0  0
  -21.1700  -28.6930  -22.2953 N   0  0  0  0  0  0  0  0  0  0  0  0
  -18.7395  -29.9729  -23.8592 N   0  0  0  0  0  0  0  0  0  0  0  0
  -18.1246  -30.8892  -24.6500 C   0  0  0  0  0  0  0  0  0  0  0  0
  -18.9843  -31.8503  -25.0393 N   0  0  0  0  0  0  0  0  0  0  0  0
  -23.1871  -38.5425  -18.3882 N   0  0  0  0  0  0  0  0  0  0  0  0
  -23.9529  -37.9979  -19.3517 C   0  0  0  0  0  0  0  0  0  0  0  0
  -23.9879  -38.4443  -20.6202 N   0  0  0  0  0  0  0  0  0  0  0  0
  -23.2302  -39.4992  -21.0061 C   0  0  0  0  0  0  0  0  0  0  0  0
  -22.3658  -40.1494  -20.0089 C   0  0  0  0  0  0  0  0  0  0  0  0
  -22.3830  -39.5994  -18.6329 C   0  0  0  0  0  0  0  0  0  0  0  0
  -21.6168  -40.1396  -17.6535 N   0  0  0  0  0  0  0  0  0  0  0  0
  -21.7329  -41.1528  -20.6456 N   0  0  0  0  0  0  0  0  0  0  0  0
  -22.1545  -41.1455  -21.9364 C   0  0  0  0  0  0  0  0  0  0  0  0
  -23.0461  -40.1606  -22.1512 N   0  0  0  0  0  0  0  0  0  0  0  0
  1  3  1  6  0  0  0
  1  5  2  0  0  0  0
  1  9  1  0  0  0  0
  1 18  1  0  0  0  0
  2  4  1  1  0  0  0
  2  6  2  0  0  0  0
  2 10  1  0  0  0  0
  2 17  1  0  0  0  0
  7  9  1  0  0  0  0
  8 10  1  0  0  0  0
 11  7  1  1  0  0  0
 11 13  1  0  0  0  0
 11 15  1  0  0  0  0
 12  8  1  1  0  0  0
 12 14  1  0  0  0  0
 12 16  1  0  0  0  0
 13 21  1  0  0  0  0
 14 22  1  0  0  0  0
 15 17  1  6  0  0  0
 15 19  1  0  0  0  0
 16 18  1  6  0  0  0
 16 20  1  0  0  0  0
 19 21  1  0  0  0  0
 20 22  1  0  0  0  0
 21 32  1  1  0  0  0
 22 42  1  1  0  0  0
 23 24  2  0  0  0  0
 23 28  1  0  0  0  0
 24 25  1  0  0  0  0
 25 26  2  0  0  0  0
 26 27  1  0  0  0  0
 26 32  1  0  0  0  0
 27 28  2  0  0  0  0
 27 30  1  0  0  0  0
 28 29  1  0  0  0  0
 30 31  2  0  0  0  0
 31 32  1  0  0  0  0
 33 34  2  0  0  0  0
 33 38  1  0  0  0  0
 34 35  1  0  0  0  0
 35 36  2  0  0  0  0
 36 37  1  0  0  0  0
 36 42  1  0  0  0  0
 37 38  2  0  0  0  0
 37 40  1  0  0  0  0
 38 39  1  0  0  0  0
 40 41  2  0  0  0  0
 41 42  1  0  0  0  0
M  CHG  2   3  -1   4  -1
M  END
>  <CHROM.1>
43.20813065,163.91527174,-21.49180968,-36.13573794,-24.02349195,-0.61113693
-1.24409783,-2.56792071

>  <Name>
ligand

>  <RI>
0

>  <Rbt.Current_Directory>
/home/itssahil/PROJECTS/Mol_Feturizer/New_Systems/rnas/4QLN

>  <Rbt.Executable>
rbdock ($Id: //depot/dev/client3/rdock/2013.1/src/exe/rbdock.cxx#4 $)

>  <Rbt.Library>
libRbt.so (2013.1, Build901 2013/11/27)

>  <Rbt.Parameter_File>
/export/apps/rDock/src/rDock_2013.1_src/data/scripts/dock_solv.prm

>  <Rbt.Receptor>
prm/blind_docking_60.prm

>  <SCORE>
142.222

>  <SCORE.INTER>
136.105

>  <SCORE.INTER.CONST>
1

>  <SCORE.INTER.POLAR>
0

>  <SCORE.INTER.ROT>
2

>  <SCORE.INTER.SOLV>
42.7373

>  <SCORE.INTER.VDW>
71.5576

>  <SCORE.INTER.norm>
3.2406

>  <SCORE.INTRA>
0.581303

>  <SCORE.INTRA.DIHEDRAL>
-0.000613879

>  <SCORE.INTRA.DIHEDRAL.0>
2.39985

>  <SCORE.INTRA.POLAR>
0

>  <SCORE.INTRA.POLAR.0>
0

>  <SCORE.INTRA.REPUL>
0

>  <SCORE.INTRA.REPUL.0>
0

>  <SCORE.INTRA.SOLV>
-0.0805686

>  <SCORE.INTRA.SOLV.lig_0>
-110.958

>  <SCORE.INTRA.VDW>
0.621894

>  <SCORE.INTRA.VDW.0>
-2.34644

>  <SCORE.INTRA.norm>
0.0138405

>  <SCORE.RESTR>
5.53518

>  <SCORE.RESTR.CAVITY>
5.53518

>  <SCORE.RESTR.norm>
0.13179

>  <SCORE.SYSTEM>
0

>  <SCORE.SYSTEM.CONST>
0

>  <SCORE.SYSTEM.DIHEDRAL>
0

>  <SCORE.SYSTEM.SOLV>
0

>  <SCORE.SYSTEM.norm>
0

>  <SCORE.heavy>
42

>  <SCORE.norm>
3.38623

>  <RMSD>
29.235

$$$$
ligand
 OpenBabel11021811513D
libRbt.so/2013.1/901 2013/11/27
 42 48  0  0  0  0  0  0  0  0999 V2000
  -23.8327  -35.9545  -26.0553 P   0  0  2  0  0  0  0  0  0  0  0  0
  -19.1936  -37.7926  -25.2711 P   0  0  1  0  0  0  0  0  0  0  0  0
  -24.2375  -35.5799  -27.4620 O   0  5  0  0  0  0  0  0  0  0  0  0
  -19.6308  -37.4694  -23.8623 O   0  5  0  0  0  0  0  0  0  0  0  0
  -24.6517  -35.4716  -24.8823 O   0  0  0  0  0  0  0  0  0  0  0  0
  -17.9603  -38.6317  -25.5040 O   0  0  0  0  0  0  0  0  0  0  0  0
  -21.8061  -34.3171  -26.4664 C   0  0  0  0  0  0  0  0  0  0  0  0
  -20.9869  -39.7060  -25.5477 C   0  0  0  0  0  0  0  0  0  0  0  0
  -22.3076  -35.4913  -25.8302 O   0  0  0  0  0  0  0  0  0  0  0  0
  -20.4285  -38.4881  -26.0352 O   0  0  0  0  0  0  0  0  0  0  0  0
  -20.3154  -34.4833  -26.7364 C   0  0  1  0  0  0  0  0  0  0  0  0
  -22.5015  -39.5712  -25.4533 C   0  0  1  0  0  0  0  0  0  0  0  0
  -19.7030  -33.1976  -26.8680 O   0  0  0  0  0  0  0  0  0  0  0  0
  -23.0114  -40.5116  -24.5048 O   0  0  0  0  0  0  0  0  0  0  0  0
  -19.6268  -35.2118  -25.5947 C   0  0  1  0  0  0  0  0  0  0  0  0
  -22.9041  -38.1800  -24.9906 C   0  0  1  0  0  0  0  0  0  0  0  0
  -19.0187  -36.4074  -26.0739 O   0  0  0  0  0  0  0  0  0  0  0  0
  -23.7289  -37.5586  -25.9718 O   0  0  0  0  0  0  0  0  0  0  0  0
  -18.5663  -34.2673  -25.0602 C   0  0  0  0  0  0  0  0  0  0  0  0
  -23.6796  -38.3641  -23.7005 C   0  0  0  0  0  0  0  0  0  0  0  0
  -18.6637  -33.0054  -25.9046 C   0  0  2  0  0  0  0  0  0  0  0  0
  -23.7125  -39.8635  -23.4407 C   0  0  2  0  0  0  0  0  0  0  0  0
  -22.3984  -30.5051  -23.1883 N   0  0  0  0  0  0  0  0  0  0  0  0
  -22.4661  -31.6308  -23.9227 C   0  0  0  0  0  0  0  0  0  0  0  0
  -21.4152  -32.1633  -24.5732 N   0  0  0  0  0  0  0  0  0  0  0  0
  -20.1953  -31.5767  -24.5210 C   0  0  0  0  0  0  0  0  0  0  0  0
  -20.0401  -30.3414  -23.7371 C   0  0  0  0  0  0  0  0  0  0  0  0
  -21.2436  -29.8160  -23.0496 C   0  0  0  0  0  0  0  0  0  0  0  0
  -21.1879  -28.6843  -22.3067 N   0  0  0  0  0  0  0  0  0  0  0  0
  -18.7501  -29.9738  -23.8511 N   0  0  0  0  0  0  0  0  0  0  0  0
  -18.1328  -30.8917  -24.6383 C   0  0  0  0  0  0  0  0  0  0  0  0
  -18.9940  -31.8473  -25.0375 N   0  0  0  0  0  0  0  0  0  0  0  0
  -23.1907  -38.5426  -18.3854 N   0  0  0  0  0  0  0  0  0  0  0  0
  -23.9568  -37.9993  -19.3495 C   0  0  0  0  0  0  0  0  0  0  0  0
  -23.9908  -38.4462  -20.6178 N   0  0  0  0  0  0  0  0  0  0  0  0
  -23.2316  -39.5003  -21.0031 C   0  0  0  0  0  0  0  0  0  0  0  0
  -22.3667  -40.1489  -20.0054 C   0  0  0  0  0  0  0  0  0  0  0  0
  -22.3850  -39.5986  -18.6295 C   0  0  0  0  0  0  0  0  0  0  0  0
  -21.6185  -40.1374  -17.6497 N   0  0  0  0  0  0  0  0  0  0  0  0
  -21.7323  -41.1518  -20.6415 N   0  0  0  0  0  0  0  0  0  0  0  0
  -22.1535  -41.1454  -21.9325 C   0  0  0  0  0  0  0  0  0  0  0  0
  -23.0462  -40.1618  -22.1479 N   0  0  0  0  0  0  0  0  0  0  0  0
  1  3  1  6  0  0  0
  1  5  2  0  0  0  0
  1  9  1  0  0  0  0
  1 18  1  0  0  0  0
  2  4  1  1  0  0  0
  2  6  2  0  0  0  0
  2 10  1  0  0  0  0
  2 17  1  0  0  0  0
  7  9  1  0  0  0  0
  8 10  1  0  0  0  0
 11  7  1  1  0  0  0
 11 13  1  0  0  0  0
 11 15  1  0  0  0  0
 12  8  1  1  0  0  0
 12 14  1  0  0  0  0
 12 16  1  0  0  0  0
 13 21  1  0  0  0  0
 14 22  1  0  0  0  0
 15 17  1  6  0  0  0
 15 19  1  0  0  0  0
 16 18  1  6  0  0  0
 16 20  1  0  0  0  0
 19 21  1  0  0  0  0
 20 22  1  0  0  0  0
 21 32  1  1  0  0  0
 22 42  1  1  0  0  0
 23 24  2  0  0  0  0
 23 28  1  0  0  0  0
 24 25  1  0  0  0  0
 25 26  2  0  0  0  0
 26 27  1  0  0  0  0
 26 32  1  0  0  0  0
 27 28  2  0  0  0  0
 27 30  1  0  0  0  0
 28 29  1  0  0  0  0
 30 31  2  0  0  0  0
 31 32  1  0  0  0  0
 33 34  2  0  0  0  0
 33 38  1  0  0  0  0
 34 35  1  0  0  0  0
 35 36  2  0  0  0  0
 36 37  1  0  0  0  0
 36 42  1  0  0  0  0
 37 38  2  0  0  0  0
 37 40  1  0  0  0  0
 38 39  1  0  0  0  0
 40 41  2  0  0  0  0
 41 42  1  0  0  0  0
M  CHG  2   3  -1   4  -1
M  END
>  <CHROM.1>
42.56260840,163.91641817,-21.49706672,-36.13415564,-24.02324748,-0.61867560
-1.24462400,-2.57587565

>  <Name>
ligand

>  <RI>
0

>  <Rbt.Current_Directory>
/home/itssahil/PROJECTS/Mol_Feturizer/New_Systems/rnas/4QLN

>  <Rbt.Executable>
rbdock ($Id: //depot/dev/client3/rdock/2013.1/src/exe/rbdock.cxx#4 $)

>  <Rbt.Library>
libRbt.so (2013.1, Build901 2013/11/27)

>  <Rbt.Parameter_File>
/export/apps/rDock/src/rDock_2013.1_src/data/scripts/dock_solv.prm

>  <Rbt.Receptor>
prm/blind_docking_60.prm

>  <SCORE>
142.27

>  <SCORE.INTER>
136.143

>  <SCORE.INTER.CONST>
1

>  <SCORE.INTER.POLAR>
0

>  <SCORE.INTER.ROT>
2

>  <SCORE.INTER.SOLV>
42.7294

>  <SCORE.INTER.VDW>
71.5858

>  <SCORE.INTER.norm>
3.24151

>  <SCORE.INTRA>
0.593158

>  <SCORE.INTRA.DIHEDRAL>
-0.000619371

>  <SCORE.INTRA.DIHEDRAL.0>
2.39985

>  <SCORE.INTRA.POLAR>
0

>  <SCORE.INTRA.POLAR.0>
0

>  <SCORE.INTRA.REPUL>
0

>  <SCORE.INTRA.REPUL.0>
0

>  <SCORE.INTRA.SOLV>
-0.0799994

>  <SCORE.INTRA.SOLV.lig_0>
-110.958

>  <SCORE.INTRA.VDW>
0.633467

>  <SCORE.INTRA.VDW.0>
-2.34644

>  <SCORE.INTRA.norm>
0.0141228

>  <SCORE.RESTR>
5.53317

>  <SCORE.RESTR.CAVITY>
5.53317

>  <SCORE.RESTR.norm>
0.131742

>  <SCORE.SYSTEM>
0

>  <SCORE.SYSTEM.CONST>
0

>  <SCORE.SYSTEM.DIHEDRAL>
0

>  <SCORE.SYSTEM.SOLV>
0

>  <SCORE.SYSTEM.norm>
0

>  <SCORE.heavy>
42

>  <SCORE.norm>
3.38738

>  <RMSD>
29.240

$$$$
ligand
 OpenBabel11021811513D
libRbt.so/2013.1/901 2013/11/27
 42 48  0  0  0  0  0  0  0  0999 V2000
  -15.3741  -24.0335   -5.8127 P   0  0  2  0  0  0  0  0  0  0  0  0
  -18.3694  -21.8985   -2.3509 P   0  0  1  0  0  0  0  0  0  0  0  0
  -14.6213  -23.1411   -6.7718 O   0  5  0  0  0  0  0  0  0  0  0  0
  -18.8158  -23.3396   -2.2867 O   0  5  0  0  0  0  0  0  0  0  0  0
  -15.5021  -25.5102   -6.1009 O   0  0  0  0  0  0  0  0  0  0  0  0
  -18.8032  -20.9264   -1.2802 O   0  0  0  0  0  0  0  0  0  0  0  0
  -17.5105  -22.7614   -6.6926 C   0  0  0  0  0  0  0  0  0  0  0  0
  -15.9738  -22.4424   -1.3925 C   0  0  0  0  0  0  0  0  0  0  0  0
  -16.8526  -23.4281   -5.6167 O   0  0  0  0  0  0  0  0  0  0  0  0
  -16.7617  -21.8720   -2.4348 O   0  0  0  0  0  0  0  0  0  0  0  0
  -18.4437  -21.6940   -6.1337 C   0  0  1  0  0  0  0  0  0  0  0  0
  -14.9296  -23.3747   -1.9938 C   0  0  1  0  0  0  0  0  0  0  0  0
  -19.4627  -21.3949   -7.0917 O   0  0  0  0  0  0  0  0  0  0  0  0
  -14.5151  -24.3304   -1.0148 O   0  0  0  0  0  0  0  0  0  0  0  0
  -19.1259  -22.1699   -4.8622 C   0  0  1  0  0  0  0  0  0  0  0  0
  -15.4915  -24.1400   -3.1814 C   0  0  1  0  0  0  0  0  0  0  0  0
  -18.8060  -21.2997   -3.7809 O   0  0  0  0  0  0  0  0  0  0  0  0
  -14.7261  -23.8595   -4.3496 O   0  0  0  0  0  0  0  0  0  0  0  0
  -20.6180  -22.1324   -5.1357 C   0  0  0  0  0  0  0  0  0  0  0  0
  -15.3868  -25.6120   -2.8322 C   0  0  0  0  0  0  0  0  0  0  0  0
  -20.7705  -21.6359   -6.5657 C   0  0  2  0  0  0  0  0  0  0  0  0
  -14.7630  -25.6711   -1.4450 C   0  0  2  0  0  0  0  0  0  0  0  0
  -22.8145  -26.4719   -6.6816 N   0  0  0  0  0  0  0  0  0  0  0  0
  -22.2211  -25.8046   -5.6748 C   0  0  0  0  0  0  0  0  0  0  0  0
  -21.7375  -24.5540   -5.7895 N   0  0  0  0  0  0  0  0  0  0  0  0
  -21.8257  -23.8792   -6.9607 C   0  0  0  0  0  0  0  0  0  0  0  0
  -22.4622  -24.5418   -8.1099 C   0  0  0  0  0  0  0  0  0  0  0  0
  -22.9697  -25.9194   -7.9056 C   0  0  0  0  0  0  0  0  0  0  0  0
  -23.5695  -26.6011   -8.9111 N   0  0  0  0  0  0  0  0  0  0  0  0
  -22.4192  -23.6652   -9.1307 N   0  0  0  0  0  0  0  0  0  0  0  0
  -21.8092  -22.5405   -8.6767 C   0  0  0  0  0  0  0  0  0  0  0  0
  -21.4556  -22.6677   -7.3833 N   0  0  0  0  0  0  0  0  0  0  0  0
  -19.7729  -26.3918   -0.0470 N   0  0  0  0  0  0  0  0  0  0  0  0
  -19.2477  -25.6567   -1.0446 C   0  0  0  0  0  0  0  0  0  0  0  0
  -17.9282  -25.5627   -1.2891 N   0  0  0  0  0  0  0  0  0  0  0  0
  -17.0307  -26.2244   -0.5194 C   0  0  0  0  0  0  0  0  0  0  0  0
  -17.5275  -27.0502    0.5920 C   0  0  0  0  0  0  0  0  0  0  0  0
  -18.9943  -27.1029    0.7967 C   0  0  0  0  0  0  0  0  0  0  0  0
  -19.5355  -27.8403    1.7975 N   0  0  0  0  0  0  0  0  0  0  0  0
  -16.4446  -27.5886    1.1840 N   0  0  0  0  0  0  0  0  0  0  0  0
  -15.3512  -27.1462    0.5112 C   0  0  0  0  0  0  0  0  0  0  0  0
  -15.7001  -26.3336   -0.5031 N   0  0  0  0  0  0  0  0  0  0  0  0
  1  3  1  6  0  0  0
  1  5  2  0  0  0  0
  1  9  1  0  0  0  0
  1 18  1  0  0  0  0
  2  4  1  1  0  0  0
  2  6  2  0  0  0  0
  2 10  1  0  0  0  0
  2 17  1  0  0  0  0
  7  9  1  0  0  0  0
  8 10  1  0  0  0  0
 11  7  1  6  0  0  0
 11 13  1  0  0  0  0
 11 15  1  0  0  0  0
 12  8  1  1  0  0  0
 12 14  1  0  0  0  0
 12 16  1  0  0  0  0
 13 21  1  0  0  0  0
 14 22  1  0  0  0  0
 15 17  1  1  0  0  0
 15 19  1  0  0  0  0
 16 18  1  6  0  0  0
 16 20  1  0  0  0  0
 19 21  1  0  0  0  0
 20 22  1  0  0  0  0
 21 32  1  6  0  0  0
 22 42  1  1  0  0  0
 23 24  2  0  0  0  0
 23 28  1  0  0  0  0
 24 25  1  0  0  0  0
 25 26  2  0  0  0  0
 26 27  1  0  0  0  0
 26 32  1  0  0  0  0
 27 28  2  0  0  0  0
 27 30  1  0  0  0  0
 28 29  1  0  0  0  0
 30 31  2  0  0  0  0
 31 32  1  0  0  0  0
 33 34  2  0  0  0  0
 33 38  1  0  0  0  0
 34 35  1  0  0  0  0
 35 36  2  0  0  0  0
 36 37  1  0  0  0  0
 36 42  1  0  0  0  0
 37 38  2  0  0  0  0
 37 40  1  0  0  0  0
 38 39  1  0  0  0  0
 40 41  2  0  0  0  0
 41 42  1  0  0  0  0
M  CHG  2   3  -1   4  -1
M  END
>  <CHROM.1>
115.25027004,82.68354490,-18.31053749,-24.14235371,-3.89977688,-0.89108684
-0.39922491,-1.01577013

>  <Name>
ligand

>  <RI>
0

>  <Rbt.Current_Directory>
/home/itssahil/PROJECTS/Mol_Feturizer/New_Systems/rnas/4QLN

>  <Rbt.Executable>
rbdock ($Id: //depot/dev/client3/rdock/2013.1/src/exe/rbdock.cxx#4 $)

>  <Rbt.Library>
libRbt.so (2013.1, Build901 2013/11/27)

>  <Rbt.Parameter_File>
/export/apps/rDock/src/rDock_2013.1_src/data/scripts/dock_solv.prm

>  <Rbt.Receptor>
prm/blind_docking_40.prm

>  <SCORE>
55.7328

>  <SCORE.INTER>
45.2532

>  <SCORE.INTER.CONST>
1

>  <SCORE.INTER.POLAR>
0

>  <SCORE.INTER.ROT>
2

>  <SCORE.INTER.SOLV>
43.9133

>  <SCORE.INTER.VDW>
10.5977

>  <SCORE.INTER.norm>
1.07746

>  <SCORE.INTRA>
3.07481

>  <SCORE.INTRA.DIHEDRAL>
0.000911643

>  <SCORE.INTRA.DIHEDRAL.0>
2.39985

>  <SCORE.INTRA.POLAR>
0

>  <SCORE.INTRA.POLAR.0>
0

>  <SCORE.INTRA.REPUL>
0

>  <SCORE.INTRA.REPUL.0>
0

>  <SCORE.INTRA.SOLV>
0.903531

>  <SCORE.INTRA.SOLV.lig_0>
-110.958

>  <SCORE.INTRA.VDW>
2.62259

>  <SCORE.INTRA.VDW.0>
-2.34644

>  <SCORE.INTRA.norm>
0.0732098

>  <SCORE.RESTR>
7.40475

>  <SCORE.RESTR.CAVITY>
7.40475

>  <SCORE.RESTR.norm>
0.176303

>  <SCORE.SYSTEM>
0

>  <SCORE.SYSTEM.CONST>
0

>  <SCORE.SYSTEM.DIHEDRAL>
0

>  <SCORE.SYSTEM.SOLV>
0

>  <SCORE.SYSTEM.norm>
0

>  <SCORE.heavy>
42

>  <SCORE.norm>
1.32697

>  <RMSD>
29.275

$$$$
ligand
 OpenBabel11021811513D
libRbt.so/2013.1/901 2013/11/27
 42 48  0  0  0  0  0  0  0  0999 V2000
  -21.9489  -23.1868   -2.8176 P   0  0  2  0  0  0  0  0  0  0  0  0
  -18.9568  -26.4262   -5.2808 P   0  0  1  0  0  0  0  0  0  0  0  0
  -23.1145  -23.7325   -2.0260 O   0  5  0  0  0  0  0  0  0  0  0  0
  -18.5478  -25.1103   -5.8985 O   0  5  0  0  0  0  0  0  0  0  0  0
  -21.8866  -21.7148   -3.1484 O   0  0  0  0  0  0  0  0  0  0  0  0
  -18.1213  -27.6616   -5.5161 O   0  0  0  0  0  0  0  0  0  0  0  0
  -23.0152  -24.5127   -4.8330 C   0  0  0  0  0  0  0  0  0  0  0  0
  -17.9905  -25.7851   -2.9126 C   0  0  0  0  0  0  0  0  0  0  0  0
  -21.8409  -24.0174   -4.1921 O   0  0  0  0  0  0  0  0  0  0  0  0
  -19.1052  -26.2128   -3.6918 O   0  0  0  0  0  0  0  0  0  0  0  0
  -22.6804  -25.7951   -5.5854 C   0  0  1  0  0  0  0  0  0  0  0  0
  -18.4016  -24.6087   -2.0363 C   0  0  1  0  0  0  0  0  0  0  0  0
  -23.6423  -26.0111   -6.6216 O   0  0  0  0  0  0  0  0  0  0  0  0
  -17.2463  -23.8462   -1.6791 O   0  0  0  0  0  0  0  0  0  0  0  0
  -21.3090  -25.7111   -6.2339 C   0  0  1  0  0  0  0  0  0  0  0  0
  -19.3605  -23.6835   -2.7686 C   0  0  1  0  0  0  0  0  0  0  0  0
  -20.4683  -26.7471   -5.7351 O   0  0  0  0  0  0  0  0  0  0  0  0
  -20.5899  -23.5904   -2.0552 O   0  0  0  0  0  0  0  0  0  0  0  0
  -21.5272  -25.8912   -7.7247 C   0  0  0  0  0  0  0  0  0  0  0  0
  -18.6880  -22.3255   -2.8253 C   0  0  0  0  0  0  0  0  0  0  0  0
  -23.0261  -26.0744   -7.9106 C   0  0  2  0  0  0  0  0  0  0  0  0
  -17.3487  -22.4904   -2.1212 C   0  0  2  0  0  0  0  0  0  0  0  0
  -22.0039  -22.6471  -11.7560 N   0  0  0  0  0  0  0  0  0  0  0  0
  -21.2057  -23.5603  -11.1727 C   0  0  0  0  0  0  0  0  0  0  0  0
  -21.6070  -24.3821  -10.1855 N   0  0  0  0  0  0  0  0  0  0  0  0
  -22.8753  -24.3329   -9.7123 C   0  0  0  0  0  0  0  0  0  0  0  0
  -23.8097  -23.3600  -10.2998 C   0  0  0  0  0  0  0  0  0  0  0  0
  -23.2935  -22.4891  -11.3825 C   0  0  0  0  0  0  0  0  0  0  0  0
  -24.0874  -21.5667  -11.9779 N   0  0  0  0  0  0  0  0  0  0  0  0
  -24.9826  -23.5184   -9.6583 N   0  0  0  0  0  0  0  0  0  0  0  0
  -24.8153  -24.5051   -8.7409 C   0  0  0  0  0  0  0  0  0  0  0  0
  -23.5595  -24.9909   -8.7731 N   0  0  0  0  0  0  0  0  0  0  0  0
  -14.7767  -23.9727   -6.4525 N   0  0  0  0  0  0  0  0  0  0  0  0
  -15.8245  -24.5417   -5.8282 C   0  0  0  0  0  0  0  0  0  0  0  0
  -16.3888  -24.0461   -4.7121 N   0  0  0  0  0  0  0  0  0  0  0  0
  -15.9168  -22.9120   -4.1404 C   0  0  0  0  0  0  0  0  0  0  0  0
  -14.7723  -22.2305   -4.7647 C   0  0  0  0  0  0  0  0  0  0  0  0
  -14.2064  -22.8384   -5.9921 C   0  0  0  0  0  0  0  0  0  0  0  0
  -13.1517  -22.2744   -6.6304 N   0  0  0  0  0  0  0  0  0  0  0  0
  -14.5108  -21.1480   -4.0080 N   0  0  0  0  0  0  0  0  0  0  0  0
  -15.4083  -21.1376   -2.9890 C   0  0  0  0  0  0  0  0  0  0  0  0
  -16.2455  -22.1882   -3.0676 N   0  0  0  0  0  0  0  0  0  0  0  0
  1  3  1  1  0  0  0
  1  5  2  0  0  0  0
  1  9  1  0  0  0  0
  1 18  1  0  0  0  0
  2  4  1  6  0  0  0
  2  6  2  0  0  0  0
  2 10  1  0  0  0  0
  2 17  1  0  0  0  0
  7  9  1  0  0  0  0
  8 10  1  0  0  0  0
 11  7  1  6  0  0  0
 11 13  1  0  0  0  0
 11 15  1  0  0  0  0
 12  8  1  6  0  0  0
 12 14  1  0  0  0  0
 12 16  1  0  0  0  0
 13 21  1  0  0  0  0
 14 22  1  0  0  0  0
 15 17  1  1  0  0  0
 15 19  1  0  0  0  0
 16 18  1  1  0  0  0
 16 20  1  0  0  0  0
 19 21  1  0  0  0  0
 20 22  1  0  0  0  0
 21 32  1  6  0  0  0
 22 42  1  6  0  0  0
 23 24  2  0  0  0  0
 23 28  1  0  0  0  0
 24 25  1  0  0  0  0
 25 26  2  0  0  0  0
 26 27  1  0  0  0  0
 26 32  1  0  0  0  0
 27 28  2  0  0  0  0
 27 30  1  0  0  0  0
 28 29  1  0  0  0  0
 30 31  2  0  0  0  0
 31 32  1  0  0  0  0
 33 34  2  0  0  0  0
 33 38  1  0  0  0  0
 34 35  1  0  0  0  0
 35 36  2  0  0  0  0
 36 37  1  0  0  0  0
 36 42  1  0  0  0  0
 37 38  2  0  0  0  0
 37 40  1  0  0  0  0
 38 39  1  0  0  0  0
 40 41  2  0  0  0  0
 41 42  1  0  0  0  0
M  CHG  2   3  -1   4  -1
M  END
>  <CHROM.1>
146.36436624,51.03456398,-19.88585763,-24.08658548,-5.65630456,0.66792977
0.19171984,1.66808125

>  <Name>
ligand

>  <RI>
0

>  <Rbt.Current_Directory>
/home/itssahil/PROJECTS/Mol_Feturizer/New_Systems/rnas/4QLN

>  <Rbt.Executable>
rbdock ($Id: //depot/dev/client3/rdock/2013.1/src/exe/rbdock.cxx#4 $)

>  <Rbt.Library>
libRbt.so (2013.1, Build901 2013/11/27)

>  <Rbt.Parameter_File>
/export/apps/rDock/src/rDock_2013.1_src/data/scripts/dock_solv.prm

>  <Rbt.Receptor>
prm/blind_docking_40.prm

>  <SCORE>
47.6957

>  <SCORE.INTER>
36.5491

>  <SCORE.INTER.CONST>
1

>  <SCORE.INTER.POLAR>
0

>  <SCORE.INTER.ROT>
2

>  <SCORE.INTER.SOLV>
35.5816

>  <SCORE.INTER.VDW>
7.57217

>  <SCORE.INTER.norm>
0.870216

>  <SCORE.INTRA>
1.30858

>  <SCORE.INTRA.DIHEDRAL>
-0.000448294

>  <SCORE.INTRA.DIHEDRAL.0>
2.39985

>  <SCORE.INTRA.POLAR>
0

>  <SCORE.INTRA.POLAR.0>
0

>  <SCORE.INTRA.REPUL>
0

>  <SCORE.INTRA.REPUL.0>
0

>  <SCORE.INTRA.SOLV>
1.12795

>  <SCORE.INTRA.SOLV.lig_0>
-110.958

>  <SCORE.INTRA.VDW>
0.744828

>  <SCORE.INTRA.VDW.0>
-2.34644

>  <SCORE.INTRA.norm>
0.0311567

>  <SCORE.RESTR>
9.8381

>  <SCORE.RESTR.CAVITY>
9.8381

>  <SCORE.RESTR.norm>
0.23424

>  <SCORE.SYSTEM>
0

>  <SCORE.SYSTEM.CONST>
0

>  <SCORE.SYSTEM.DIHEDRAL>
0

>  <SCORE.SYSTEM.SOLV>
0

>  <SCORE.SYSTEM.norm>
0

>  <SCORE.heavy>
42

>  <SCORE.norm>
1.13561

>  <RMSD>
29.318

$$$$
ligand
 OpenBabel11021811513D
libRbt.so/2013.1/901 2013/11/27
 42 48  0  0  0  0  0  0  0  0999 V2000
  -23.9819  -36.7200  -26.1944 P   0  0  2  0  0  0  0  0  0  0  0  0
  -19.1995  -37.5300  -24.7852 P   0  0  1  0  0  0  0  0  0  0  0  0
  -24.3148  -36.7190  -27.6682 O   0  5  0  0  0  0  0  0  0  0  0  0
  -19.8046  -37.0034  -23.5058 O   0  5  0  0  0  0  0  0  0  0  0  0
  -24.9669  -36.1540  -25.1997 O   0  0  0  0  0  0  0  0  0  0  0  0
  -17.8340  -38.1739  -24.7643 O   0  0  0  0  0  0  0  0  0  0  0  0
  -22.2092  -34.8786  -26.8454 C   0  0  0  0  0  0  0  0  0  0  0  0
  -20.6388  -39.7388  -24.7319 C   0  0  0  0  0  0  0  0  0  0  0  0
  -22.5744  -35.9648  -25.9958 O   0  0  0  0  0  0  0  0  0  0  0  0
  -20.2376  -38.5702  -25.4432 O   0  0  0  0  0  0  0  0  0  0  0  0
  -20.6930  -34.8377  -26.9938 C   0  0  1  0  0  0  0  0  0  0  0  0
  -22.1581  -39.8504  -24.7491 C   0  0  1  0  0  0  0  0  0  0  0  0
  -20.2808  -33.5210  -27.3702 O   0  0  0  0  0  0  0  0  0  0  0  0
  -22.5957  -40.6484  -23.6466 O   0  0  0  0  0  0  0  0  0  0  0  0
  -20.0020  -35.1854  -25.6860 C   0  0  1  0  0  0  0  0  0  0  0  0
  -22.8133  -38.4842  -24.6227 C   0  0  1  0  0  0  0  0  0  0  0  0
  -19.1739  -36.3312  -25.8604 O   0  0  0  0  0  0  0  0  0  0  0  0
  -23.6355  -38.2300  -25.7578 O   0  0  0  0  0  0  0  0  0  0  0  0
  -19.1543  -33.9828  -25.3153 C   0  0  0  0  0  0  0  0  0  0  0  0
  -23.6610  -38.5291  -23.3661 C   0  0  0  0  0  0  0  0  0  0  0  0
  -19.3736  -32.9582  -26.4185 C   0  0  2  0  0  0  0  0  0  0  0  0
  -23.4810  -39.9254  -22.7877 C   0  0  2  0  0  0  0  0  0  0  0  0
  -19.7057  -27.7268  -26.7359 N   0  0  0  0  0  0  0  0  0  0  0  0
  -19.0194  -28.6004  -27.4955 C   0  0  0  0  0  0  0  0  0  0  0  0
  -19.0265  -29.9313  -27.2959 N   0  0  0  0  0  0  0  0  0  0  0  0
  -19.7481  -30.4794  -26.2890 C   0  0  0  0  0  0  0  0  0  0  0  0
  -20.5266  -29.5890  -25.4138 C   0  0  0  0  0  0  0  0  0  0  0  0
  -20.4676  -28.1352  -25.6965 C   0  0  0  0  0  0  0  0  0  0  0  0
  -21.1547  -27.2460  -24.9395 N   0  0  0  0  0  0  0  0  0  0  0  0
  -21.1400  -30.3778  -24.5116 N   0  0  0  0  0  0  0  0  0  0  0  0
  -20.7863  -31.6600  -24.7838 C   0  0  0  0  0  0  0  0  0  0  0  0
  -19.9569  -31.7208  -25.8434 N   0  0  0  0  0  0  0  0  0  0  0  0
  -22.6195  -42.3681  -18.2201 N   0  0  0  0  0  0  0  0  0  0  0  0
  -23.2435  -42.8010  -19.3312 C   0  0  0  0  0  0  0  0  0  0  0  0
  -23.3929  -42.0575  -20.4423 N   0  0  0  0  0  0  0  0  0  0  0  0
  -22.9073  -40.7940  -20.5027 C   0  0  0  0  0  0  0  0  0  0  0  0
  -22.2115  -40.2486  -19.3269 C   0  0  0  0  0  0  0  0  0  0  0  0
  -22.0873  -41.1294  -18.1416 C   0  0  0  0  0  0  0  0  0  0  0  0
  -21.4604  -40.7052  -17.0167 N   0  0  0  0  0  0  0  0  0  0  0  0
  -21.8359  -38.9966  -19.6498 N   0  0  0  0  0  0  0  0  0  0  0  0
  -22.2546  -38.7611  -20.9198 C   0  0  0  0  0  0  0  0  0  0  0  0
  -22.8929  -39.8314  -21.4278 N   0  0  0  0  0  0  0  0  0  0  0  0
  1  3  1  6  0  0  0
  1  5  2  0  0  0  0
  1  9  1  0  0  0  0
  1 18  1  0  0  0  0
  2  4  1  1  0  0  0
  2  6  2  0  0  0  0
  2 10  1  0  0  0  0
  2 17  1  0  0  0  0
  7  9  1  0  0  0  0
  8 10  1  0  0  0  0
 11  7  1  1  0  0  0
 11 13  1  0  0  0  0
 11 15  1  0  0  0  0
 12  8  1  1  0  0  0
 12 14  1  0  0  0  0
 12 16  1  0  0  0  0
 13 21  1  0  0  0  0
 14 22  1  0  0  0  0
 15 17  1  6  0  0  0
 15 19  1  0  0  0  0
 16 18  1  6  0  0  0
 16 20  1  0  0  0  0
 19 21  1  0  0  0  0
 20 22  1  0  0  0  0
 21 32  1  1  0  0  0
 22 42  1  1  0  0  0
 23 24  2  0  0  0  0
 23 28  1  0  0  0  0
 24 25  1  0  0  0  0
 25 26  2  0  0  0  0
 26 27  1  0  0  0  0
 26 32  1  0  0  0  0
 27 28  2  0  0  0  0
 27 30  1  0  0  0  0
 28 29  1  0  0  0  0
 30 31  2  0  0  0  0
 31 32  1  0  0  0  0
 33 34  2  0  0  0  0
 33 38  1  0  0  0  0
 34 35  1  0  0  0  0
 35 36  2  0  0  0  0
 36 37  1  0  0  0  0
 36 42  1  0  0  0  0
 37 38  2  0  0  0  0
 37 40  1  0  0  0  0
 38 39  1  0  0  0  0
 40 41  2  0  0  0  0
 41 42  1  0  0  0  0
M  CHG  2   3  -1   4  -1
M  END
>  <CHROM.1>
-93.45941355,-79.53997552,-21.42689233,-36.23131151,-24.24279630,2.09300426
1.17015370,2.15995697

>  <Name>
ligand

>  <RI>
0

>  <Rbt.Current_Directory>
/home/itssahil/PROJECTS/Mol_Feturizer/New_Systems/rnas/4QLN

>  <Rbt.Executable>
rbdock ($Id: //depot/dev/client3/rdock/2013.1/src/exe/rbdock.cxx#4 $)

>  <Rbt.Library>
libRbt.so (2013.1, Build901 2013/11/27)

>  <Rbt.Parameter_File>
/export/apps/rDock/src/rDock_2013.1_src/data/scripts/dock_solv.prm

>  <Rbt.Receptor>
prm/blind_docking_60.prm

>  <SCORE>
177.088

>  <SCORE.INTER>
170.259

>  <SCORE.INTER.CONST>
1

>  <SCORE.INTER.POLAR>
0

>  <SCORE.INTER.ROT>
2

>  <SCORE.INTER.SOLV>
43.8167

>  <SCORE.INTER.VDW>
93.9668

>  <SCORE.INTER.norm>
4.05378

>  <SCORE.INTRA>
2.04279

>  <SCORE.INTRA.DIHEDRAL>
-0.000750581

>  <SCORE.INTRA.DIHEDRAL.0>
2.39985

>  <SCORE.INTRA.POLAR>
0

>  <SCORE.INTRA.POLAR.0>
0

>  <SCORE.INTRA.REPUL>
0

>  <SCORE.INTRA.REPUL.0>
0

>  <SCORE.INTRA.SOLV>
-0.0873963

>  <SCORE.INTRA.SOLV.lig_0>
-110.958

>  <SCORE.INTRA.VDW>
2.08687

>  <SCORE.INTRA.VDW.0>
-2.34644

>  <SCORE.INTRA.norm>
0.0486379

>  <SCORE.RESTR>
4.78702

>  <SCORE.RESTR.CAVITY>
4.78702

>  <SCORE.RESTR.norm>
0.113977

>  <SCORE.SYSTEM>
0

>  <SCORE.SYSTEM.CONST>
0

>  <SCORE.SYSTEM.DIHEDRAL>
0

>  <SCORE.SYSTEM.SOLV>
0

>  <SCORE.SYSTEM.norm>
0

>  <SCORE.heavy>
42

>  <SCORE.norm>
4.21639

>  <RMSD>
29.347

$$$$
ligand
 OpenBabel11021811513D
libRbt.so/2013.1/901 2013/11/27
 42 48  0  0  0  0  0  0  0  0999 V2000
  -18.7479  -38.1538  -26.0105 P   0  0  2  0  0  0  0  0  0  0  0  0
  -23.2945  -35.9537  -25.9624 P   0  0  1  0  0  0  0  0  0  0  0  0
  -18.5238  -39.3388  -26.9207 O   0  5  0  0  0  0  0  0  0  0  0  0
  -22.6627  -35.3649  -24.7237 O   0  5  0  0  0  0  0  0  0  0  0  0
  -17.7646  -37.8582  -24.9034 O   0  0  0  0  0  0  0  0  0  0  0  0
  -24.5732  -35.3657  -26.5088 O   0  0  0  0  0  0  0  0  0  0  0  0
  -20.7598  -39.5735  -25.0651 C   0  0  0  0  0  0  0  0  0  0  0  0
  -21.6143  -34.7275  -27.5831 C   0  0  0  0  0  0  0  0  0  0  0  0
  -20.2140  -38.2889  -25.3599 O   0  0  0  0  0  0  0  0  0  0  0  0
  -22.1952  -35.9514  -27.1389 O   0  0  0  0  0  0  0  0  0  0  0  0
  -22.2776  -39.5215  -25.1922 C   0  0  1  0  0  0  0  0  0  0  0  0
  -20.0973  -34.8643  -27.6147 C   0  0  1  0  0  0  0  0  0  0  0  0
  -22.8621  -40.5762  -24.4231 O   0  0  0  0  0  0  0  0  0  0  0  0
  -19.4943  -33.5713  -27.5237 O   0  0  0  0  0  0  0  0  0  0  0  0
  -22.8292  -38.2052  -24.6712 C   0  0  1  0  0  0  0  0  0  0  0  0
  -19.5936  -35.6953  -26.4453 C   0  0  1  0  0  0  0  0  0  0  0  0
  -23.5326  -37.5260  -25.7069 O   0  0  0  0  0  0  0  0  0  0  0  0
  -18.8890  -36.8366  -26.9249 O   0  0  0  0  0  0  0  0  0  0  0  0
  -23.7788  -38.5549  -23.5406 C   0  0  0  0  0  0  0  0  0  0  0  0
  -18.6583  -34.8011  -25.6545 C   0  0  0  0  0  0  0  0  0  0  0  0
  -23.7565  -40.0720  -23.4275 C   0  0  2  0  0  0  0  0  0  0  0  0
  -18.6372  -33.4656  -26.3843 C   0  0  2  0  0  0  0  0  0  0  0  0
  -23.2520  -38.6801  -18.3891 N   0  0  0  0  0  0  0  0  0  0  0  0
  -23.7859  -38.0080  -19.4257 C   0  0  0  0  0  0  0  0  0  0  0  0
  -23.8482  -38.4939  -20.6791 N   0  0  0  0  0  0  0  0  0  0  0  0
  -23.3625  -39.7238  -20.9729 C   0  0  0  0  0  0  0  0  0  0  0  0
  -22.7627  -40.5216  -19.8919 C   0  0  0  0  0  0  0  0  0  0  0  0
  -22.7301  -39.9181  -18.5385 C   0  0  0  0  0  0  0  0  0  0  0  0
  -22.1961  -40.5850  -17.4869 N   0  0  0  0  0  0  0  0  0  0  0  0
  -22.3662  -41.6826  -20.4462 N   0  0  0  0  0  0  0  0  0  0  0  0
  -22.6833  -41.6337  -21.7654 C   0  0  0  0  0  0  0  0  0  0  0  0
  -23.2773  -40.4664  -22.0795 N   0  0  0  0  0  0  0  0  0  0  0  0
  -22.6534  -31.6877  -23.5065 N   0  0  0  0  0  0  0  0  0  0  0  0
  -22.5515  -32.7969  -24.2621 C   0  0  0  0  0  0  0  0  0  0  0  0
  -21.4474  -33.1310  -24.9541 N   0  0  0  0  0  0  0  0  0  0  0  0
  -20.3452  -32.3434  -24.9254 C   0  0  0  0  0  0  0  0  0  0  0  0
  -20.3786  -31.1122  -24.1209 C   0  0  0  0  0  0  0  0  0  0  0  0
  -21.6311  -30.8135  -23.3872 C   0  0  0  0  0  0  0  0  0  0  0  0
  -21.7458  -29.7000  -22.6224 N   0  0  0  0  0  0  0  0  0  0  0  0
  -19.1747  -30.5268  -24.2651 N   0  0  0  0  0  0  0  0  0  0  0  0
  -18.4360  -31.3135  -25.0894 C   0  0  0  0  0  0  0  0  0  0  0  0
  -19.1331  -32.3953  -25.4829 N   0  0  0  0  0  0  0  0  0  0  0  0
  1  3  1  6  0  0  0
  1  5  2  0  0  0  0
  1  9  1  0  0  0  0
  1 18  1  0  0  0  0
  2  4  1  1  0  0  0
  2  6  2  0  0  0  0
  2 10  1  0  0  0  0
  2 17  1  0  0  0  0
  7  9  1  0  0  0  0
  8 10  1  0  0  0  0
 11  7  1  1  0  0  0
 11 13  1  0  0  0  0
 11 15  1  0  0  0  0
 12  8  1  1  0  0  0
 12 14  1  0  0  0  0
 12 16  1  0  0  0  0
 13 21  1  0  0  0  0
 14 22  1  0  0  0  0
 15 17  1  6  0  0  0
 15 19  1  0  0  0  0
 16 18  1  6  0  0  0
 16 20  1  0  0  0  0
 19 21  1  0  0  0  0
 20 22  1  0  0  0  0
 21 32  1  1  0  0  0
 22 42  1  1  0  0  0
 23 24  2  0  0  0  0
 23 28  1  0  0  0  0
 24 25  1  0  0  0  0
 25 26  2  0  0  0  0
 26 27  1  0  0  0  0
 26 32  1  0  0  0  0
 27 28  2  0  0  0  0
 27 30  1  0  0  0  0
 28 29  1  0  0  0  0
 30 31  2  0  0  0  0
 31 32  1  0  0  0  0
 33 34  2  0  0  0  0
 33 38  1  0  0  0  0
 34 35  1  0  0  0  0
 35 36  2  0  0  0  0
 36 37  1  0  0  0  0
 36 42  1  0  0  0  0
 37 38  2  0  0  0  0
 37 40  1  0  0  0  0
 38 39  1  0  0  0  0
 40 41  2  0  0  0  0
 41 42  1  0  0  0  0
M  CHG  2   3  -1   4  -1
M  END
>  <CHROM.1>
143.72742235,57.91497868,-21.43979197,-36.49373108,-24.26104174,-0.89961852
-1.08201356,-3.08014612

>  <Name>
ligand

>  <RI>
0

>  <Rbt.Current_Directory>
/home/itssahil/PROJECTS/Mol_Feturizer/New_Systems/rnas/4QLN

>  <Rbt.Executable>
rbdock ($Id: //depot/dev/client3/rdock/2013.1/src/exe/rbdock.cxx#4 $)

>  <Rbt.Library>
libRbt.so (2013.1, Build901 2013/11/27)

>  <Rbt.Parameter_File>
/export/apps/rDock/src/rDock_2013.1_src/data/scripts/dock_solv.prm

>  <Rbt.Receptor>
prm/blind_docking_80.prm

>  <SCORE>
171.464

>  <SCORE.INTER>
156.289

>  <SCORE.INTER.CONST>
1

>  <SCORE.INTER.POLAR>
0

>  <SCORE.INTER.ROT>
2

>  <SCORE.INTER.SOLV>
43.9978

>  <SCORE.INTER.VDW>
84.5932

>  <SCORE.INTER.norm>
3.72116

>  <SCORE.INTRA>
2.17346

>  <SCORE.INTRA.DIHEDRAL>
-0.000180654

>  <SCORE.INTRA.DIHEDRAL.0>
2.39985

>  <SCORE.INTRA.POLAR>
0

>  <SCORE.INTRA.POLAR.0>
0

>  <SCORE.INTRA.REPUL>
0

>  <SCORE.INTRA.REPUL.0>
0

>  <SCORE.INTRA.SOLV>
1.21082

>  <SCORE.INTRA.SOLV.lig_0>
-110.958

>  <SCORE.INTRA.VDW>
1.56814

>  <SCORE.INTRA.VDW.0>
-2.34644

>  <SCORE.INTRA.norm>
0.0517491

>  <SCORE.RESTR>
13.0017

>  <SCORE.RESTR.CAVITY>
13.0017

>  <SCORE.RESTR.norm>
0.309565

>  <SCORE.SYSTEM>
0

>  <SCORE.SYSTEM.CONST>
0

>  <SCORE.SYSTEM.DIHEDRAL>
0

>  <SCORE.SYSTEM.SOLV>
0

>  <SCORE.SYSTEM.norm>
0

>  <SCORE.heavy>
42

>  <SCORE.norm>
4.08247

>  <RMSD>
29.371

$$$$
ligand
 OpenBabel11021811513D
libRbt.so/2013.1/901 2013/11/27
 42 48  0  0  0  0  0  0  0  0999 V2000
  -23.9106  -36.7164  -26.1168 P   0  0  2  0  0  0  0  0  0  0  0  0
  -19.1589  -37.7666  -24.7632 P   0  0  1  0  0  0  0  0  0  0  0  0
  -24.2510  -36.6580  -27.5878 O   0  5  0  0  0  0  0  0  0  0  0  0
  -19.7346  -37.2532  -23.4650 O   0  5  0  0  0  0  0  0  0  0  0  0
  -24.8657  -36.1394  -25.0995 O   0  0  0  0  0  0  0  0  0  0  0  0
  -17.8215  -38.4672  -24.7701 O   0  0  0  0  0  0  0  0  0  0  0  0
  -22.0657  -34.9322  -26.7252 C   0  0  0  0  0  0  0  0  0  0  0  0
  -20.6892  -39.9140  -24.7653 C   0  0  0  0  0  0  0  0  0  0  0  0
  -22.4716  -36.0268  -25.9053 O   0  0  0  0  0  0  0  0  0  0  0  0
  -20.2431  -38.7426  -25.4446 O   0  0  0  0  0  0  0  0  0  0  0  0
  -20.5499  -34.9502  -26.8821 C   0  0  1  0  0  0  0  0  0  0  0  0
  -22.2119  -39.9615  -24.7757 C   0  0  1  0  0  0  0  0  0  0  0  0
  -20.0849  -33.6413  -27.2225 O   0  0  0  0  0  0  0  0  0  0  0  0
  -22.6767  -40.7727  -23.6942 O   0  0  0  0  0  0  0  0  0  0  0  0
  -19.8672  -35.3649  -25.5897 C   0  0  1  0  0  0  0  0  0  0  0  0
  -22.8086  -38.5735  -24.6051 C   0  0  1  0  0  0  0  0  0  0  0  0
  -19.0888  -36.5386  -25.8030 O   0  0  0  0  0  0  0  0  0  0  0  0
  -23.6254  -38.2518  -25.7269 O   0  0  0  0  0  0  0  0  0  0  0  0
  -18.9679  -34.2102  -25.1895 C   0  0  0  0  0  0  0  0  0  0  0  0
  -23.6508  -38.6200  -23.3449 C   0  0  0  0  0  0  0  0  0  0  0  0
  -19.1499  -33.1452  -26.2607 C   0  0  2  0  0  0  0  0  0  0  0  0
  -23.5264  -40.0391  -22.8088 C   0  0  2  0  0  0  0  0  0  0  0  0
  -22.0531  -31.0662  -22.4101 N   0  0  0  0  0  0  0  0  0  0  0  0
  -21.7671  -32.3526  -22.6833 C   0  0  0  0  0  0  0  0  0  0  0  0
  -20.9999  -32.7445  -23.7172 N   0  0  0  0  0  0  0  0  0  0  0  0
  -20.4573  -31.8368  -24.5636 C   0  0  0  0  0  0  0  0  0  0  0  0
  -20.7237  -30.4086  -24.3309 C   0  0  0  0  0  0  0  0  0  0  0  0
  -21.5783  -30.0558  -23.1723 C   0  0  0  0  0  0  0  0  0  0  0  0
  -21.8726  -28.7645  -22.8865 N   0  0  0  0  0  0  0  0  0  0  0  0
  -20.0768  -29.7345  -25.3002 N   0  0  0  0  0  0  0  0  0  0  0  0
  -19.4513  -30.6489  -26.0848 C   0  0  0  0  0  0  0  0  0  0  0  0
  -19.6777  -31.9020  -25.6458 N   0  0  0  0  0  0  0  0  0  0  0  0
  -22.6430  -42.6915  -18.3639 N   0  0  0  0  0  0  0  0  0  0  0  0
  -23.2774  -43.0704  -19.4888 C   0  0  0  0  0  0  0  0  0  0  0  0
  -23.4314  -42.2764  -20.5637 N   0  0  0  0  0  0  0  0  0  0  0  0
  -22.9400  -41.0137  -20.5702 C   0  0  0  0  0  0  0  0  0  0  0  0
  -22.2326  -40.5257  -19.3762 C   0  0  0  0  0  0  0  0  0  0  0  0
  -22.1039  -41.4602  -18.2332 C   0  0  0  0  0  0  0  0  0  0  0  0
  -21.4665  -41.0907  -17.0951 N   0  0  0  0  0  0  0  0  0  0  0  0
  -21.8531  -39.2621  -19.6446 N   0  0  0  0  0  0  0  0  0  0  0  0
  -22.2802  -38.9670  -20.8993 C   0  0  0  0  0  0  0  0  0  0  0  0
  -22.9276  -40.0100  -21.4506 N   0  0  0  0  0  0  0  0  0  0  0  0
  1  3  1  6  0  0  0
  1  5  2  0  0  0  0
  1  9  1  0  0  0  0
  1 18  1  0  0  0  0
  2  4  1  1  0  0  0
  2  6  2  0  0  0  0
  2 10  1  0  0  0  0
  2 17  1  0  0  0  0
  7  9  1  0  0  0  0
  8 10  1  0  0  0  0
 11  7  1  1  0  0  0
 11 13  1  0  0  0  0
 11 15  1  0  0  0  0
 12  8  1  1  0  0  0
 12 14  1  0  0  0  0
 12 16  1  0  0  0  0
 13 21  1  0  0  0  0
 14 22  1  0  0  0  0
 15 17  1  6  0  0  0
 15 19  1  0  0  0  0
 16 18  1  6  0  0  0
 16 20  1  0  0  0  0
 19 21  1  0  0  0  0
 20 22  1  0  0  0  0
 21 32  1  1  0  0  0
 22 42  1  1  0  0  0
 23 24  2  0  0  0  0
 23 28  1  0  0  0  0
 24 25  1  0  0  0  0
 25 26  2  0  0  0  0
 26 27  1  0  0  0  0
 26 32  1  0  0  0  0
 27 28  2  0  0  0  0
 27 30  1  0  0  0  0
 28 29  1  0  0  0  0
 30 31  2  0  0  0  0
 31 32  1  0  0  0  0
 33 34  2  0  0  0  0
 33 38  1  0  0  0  0
 34 35  1  0  0  0  0
 35 36  2  0  0  0  0
 36 37  1  0  0  0  0
 36 42  1  0  0  0  0
 37 38  2  0  0  0  0
 37 40  1  0  0  0  0
 38 39  1  0  0  0  0
 40 41  2  0  0  0  0
 41 42  1  0  0  0  0
M  CHG  2   3  -1   4  -1
M  END
>  <CHROM.1>
88.76766021,-77.22491672,-21.54777067,-36.65640523,-23.84231835,0.15539203
-1.38910577,-1.87327229

>  <Name>
ligand

>  <RI>
0

>  <Rbt.Current_Directory>
/home/itssahil/PROJECTS/Mol_Feturizer/New_Systems/rnas/4QLN

>  <Rbt.Executable>
rbdock ($Id: //depot/dev/client3/rdock/2013.1/src/exe/rbdock.cxx#4 $)

>  <Rbt.Library>
libRbt.so (2013.1, Build901 2013/11/27)

>  <Rbt.Parameter_File>
/export/apps/rDock/src/rDock_2013.1_src/data/scripts/dock_solv.prm

>  <Rbt.Receptor>
prm/blind_docking_60.prm

>  <SCORE>
168.936

>  <SCORE.INTER>
163.682

>  <SCORE.INTER.CONST>
1

>  <SCORE.INTER.POLAR>
0

>  <SCORE.INTER.ROT>
2

>  <SCORE.INTER.SOLV>
50.2763

>  <SCORE.INTER.VDW>
87.4293

>  <SCORE.INTER.norm>
3.89719

>  <SCORE.INTRA>
1.92545

>  <SCORE.INTRA.DIHEDRAL>
-0.000180133

>  <SCORE.INTRA.DIHEDRAL.0>
2.39985

>  <SCORE.INTRA.POLAR>
0

>  <SCORE.INTRA.POLAR.0>
0

>  <SCORE.INTRA.REPUL>
0

>  <SCORE.INTRA.REPUL.0>
0

>  <SCORE.INTRA.SOLV>
-0.0781587

>  <SCORE.INTRA.SOLV.lig_0>
-110.958

>  <SCORE.INTRA.VDW>
1.96462

>  <SCORE.INTRA.VDW.0>
-2.34644

>  <SCORE.INTRA.norm>
0.0458441

>  <SCORE.RESTR>
3.32878

>  <SCORE.RESTR.CAVITY>
3.32878

>  <SCORE.RESTR.norm>
0.0792566

>  <SCORE.SYSTEM>
0

>  <SCORE.SYSTEM.CONST>
0

>  <SCORE.SYSTEM.DIHEDRAL>
0

>  <SCORE.SYSTEM.SOLV>
0

>  <SCORE.SYSTEM.norm>
0

>  <SCORE.heavy>
42

>  <SCORE.norm>
4.02229

>  <RMSD>
29.372

$$$$
ligand
 OpenBabel11021811513D
libRbt.so/2013.1/901 2013/11/27
 42 48  0  0  0  0  0  0  0  0999 V2000
  -23.9096  -36.7060  -26.1206 P   0  0  2  0  0  0  0  0  0  0  0  0
  -19.1593  -37.7502  -24.7571 P   0  0  1  0  0  0  0  0  0  0  0  0
  -24.2457  -36.6423  -27.5923 O   0  5  0  0  0  0  0  0  0  0  0  0
  -19.7402  -37.2437  -23.4585 O   0  5  0  0  0  0  0  0  0  0  0  0
  -24.8691  -36.1356  -25.1037 O   0  0  0  0  0  0  0  0  0  0  0  0
  -17.8202  -38.4476  -24.7630 O   0  0  0  0  0  0  0  0  0  0  0  0
  -22.0673  -34.9148  -26.7159 C   0  0  0  0  0  0  0  0  0  0  0  0
  -20.6843  -39.9014  -24.7728 C   0  0  0  0  0  0  0  0  0  0  0  0
  -22.4729  -36.0138  -25.9019 O   0  0  0  0  0  0  0  0  0  0  0  0
  -20.2391  -38.7260  -25.4458 O   0  0  0  0  0  0  0  0  0  0  0  0
  -20.5510  -34.9284  -26.8684 C   0  0  1  0  0  0  0  0  0  0  0  0
  -22.2069  -39.9525  -24.7880 C   0  0  1  0  0  0  0  0  0  0  0  0
  -20.0882  -33.6169  -27.2019 O   0  0  0  0  0  0  0  0  0  0  0  0
  -22.6729  -40.7695  -23.7113 O   0  0  0  0  0  0  0  0  0  0  0  0
  -19.8711  -35.3469  -25.5757 C   0  0  1  0  0  0  0  0  0  0  0  0
  -22.8074  -38.5668  -24.6134 C   0  0  1  0  0  0  0  0  0  0  0  0
  -19.0892  -36.5177  -25.7915 O   0  0  0  0  0  0  0  0  0  0  0  0
  -23.6217  -38.2423  -25.7362 O   0  0  0  0  0  0  0  0  0  0  0  0
  -18.9758  -34.1916  -25.1679 C   0  0  0  0  0  0  0  0  0  0  0  0
  -23.6533  -38.6206  -23.3559 C   0  0  0  0  0  0  0  0  0  0  0  0
  -19.1573  -33.1226  -26.2353 C   0  0  2  0  0  0  0  0  0  0  0  0
  -23.5270  -40.0417  -22.8254 C   0  0  2  0  0  0  0  0  0  0  0  0
  -22.1264  -31.0700  -22.4209 N   0  0  0  0  0  0  0  0  0  0  0  0
  -21.8427  -32.3549  -22.7033 C   0  0  0  0  0  0  0  0  0  0  0  0
  -21.0568  -32.7397  -23.7257 N   0  0  0  0  0  0  0  0  0  0  0  0
  -20.4912  -31.8256  -24.5500 C   0  0  0  0  0  0  0  0  0  0  0  0
  -20.7536  -30.3986  -24.3061 C   0  0  0  0  0  0  0  0  0  0  0  0
  -21.6297  -30.0538  -23.1613 C   0  0  0  0  0  0  0  0  0  0  0  0
  -21.9219  -28.7641  -22.8664 N   0  0  0  0  0  0  0  0  0  0  0  0
  -20.0828  -29.7174  -25.2539 N   0  0  0  0  0  0  0  0  0  0  0  0
  -19.4468  -30.6267  -26.0362 C   0  0  0  0  0  0  0  0  0  0  0  0
  -19.6900  -31.8833  -25.6167 N   0  0  0  0  0  0  0  0  0  0  0  0
  -22.6712  -42.7023  -18.3801 N   0  0  0  0  0  0  0  0  0  0  0  0
  -23.3040  -43.0770  -19.5073 C   0  0  0  0  0  0  0  0  0  0  0  0
  -23.4506  -42.2813  -20.5820 N   0  0  0  0  0  0  0  0  0  0  0  0
  -22.9526  -41.0211  -20.5858 C   0  0  0  0  0  0  0  0  0  0  0  0
  -22.2466  -40.5378  -19.3891 C   0  0  0  0  0  0  0  0  0  0  0  0
  -22.1262  -41.4739  -18.2466 C   0  0  0  0  0  0  0  0  0  0  0  0
  -21.4906  -41.1086  -17.1061 N   0  0  0  0  0  0  0  0  0  0  0  0
  -21.8598  -39.2759  -19.6552 N   0  0  0  0  0  0  0  0  0  0  0  0
  -22.2814  -38.9775  -20.9111 C   0  0  0  0  0  0  0  0  0  0  0  0
  -22.9324  -40.0167  -21.4653 N   0  0  0  0  0  0  0  0  0  0  0  0
  1  3  1  6  0  0  0
  1  5  2  0  0  0  0
  1  9  1  0  0  0  0
  1 18  1  0  0  0  0
  2  4  1  1  0  0  0
  2  6  2  0  0  0  0
  2 10  1  0  0  0  0
  2 17  1  0  0  0  0
  7  9  1  0  0  0  0
  8 10  1  0  0  0  0
 11  7  1  1  0  0  0
 11 13  1  0  0  0  0
 11 15  1  0  0  0  0
 12  8  1  1  0  0  0
 12 14  1  0  0  0  0
 12 16  1  0  0  0  0
 13 21  1  0  0  0  0
 14 22  1  0  0  0  0
 15 17  1  6  0  0  0
 15 19  1  0  0  0  0
 16 18  1  6  0  0  0
 16 20  1  0  0  0  0
 19 21  1  0  0  0  0
 20 22  1  0  0  0  0
 21 32  1  1  0  0  0
 22 42  1  1  0  0  0
 23 24  2  0  0  0  0
 23 28  1  0  0  0  0
 24 25  1  0  0  0  0
 25 26  2  0  0  0  0
 26 27  1  0  0  0  0
 26 32  1  0  0  0  0
 27 28  2  0  0  0  0
 27 30  1  0  0  0  0
 28 29  1  0  0  0  0
 30 31  2  0  0  0  0
 31 32  1  0  0  0  0
 33 34  2  0  0  0  0
 33 38  1  0  0  0  0
 34 35  1  0  0  0  0
 35 36  2  0  0  0  0
 36 37  1  0  0  0  0
 36 42  1  0  0  0  0
 37 38  2  0  0  0  0
 37 40  1  0  0  0  0
 38 39  1  0  0  0  0
 40 41  2  0  0  0  0
 41 42  1  0  0  0  0
M  CHG  2   3  -1   4  -1
M  END
>  <CHROM.1>
87.56286206,-77.69912396,-21.55943427,-36.64936203,-23.84101831,0.09212613
-1.39167887,-1.93410748

>  <Name>
ligand

>  <RI>
0

>  <Rbt.Current_Directory>
/home/itssahil/PROJECTS/Mol_Feturizer/New_Systems/rnas/4QLN

>  <Rbt.Executable>
rbdock ($Id: //depot/dev/client3/rdock/2013.1/src/exe/rbdock.cxx#4 $)

>  <Rbt.Library>
libRbt.so (2013.1, Build901 2013/11/27)

>  <Rbt.Parameter_File>
/export/apps/rDock/src/rDock_2013.1_src/data/scripts/dock_solv.prm

>  <Rbt.Receptor>
prm/blind_docking_60.prm

>  <SCORE>
168.65

>  <SCORE.INTER>
163.449

>  <SCORE.INTER.CONST>
1

>  <SCORE.INTER.POLAR>
0

>  <SCORE.INTER.ROT>
2

>  <SCORE.INTER.SOLV>
50.3727

>  <SCORE.INTER.VDW>
87.2419

>  <SCORE.INTER.norm>
3.89165

>  <SCORE.INTRA>
1.85422

>  <SCORE.INTRA.DIHEDRAL>
-0.000193113

>  <SCORE.INTRA.DIHEDRAL.0>
2.39985

>  <SCORE.INTRA.POLAR>
0

>  <SCORE.INTRA.POLAR.0>
0

>  <SCORE.INTRA.REPUL>
0

>  <SCORE.INTRA.REPUL.0>
0

>  <SCORE.INTRA.SOLV>
-0.0749841

>  <SCORE.INTRA.SOLV.lig_0>
-110.958

>  <SCORE.INTRA.VDW>
1.89181

>  <SCORE.INTRA.VDW.0>
-2.34644

>  <SCORE.INTRA.norm>
0.0441482

>  <SCORE.RESTR>
3.34686

>  <SCORE.RESTR.CAVITY>
3.34686

>  <SCORE.RESTR.norm>
0.0796871

>  <SCORE.SYSTEM>
0

>  <SCORE.SYSTEM.CONST>
0

>  <SCORE.SYSTEM.DIHEDRAL>
0

>  <SCORE.SYSTEM.SOLV>
0

>  <SCORE.SYSTEM.norm>
0

>  <SCORE.heavy>
42

>  <SCORE.norm>
4.01548

>  <RMSD>
29.383

$$$$
ligand
 OpenBabel11021811513D
libRbt.so/2013.1/901 2013/11/27
 42 48  0  0  0  0  0  0  0  0999 V2000
  -23.9117  -36.7042  -26.1194 P   0  0  2  0  0  0  0  0  0  0  0  0
  -19.1613  -37.7477  -24.7558 P   0  0  1  0  0  0  0  0  0  0  0  0
  -24.2477  -36.6399  -27.5911 O   0  5  0  0  0  0  0  0  0  0  0  0
  -19.7425  -37.2420  -23.4570 O   0  5  0  0  0  0  0  0  0  0  0  0
  -24.8715  -36.1346  -25.1024 O   0  0  0  0  0  0  0  0  0  0  0  0
  -17.8220  -38.4447  -24.7618 O   0  0  0  0  0  0  0  0  0  0  0  0
  -22.0699  -34.9122  -26.7136 C   0  0  0  0  0  0  0  0  0  0  0  0
  -20.6857  -39.8993  -24.7727 C   0  0  0  0  0  0  0  0  0  0  0  0
  -22.4753  -36.0117  -25.9002 O   0  0  0  0  0  0  0  0  0  0  0  0
  -20.2408  -38.7235  -25.4451 O   0  0  0  0  0  0  0  0  0  0  0  0
  -20.5535  -34.9253  -26.8659 C   0  0  1  0  0  0  0  0  0  0  0  0
  -22.2082  -39.9509  -24.7882 C   0  0  1  0  0  0  0  0  0  0  0  0
  -20.0911  -33.6135  -27.1988 O   0  0  0  0  0  0  0  0  0  0  0  0
  -22.6741  -40.7685  -23.7119 O   0  0  0  0  0  0  0  0  0  0  0  0
  -19.8737  -35.3442  -25.5733 C   0  0  1  0  0  0  0  0  0  0  0  0
  -22.8092  -38.5654  -24.6129 C   0  0  1  0  0  0  0  0  0  0  0  0
  -19.0914  -36.5147  -25.7896 O   0  0  0  0  0  0  0  0  0  0  0  0
  -23.6235  -38.2407  -25.7357 O   0  0  0  0  0  0  0  0  0  0  0  0
  -18.9788  -34.1889  -25.1649 C   0  0  0  0  0  0  0  0  0  0  0  0
  -23.6553  -38.6201  -23.3556 C   0  0  0  0  0  0  0  0  0  0  0  0
  -19.1605  -33.1194  -26.2317 C   0  0  2  0  0  0  0  0  0  0  0  0
  -23.5286  -40.0414  -22.8257 C   0  0  2  0  0  0  0  0  0  0  0  0
  -22.1207  -31.0689  -22.4093 N   0  0  0  0  0  0  0  0  0  0  0  0
  -21.8354  -32.3536  -22.6913 C   0  0  0  0  0  0  0  0  0  0  0  0
  -21.0522  -32.7378  -23.7161 N   0  0  0  0  0  0  0  0  0  0  0  0
  -20.4913  -31.8234  -24.5433 C   0  0  0  0  0  0  0  0  0  0  0  0
  -20.7558  -30.3967  -24.2999 C   0  0  0  0  0  0  0  0  0  0  0  0
  -21.6287  -30.0525  -23.1525 C   0  0  0  0  0  0  0  0  0  0  0  0
  -21.9225  -28.7631  -22.8580 N   0  0  0  0  0  0  0  0  0  0  0  0
  -20.0896  -29.7151  -25.2507 N   0  0  0  0  0  0  0  0  0  0  0  0
  -19.4545  -30.6238  -26.0343 C   0  0  0  0  0  0  0  0  0  0  0  0
  -19.6936  -31.8806  -25.6126 N   0  0  0  0  0  0  0  0  0  0  0  0
  -22.6735  -42.7036  -18.3812 N   0  0  0  0  0  0  0  0  0  0  0  0
  -23.3062  -43.0778  -19.5086 C   0  0  0  0  0  0  0  0  0  0  0  0
  -23.4526  -42.2817  -20.5831 N   0  0  0  0  0  0  0  0  0  0  0  0
  -22.9546  -41.0216  -20.5864 C   0  0  0  0  0  0  0  0  0  0  0  0
  -22.2487  -40.5387  -19.3895 C   0  0  0  0  0  0  0  0  0  0  0  0
  -22.1285  -41.4752  -18.2472 C   0  0  0  0  0  0  0  0  0  0  0  0
  -21.4930  -41.1103  -17.1066 N   0  0  0  0  0  0  0  0  0  0  0  0
  -21.8617  -39.2767  -19.6551 N   0  0  0  0  0  0  0  0  0  0  0  0
  -22.2832  -38.9779  -20.9109 C   0  0  0  0  0  0  0  0  0  0  0  0
  -22.9342  -40.0169  -21.4655 N   0  0  0  0  0  0  0  0  0  0  0  0
  1  3  1  6  0  0  0
  1  5  2  0  0  0  0
  1  9  1  0  0  0  0
  1 18  1  0  0  0  0
  2  4  1  1  0  0  0
  2  6  2  0  0  0  0
  2 10  1  0  0  0  0
  2 17  1  0  0  0  0
  7  9  1  0  0  0  0
  8 10  1  0  0  0  0
 11  7  1  1  0  0  0
 11 13  1  0  0  0  0
 11 15  1  0  0  0  0
 12  8  1  1  0  0  0
 12 14  1  0  0  0  0
 12 16  1  0  0  0  0
 13 21  1  0  0  0  0
 14 22  1  0  0  0  0
 15 17  1  6  0  0  0
 15 19  1  0  0  0  0
 16 18  1  6  0  0  0
 16 20  1  0  0  0  0
 19 21  1  0  0  0  0
 20 22  1  0  0  0  0
 21 32  1  1  0  0  0
 22 42  1  1  0  0  0
 23 24  2  0  0  0  0
 23 28  1  0  0  0  0
 24 25  1  0  0  0  0
 25 26  2  0  0  0  0
 26 27  1  0  0  0  0
 26 32  1  0  0  0  0
 27 28  2  0  0  0  0
 27 30  1  0  0  0  0
 28 29  1  0  0  0  0
 30 31  2  0  0  0  0
 31 32  1  0  0  0  0
 33 34  2  0  0  0  0
 33 38  1  0  0  0  0
 34 35  1  0  0  0  0
 35 36  2  0  0  0  0
 36 37  1  0  0  0  0
 36 42  1  0  0  0  0
 37 38  2  0  0  0  0
 37 40  1  0  0  0  0
 38 39  1  0  0  0  0
 40 41  2  0  0  0  0
 41 42  1  0  0  0  0
M  CHG  2   3  -1   4  -1
M  END
>  <CHROM.1>
87.80693469,-77.72118012,-21.56115651,-36.64793462,-23.83884997,0.09714816
-1.39151872,-1.92834467

>  <Name>
ligand

>  <RI>
0

>  <Rbt.Current_Directory>
/home/itssahil/PROJECTS/Mol_Feturizer/New_Systems/rnas/4QLN

>  <Rbt.Executable>
rbdock ($Id: //depot/dev/client3/rdock/2013.1/src/exe/rbdock.cxx#4 $)

>  <Rbt.Library>
libRbt.so (2013.1, Build901 2013/11/27)

>  <Rbt.Parameter_File>
/export/apps/rDock/src/rDock_2013.1_src/data/scripts/dock_solv.prm

>  <Rbt.Receptor>
prm/blind_docking_60.prm

>  <SCORE>
168.652

>  <SCORE.INTER>
163.436

>  <SCORE.INTER.CONST>
1

>  <SCORE.INTER.POLAR>
0

>  <SCORE.INTER.ROT>
2

>  <SCORE.INTER.SOLV>
50.4109

>  <SCORE.INTER.VDW>
87.2203

>  <SCORE.INTER.norm>
3.89133

>  <SCORE.INTRA>
1.86655

>  <SCORE.INTRA.DIHEDRAL>
-0.000193229

>  <SCORE.INTRA.DIHEDRAL.0>
2.39985

>  <SCORE.INTRA.POLAR>
0

>  <SCORE.INTRA.POLAR.0>
0

>  <SCORE.INTRA.REPUL>
0

>  <SCORE.INTRA.REPUL.0>
0

>  <SCORE.INTRA.SOLV>
-0.0752986

>  <SCORE.INTRA.SOLV.lig_0>
-110.958

>  <SCORE.INTRA.VDW>
1.90429

>  <SCORE.INTRA.VDW.0>
-2.34644

>  <SCORE.INTRA.norm>
0.0444416

>  <SCORE.RESTR>
3.34931

>  <SCORE.RESTR.CAVITY>
3.34931

>  <SCORE.RESTR.norm>
0.0797454

>  <SCORE.SYSTEM>
0

>  <SCORE.SYSTEM.CONST>
0

>  <SCORE.SYSTEM.DIHEDRAL>
0

>  <SCORE.SYSTEM.SOLV>
0

>  <SCORE.SYSTEM.norm>
0

>  <SCORE.heavy>
42

>  <SCORE.norm>
4.01552

>  <RMSD>
29.383

$$$$
ligand
 OpenBabel11021811513D
libRbt.so/2013.1/901 2013/11/27
 42 48  0  0  0  0  0  0  0  0999 V2000
  -23.9074  -36.7154  -26.1176 P   0  0  2  0  0  0  0  0  0  0  0  0
  -19.1564  -37.7530  -24.7518 P   0  0  1  0  0  0  0  0  0  0  0  0
  -24.2435  -36.6548  -27.5894 O   0  5  0  0  0  0  0  0  0  0  0  0
  -19.7378  -37.2444  -23.4542 O   0  5  0  0  0  0  0  0  0  0  0  0
  -24.8674  -36.1437  -25.1019 O   0  0  0  0  0  0  0  0  0  0  0  0
  -17.8168  -38.4493  -24.7561 O   0  0  0  0  0  0  0  0  0  0  0  0
  -22.0665  -34.9238  -26.7164 C   0  0  0  0  0  0  0  0  0  0  0  0
  -20.6796  -39.9054  -24.7632 C   0  0  0  0  0  0  0  0  0  0  0  0
  -22.4713  -36.0215  -25.9002 O   0  0  0  0  0  0  0  0  0  0  0  0
  -20.2354  -38.7311  -25.4386 O   0  0  0  0  0  0  0  0  0  0  0  0
  -20.5502  -34.9366  -26.8688 C   0  0  1  0  0  0  0  0  0  0  0  0
  -22.2022  -39.9579  -24.7784 C   0  0  1  0  0  0  0  0  0  0  0  0
  -20.0884  -33.6254  -27.2049 O   0  0  0  0  0  0  0  0  0  0  0  0
  -22.6676  -40.7730  -23.7001 O   0  0  0  0  0  0  0  0  0  0  0  0
  -19.8701  -35.3519  -25.5752 C   0  0  1  0  0  0  0  0  0  0  0  0
  -22.8039  -38.5722  -24.6066 C   0  0  1  0  0  0  0  0  0  0  0  0
  -19.0872  -36.5225  -25.7886 O   0  0  0  0  0  0  0  0  0  0  0  0
  -23.6184  -38.2507  -25.7301 O   0  0  0  0  0  0  0  0  0  0  0  0
  -18.9757  -34.1951  -25.1697 C   0  0  0  0  0  0  0  0  0  0  0  0
  -23.6498  -38.6242  -23.3490 C   0  0  0  0  0  0  0  0  0  0  0  0
  -19.1580  -33.1284  -26.2392 C   0  0  2  0  0  0  0  0  0  0  0  0
  -23.5224  -40.0441  -22.8157 C   0  0  2  0  0  0  0  0  0  0  0  0
  -22.1443  -31.0714  -22.4406 N   0  0  0  0  0  0  0  0  0  0  0  0
  -21.8616  -32.3568  -22.7219 C   0  0  0  0  0  0  0  0  0  0  0  0
  -21.0707  -32.7427  -23.7401 N   0  0  0  0  0  0  0  0  0  0  0  0
  -20.4988  -31.8294  -24.5609 C   0  0  0  0  0  0  0  0  0  0  0  0
  -20.7598  -30.4020  -24.3179 C   0  0  0  0  0  0  0  0  0  0  0  0
  -21.6415  -30.0559  -23.1779 C   0  0  0  0  0  0  0  0  0  0  0  0
  -21.9329  -28.7658  -22.8842 N   0  0  0  0  0  0  0  0  0  0  0  0
  -20.0823  -29.7218  -25.2617 N   0  0  0  0  0  0  0  0  0  0  0  0
  -19.4438  -30.6319  -26.0408 C   0  0  0  0  0  0  0  0  0  0  0  0
  -19.6918  -31.8883  -25.6231 N   0  0  0  0  0  0  0  0  0  0  0  0
  -22.6607  -42.6967  -18.3666 N   0  0  0  0  0  0  0  0  0  0  0  0
  -23.2927  -43.0743  -19.4934 C   0  0  0  0  0  0  0  0  0  0  0  0
  -23.4410  -42.2804  -20.5691 N   0  0  0  0  0  0  0  0  0  0  0  0
  -22.9459  -41.0191  -20.5747 C   0  0  0  0  0  0  0  0  0  0  0  0
  -22.2409  -40.5326  -19.3787 C   0  0  0  0  0  0  0  0  0  0  0  0
  -22.1186  -41.4669  -18.2348 C   0  0  0  0  0  0  0  0  0  0  0  0
  -21.4837  -41.0986  -17.0949 N   0  0  0  0  0  0  0  0  0  0  0  0
  -21.8569  -39.2702  -19.6465 N   0  0  0  0  0  0  0  0  0  0  0  0
  -22.2792  -38.9745  -20.9028 C   0  0  0  0  0  0  0  0  0  0  0  0
  -22.9278  -40.0160  -21.4556 N   0  0  0  0  0  0  0  0  0  0  0  0
  1  3  1  6  0  0  0
  1  5  2  0  0  0  0
  1  9  1  0  0  0  0
  1 18  1  0  0  0  0
  2  4  1  1  0  0  0
  2  6  2  0  0  0  0
  2 10  1  0  0  0  0
  2 17  1  0  0  0  0
  7  9  1  0  0  0  0
  8 10  1  0  0  0  0
 11  7  1  1  0  0  0
 11 13  1  0  0  0  0
 11 15  1  0  0  0  0
 12  8  1  1  0  0  0
 12 14  1  0  0  0  0
 12 16  1  0  0  0  0
 13 21  1  0  0  0  0
 14 22  1  0  0  0  0
 15 17  1  6  0  0  0
 15 19  1  0  0  0  0
 16 18  1  6  0  0  0
 16 20  1  0  0  0  0
 19 21  1  0  0  0  0
 20 22  1  0  0  0  0
 21 32  1  1  0  0  0
 22 42  1  1  0  0  0
 23 24  2  0  0  0  0
 23 28  1  0  0  0  0
 24 25  1  0  0  0  0
 25 26  2  0  0  0  0
 26 27  1  0  0  0  0
 26 32  1  0  0  0  0
 27 28  2  0  0  0  0
 27 30  1  0  0  0  0
 28 29  1  0  0  0  0
 30 31  2  0  0  0  0
 31 32  1  0  0  0  0
 33 34  2  0  0  0  0
 33 38  1  0  0  0  0
 34 35  1  0  0  0  0
 35 36  2  0  0  0  0
 36 37  1  0  0  0  0
 36 42  1  0  0  0  0
 37 38  2  0  0  0  0
 37 40  1  0  0  0  0
 38 39  1  0  0  0  0
 40 41  2  0  0  0  0
 41 42  1  0  0  0  0
M  CHG  2   3  -1   4  -1
M  END
>  <CHROM.1>
87.18501148,-77.61028537,-21.55840916,-36.65245349,-23.83908542,0.08159506
-1.39308756,-1.94689572

>  <Name>
ligand

>  <RI>
0

>  <Rbt.Current_Directory>
/home/itssahil/PROJECTS/Mol_Feturizer/New_Systems/rnas/4QLN

>  <Rbt.Executable>
rbdock ($Id: //depot/dev/client3/rdock/2013.1/src/exe/rbdock.cxx#4 $)

>  <Rbt.Library>
libRbt.so (2013.1, Build901 2013/11/27)

>  <Rbt.Parameter_File>
/export/apps/rDock/src/rDock_2013.1_src/data/scripts/dock_solv.prm

>  <Rbt.Receptor>
prm/blind_docking_60.prm

>  <SCORE>
168.809

>  <SCORE.INTER>
163.66

>  <SCORE.INTER.CONST>
1

>  <SCORE.INTER.POLAR>
0

>  <SCORE.INTER.ROT>
2

>  <SCORE.INTER.SOLV>
50.3608

>  <SCORE.INTER.VDW>
87.3867

>  <SCORE.INTER.norm>
3.89668

>  <SCORE.INTRA>
1.8362

>  <SCORE.INTRA.DIHEDRAL>
-0.000191717

>  <SCORE.INTRA.DIHEDRAL.0>
2.39985

>  <SCORE.INTRA.POLAR>
0

>  <SCORE.INTRA.POLAR.0>
0

>  <SCORE.INTRA.REPUL>
0

>  <SCORE.INTRA.REPUL.0>
0

>  <SCORE.INTRA.SOLV>
-0.0746494

>  <SCORE.INTRA.SOLV.lig_0>
-110.958

>  <SCORE.INTRA.VDW>
1.87362

>  <SCORE.INTRA.VDW.0>
-2.34644

>  <SCORE.INTRA.norm>
0.043719

>  <SCORE.RESTR>
3.31222

>  <SCORE.RESTR.CAVITY>
3.31222

>  <SCORE.RESTR.norm>
0.0788625

>  <SCORE.SYSTEM>
0

>  <SCORE.SYSTEM.CONST>
0

>  <SCORE.SYSTEM.DIHEDRAL>
0

>  <SCORE.SYSTEM.SOLV>
0

>  <SCORE.SYSTEM.norm>
0

>  <SCORE.heavy>
42

>  <SCORE.norm>
4.01926

>  <RMSD>
29.383

$$$$
ligand
 OpenBabel11021811513D
libRbt.so/2013.1/901 2013/11/27
 42 48  0  0  0  0  0  0  0  0999 V2000
  -23.9070  -36.7072  -26.1210 P   0  0  2  0  0  0  0  0  0  0  0  0
  -19.1573  -37.7505  -24.7548 P   0  0  1  0  0  0  0  0  0  0  0  0
  -24.2424  -36.6441  -27.5929 O   0  5  0  0  0  0  0  0  0  0  0  0
  -19.7389  -37.2435  -23.4567 O   0  5  0  0  0  0  0  0  0  0  0  0
  -24.8670  -36.1364  -25.1049 O   0  0  0  0  0  0  0  0  0  0  0  0
  -17.8182  -38.4478  -24.7597 O   0  0  0  0  0  0  0  0  0  0  0  0
  -22.0645  -34.9161  -26.7163 C   0  0  0  0  0  0  0  0  0  0  0  0
  -20.6822  -39.9017  -24.7703 C   0  0  0  0  0  0  0  0  0  0  0  0
  -22.4705  -36.0147  -25.9020 O   0  0  0  0  0  0  0  0  0  0  0  0
  -20.2368  -38.7267  -25.4436 O   0  0  0  0  0  0  0  0  0  0  0  0
  -20.5481  -34.9297  -26.8680 C   0  0  1  0  0  0  0  0  0  0  0  0
  -22.2047  -39.9530  -24.7862 C   0  0  1  0  0  0  0  0  0  0  0  0
  -20.0852  -33.6183  -27.2019 O   0  0  0  0  0  0  0  0  0  0  0  0
  -22.6713  -40.7695  -23.7094 O   0  0  0  0  0  0  0  0  0  0  0  0
  -19.8688  -35.3476  -25.5748 C   0  0  1  0  0  0  0  0  0  0  0  0
  -22.8055  -38.5672  -24.6125 C   0  0  1  0  0  0  0  0  0  0  0  0
  -19.0867  -36.5185  -25.7897 O   0  0  0  0  0  0  0  0  0  0  0  0
  -23.6192  -38.2433  -25.7359 O   0  0  0  0  0  0  0  0  0  0  0  0
  -18.9738  -34.1921  -25.1671 C   0  0  0  0  0  0  0  0  0  0  0  0
  -23.6520  -38.6205  -23.3554 C   0  0  0  0  0  0  0  0  0  0  0  0
  -19.1548  -33.1236  -26.2350 C   0  0  2  0  0  0  0  0  0  0  0  0
  -23.5259  -40.0413  -22.8242 C   0  0  2  0  0  0  0  0  0  0  0  0
  -22.1601  -31.0712  -22.4489 N   0  0  0  0  0  0  0  0  0  0  0  0
  -21.8806  -32.3565  -22.7339 C   0  0  0  0  0  0  0  0  0  0  0  0
  -21.0840  -32.7411  -23.7481 N   0  0  0  0  0  0  0  0  0  0  0  0
  -20.5024  -31.8266  -24.5607 C   0  0  0  0  0  0  0  0  0  0  0  0
  -20.7592  -30.3991  -24.3131 C   0  0  0  0  0  0  0  0  0  0  0  0
  -21.6478  -30.0545  -23.1779 C   0  0  0  0  0  0  0  0  0  0  0  0
  -21.9359  -28.7645  -22.8805 N   0  0  0  0  0  0  0  0  0  0  0  0
  -20.0722  -29.7175  -25.2489 N   0  0  0  0  0  0  0  0  0  0  0  0
  -19.4318  -30.6269  -26.0275 C   0  0  0  0  0  0  0  0  0  0  0  0
  -19.6879  -31.8840  -25.6172 N   0  0  0  0  0  0  0  0  0  0  0  0
  -22.6669  -42.7020  -18.3795 N   0  0  0  0  0  0  0  0  0  0  0  0
  -23.2984  -43.0775  -19.5072 C   0  0  0  0  0  0  0  0  0  0  0  0
  -23.4461  -42.2817  -20.5816 N   0  0  0  0  0  0  0  0  0  0  0  0
  -22.9506  -41.0205  -20.5847 C   0  0  0  0  0  0  0  0  0  0  0  0
  -22.2460  -40.5363  -19.3875 C   0  0  0  0  0  0  0  0  0  0  0  0
  -22.1244  -41.4726  -18.2453 C   0  0  0  0  0  0  0  0  0  0  0  0
  -21.4899  -41.1065  -17.1044 N   0  0  0  0  0  0  0  0  0  0  0  0
  -21.8615  -39.2735  -19.6530 N   0  0  0  0  0  0  0  0  0  0  0  0
  -22.2832  -38.9755  -20.9089 C   0  0  0  0  0  0  0  0  0  0  0  0
  -22.9319  -40.0158  -21.4638 N   0  0  0  0  0  0  0  0  0  0  0  0
  1  3  1  6  0  0  0
  1  5  2  0  0  0  0
  1  9  1  0  0  0  0
  1 18  1  0  0  0  0
  2  4  1  1  0  0  0
  2  6  2  0  0  0  0
  2 10  1  0  0  0  0
  2 17  1  0  0  0  0
  7  9  1  0  0  0  0
  8 10  1  0  0  0  0
 11  7  1  1  0  0  0
 11 13  1  0  0  0  0
 11 15  1  0  0  0  0
 12  8  1  1  0  0  0
 12 14  1  0  0  0  0
 12 16  1  0  0  0  0
 13 21  1  0  0  0  0
 14 22  1  0  0  0  0
 15 17  1  6  0  0  0
 15 19  1  0  0  0  0
 16 18  1  6  0  0  0
 16 20  1  0  0  0  0
 19 21  1  0  0  0  0
 20 22  1  0  0  0  0
 21 32  1  1  0  0  0
 22 42  1  1  0  0  0
 23 24  2  0  0  0  0
 23 28  1  0  0  0  0
 24 25  1  0  0  0  0
 25 26  2  0  0  0  0
 26 27  1  0  0  0  0
 26 32  1  0  0  0  0
 27 28  2  0  0  0  0
 27 30  1  0  0  0  0
 28 29  1  0  0  0  0
 30 31  2  0  0  0  0
 31 32  1  0  0  0  0
 33 34  2  0  0  0  0
 33 38  1  0  0  0  0
 34 35  1  0  0  0  0
 35 36  2  0  0  0  0
 36 37  1  0  0  0  0
 36 42  1  0  0  0  0
 37 38  2  0  0  0  0
 37 40  1  0  0  0  0
 38 39  1  0  0  0  0
 40 41  2  0  0  0  0
 41 42  1  0  0  0  0
M  CHG  2   3  -1   4  -1
M  END
>  <CHROM.1>
86.71814707,-77.58072293,-21.56034520,-36.64969211,-23.84267971,0.06849557
-1.39290847,-1.95888904

>  <Name>
ligand

>  <RI>
0

>  <Rbt.Current_Directory>
/home/itssahil/PROJECTS/Mol_Feturizer/New_Systems/rnas/4QLN

>  <Rbt.Executable>
rbdock ($Id: //depot/dev/client3/rdock/2013.1/src/exe/rbdock.cxx#4 $)

>  <Rbt.Library>
libRbt.so (2013.1, Build901 2013/11/27)

>  <Rbt.Parameter_File>
/export/apps/rDock/src/rDock_2013.1_src/data/scripts/dock_solv.prm

>  <Rbt.Receptor>
prm/blind_docking_60.prm

>  <SCORE>
168.737

>  <SCORE.INTER>
163.591

>  <SCORE.INTER.CONST>
1

>  <SCORE.INTER.POLAR>
0

>  <SCORE.INTER.ROT>
2

>  <SCORE.INTER.SOLV>
50.3214

>  <SCORE.INTER.VDW>
87.3538

>  <SCORE.INTER.norm>
3.89503

>  <SCORE.INTRA>
1.81266

>  <SCORE.INTRA.DIHEDRAL>
-0.000192031

>  <SCORE.INTRA.DIHEDRAL.0>
2.39985

>  <SCORE.INTRA.POLAR>
0

>  <SCORE.INTRA.POLAR.0>
0

>  <SCORE.INTRA.REPUL>
0

>  <SCORE.INTRA.REPUL.0>
0

>  <SCORE.INTRA.SOLV>
-0.0740158

>  <SCORE.INTRA.SOLV.lig_0>
-110.958

>  <SCORE.INTRA.VDW>
1.84977

>  <SCORE.INTRA.VDW.0>
-2.34644

>  <SCORE.INTRA.norm>
0.0431586

>  <SCORE.RESTR>
3.3329

>  <SCORE.RESTR.CAVITY>
3.3329

>  <SCORE.RESTR.norm>
0.0793547

>  <SCORE.SYSTEM>
0

>  <SCORE.SYSTEM.CONST>
0

>  <SCORE.SYSTEM.DIHEDRAL>
0

>  <SCORE.SYSTEM.SOLV>
0

>  <SCORE.SYSTEM.norm>
0

>  <SCORE.heavy>
42

>  <SCORE.norm>
4.01755

>  <RMSD>
29.385

$$$$
ligand
 OpenBabel11021811513D
libRbt.so/2013.1/901 2013/11/27
 42 48  0  0  0  0  0  0  0  0999 V2000
  -23.9330  -36.7526  -26.1023 P   0  0  2  0  0  0  0  0  0  0  0  0
  -19.1768  -37.8026  -24.7645 P   0  0  1  0  0  0  0  0  0  0  0  0
  -24.2779  -36.6923  -27.5721 O   0  5  0  0  0  0  0  0  0  0  0  0
  -19.7488  -37.2913  -23.4638 O   0  5  0  0  0  0  0  0  0  0  0  0
  -24.8852  -36.1773  -25.0813 O   0  0  0  0  0  0  0  0  0  0  0  0
  -17.8392  -38.5027  -24.7764 O   0  0  0  0  0  0  0  0  0  0  0  0
  -22.0907  -34.9668  -26.7138 C   0  0  0  0  0  0  0  0  0  0  0  0
  -20.7062  -39.9507  -24.7648 C   0  0  0  0  0  0  0  0  0  0  0  0
  -22.4937  -36.0627  -25.8942 O   0  0  0  0  0  0  0  0  0  0  0  0
  -20.2627  -38.7782  -25.4439 O   0  0  0  0  0  0  0  0  0  0  0  0
  -20.5754  -34.9840  -26.8754 C   0  0  1  0  0  0  0  0  0  0  0  0
  -22.2289  -39.9988  -24.7707 C   0  0  1  0  0  0  0  0  0  0  0  0
  -20.1120  -33.6744  -27.2154 O   0  0  0  0  0  0  0  0  0  0  0  0
  -22.6901  -40.8117  -23.6889 O   0  0  0  0  0  0  0  0  0  0  0  0
  -19.8886  -35.4002  -25.5856 C   0  0  1  0  0  0  0  0  0  0  0  0
  -22.8256  -38.6113  -24.5964 C   0  0  1  0  0  0  0  0  0  0  0  0
  -19.1104  -36.5732  -25.8028 O   0  0  0  0  0  0  0  0  0  0  0  0
  -23.6460  -38.2884  -25.7153 O   0  0  0  0  0  0  0  0  0  0  0  0
  -18.9885  -34.2456  -25.1865 C   0  0  0  0  0  0  0  0  0  0  0  0
  -23.6640  -38.6599  -23.3337 C   0  0  0  0  0  0  0  0  0  0  0  0
  -19.1743  -33.1793  -26.2558 C   0  0  2  0  0  0  0  0  0  0  0  0
  -23.5374  -40.0796  -22.8000 C   0  0  2  0  0  0  0  0  0  0  0  0
  -22.0482  -31.1053  -22.3805 N   0  0  0  0  0  0  0  0  0  0  0  0
  -21.7602  -32.3910  -22.6547 C   0  0  0  0  0  0  0  0  0  0  0  0
  -21.0014  -32.7816  -23.6953 N   0  0  0  0  0  0  0  0  0  0  0  0
  -20.4702  -31.8731  -24.5481 C   0  0  0  0  0  0  0  0  0  0  0  0
  -20.7396  -30.4456  -24.3148 C   0  0  0  0  0  0  0  0  0  0  0  0
  -21.5843  -30.0942  -23.1487 C   0  0  0  0  0  0  0  0  0  0  0  0
  -21.8806  -28.8037  -22.8619 N   0  0  0  0  0  0  0  0  0  0  0  0
  -20.1044  -29.7705  -25.2912 N   0  0  0  0  0  0  0  0  0  0  0  0
  -19.4831  -30.6838  -26.0805 C   0  0  0  0  0  0  0  0  0  0  0  0
  -19.7007  -31.9371  -25.6376 N   0  0  0  0  0  0  0  0  0  0  0  0
  -22.6401  -42.7374  -18.3611 N   0  0  0  0  0  0  0  0  0  0  0  0
  -23.2778  -43.1150  -19.4845 C   0  0  0  0  0  0  0  0  0  0  0  0
  -23.4352  -42.3197  -20.5580 N   0  0  0  0  0  0  0  0  0  0  0  0
  -22.9440  -41.0569  -20.5643 C   0  0  0  0  0  0  0  0  0  0  0  0
  -22.2332  -40.5703  -19.3719 C   0  0  0  0  0  0  0  0  0  0  0  0
  -22.1009  -41.5062  -18.2304 C   0  0  0  0  0  0  0  0  0  0  0  0
  -21.4601  -41.1379  -17.0938 N   0  0  0  0  0  0  0  0  0  0  0  0
  -21.8548  -39.3062  -19.6398 N   0  0  0  0  0  0  0  0  0  0  0  0
  -22.2857  -39.0096  -20.8929 C   0  0  0  0  0  0  0  0  0  0  0  0
  -22.9346  -40.0521  -21.4435 N   0  0  0  0  0  0  0  0  0  0  0  0
  1  3  1  6  0  0  0
  1  5  2  0  0  0  0
  1  9  1  0  0  0  0
  1 18  1  0  0  0  0
  2  4  1  1  0  0  0
  2  6  2  0  0  0  0
  2 10  1  0  0  0  0
  2 17  1  0  0  0  0
  7  9  1  0  0  0  0
  8 10  1  0  0  0  0
 11  7  1  1  0  0  0
 11 13  1  0  0  0  0
 11 15  1  0  0  0  0
 12  8  1  1  0  0  0
 12 14  1  0  0  0  0
 12 16  1  0  0  0  0
 13 21  1  0  0  0  0
 14 22  1  0  0  0  0
 15 17  1  6  0  0  0
 15 19  1  0  0  0  0
 16 18  1  6  0  0  0
 16 20  1  0  0  0  0
 19 21  1  0  0  0  0
 20 22  1  0  0  0  0
 21 32  1  1  0  0  0
 22 42  1  1  0  0  0
 23 24  2  0  0  0  0
 23 28  1  0  0  0  0
 24 25  1  0  0  0  0
 25 26  2  0  0  0  0
 26 27  1  0  0  0  0
 26 32  1  0  0  0  0
 27 28  2  0  0  0  0
 27 30  1  0  0  0  0
 28 29  1  0  0  0  0
 30 31  2  0  0  0  0
 31 32  1  0  0  0  0
 33 34  2  0  0  0  0
 33 38  1  0  0  0  0
 34 35  1  0  0  0  0
 35 36  2  0  0  0  0
 36 37  1  0  0  0  0
 36 42  1  0  0  0  0
 37 38  2  0  0  0  0
 37 40  1  0  0  0  0
 38 39  1  0  0  0  0
 40 41  2  0  0  0  0
 41 42  1  0  0  0  0
M  CHG  2   3  -1   4  -1
M  END
>  <CHROM.1>
89.21210223,-77.23844986,-21.56187238,-36.69455345,-23.83377860,0.18236892
-1.38953390,-1.84471567

>  <Name>
ligand

>  <RI>
0

>  <Rbt.Current_Directory>
/home/itssahil/PROJECTS/Mol_Feturizer/New_Systems/rnas/4QLN

>  <Rbt.Executable>
rbdock ($Id: //depot/dev/client3/rdock/2013.1/src/exe/rbdock.cxx#4 $)

>  <Rbt.Library>
libRbt.so (2013.1, Build901 2013/11/27)

>  <Rbt.Parameter_File>
/export/apps/rDock/src/rDock_2013.1_src/data/scripts/dock_solv.prm

>  <Rbt.Receptor>
prm/blind_docking_80.prm

>  <SCORE>
180.34

>  <SCORE.INTER>
164.623

>  <SCORE.INTER.CONST>
1

>  <SCORE.INTER.POLAR>
0

>  <SCORE.INTER.ROT>
2

>  <SCORE.INTER.SOLV>
50.9578

>  <SCORE.INTER.VDW>
87.8292

>  <SCORE.INTER.norm>
3.91959

>  <SCORE.INTRA>
1.94864

>  <SCORE.INTRA.DIHEDRAL>
-0.00018014

>  <SCORE.INTRA.DIHEDRAL.0>
2.39985

>  <SCORE.INTRA.POLAR>
0

>  <SCORE.INTRA.POLAR.0>
0

>  <SCORE.INTRA.REPUL>
0

>  <SCORE.INTRA.REPUL.0>
0

>  <SCORE.INTRA.SOLV>
-0.0788083

>  <SCORE.INTRA.SOLV.lig_0>
-110.958

>  <SCORE.INTRA.VDW>
1.98814

>  <SCORE.INTRA.VDW.0>
-2.34644

>  <SCORE.INTRA.norm>
0.0463962

>  <SCORE.RESTR>
13.7685

>  <SCORE.RESTR.CAVITY>
13.7685

>  <SCORE.RESTR.norm>
0.327823

>  <SCORE.SYSTEM>
0

>  <SCORE.SYSTEM.CONST>
0

>  <SCORE.SYSTEM.DIHEDRAL>
0

>  <SCORE.SYSTEM.SOLV>
0

>  <SCORE.SYSTEM.norm>
0

>  <SCORE.heavy>
42

>  <SCORE.norm>
4.29381

>  <RMSD>
29.386

$$$$
ligand
 OpenBabel11021811513D
libRbt.so/2013.1/901 2013/11/27
 42 48  0  0  0  0  0  0  0  0999 V2000
  -18.7018  -37.8273  -26.0000 P   0  0  2  0  0  0  0  0  0  0  0  0
  -23.3403  -35.8277  -25.9891 P   0  0  1  0  0  0  0  0  0  0  0  0
  -18.4158  -38.9941  -26.9164 O   0  5  0  0  0  0  0  0  0  0  0  0
  -22.7490  -35.2219  -24.7386 O   0  5  0  0  0  0  0  0  0  0  0  0
  -17.7451  -37.4982  -24.8792 O   0  0  0  0  0  0  0  0  0  0  0  0
  -24.6370  -35.2915  -26.5462 O   0  0  0  0  0  0  0  0  0  0  0  0
  -20.6606  -39.3408  -25.0893 C   0  0  0  0  0  0  0  0  0  0  0  0
  -21.6966  -34.5164  -27.5805 C   0  0  0  0  0  0  0  0  0  0  0  0
  -20.1680  -38.0314  -25.3679 O   0  0  0  0  0  0  0  0  0  0  0  0
  -22.2286  -35.7680  -27.1524 O   0  0  0  0  0  0  0  0  0  0  0  0
  -22.1777  -39.3539  -25.2339 C   0  0  1  0  0  0  0  0  0  0  0  0
  -20.1748  -34.5869  -27.5952 C   0  0  1  0  0  0  0  0  0  0  0  0
  -22.7245  -40.4392  -24.4798 O   0  0  0  0  0  0  0  0  0  0  0  0
  -19.6298  -33.2696  -27.4872 O   0  0  0  0  0  0  0  0  0  0  0  0
  -22.7921  -38.0671  -24.7096 C   0  0  1  0  0  0  0  0  0  0  0  0
  -19.6489  -35.4045  -26.4262 C   0  0  1  0  0  0  0  0  0  0  0  0
  -23.5125  -37.4108  -25.7484 O   0  0  0  0  0  0  0  0  0  0  0  0
  -18.8897  -36.5102  -26.9060 O   0  0  0  0  0  0  0  0  0  0  0  0
  -23.7385  -38.4669  -23.5930 C   0  0  0  0  0  0  0  0  0  0  0  0
  -18.7626  -34.4770  -25.6176 C   0  0  0  0  0  0  0  0  0  0  0  0
  -23.6514  -39.9825  -23.4912 C   0  0  2  0  0  0  0  0  0  0  0  0
  -18.7913  -33.1359  -26.3369 C   0  0  2  0  0  0  0  0  0  0  0  0
  -23.3545  -38.6568  -18.4184 N   0  0  0  0  0  0  0  0  0  0  0  0
  -23.9165  -38.0063  -19.4538 C   0  0  0  0  0  0  0  0  0  0  0  0
  -23.9169  -38.4705  -20.7170 N   0  0  0  0  0  0  0  0  0  0  0  0
  -23.3341  -39.6545  -21.0227 C   0  0  0  0  0  0  0  0  0  0  0  0
  -22.6978  -40.4264  -19.9438 C   0  0  0  0  0  0  0  0  0  0  0  0
  -22.7378  -39.8491  -18.5792 C   0  0  0  0  0  0  0  0  0  0  0  0
  -22.1764  -40.4948  -17.5287 N   0  0  0  0  0  0  0  0  0  0  0  0
  -22.2039  -41.5432  -20.5106 N   0  0  0  0  0  0  0  0  0  0  0  0
  -22.4972  -41.4920  -21.8352 C   0  0  0  0  0  0  0  0  0  0  0  0
  -23.1711  -40.3665  -22.1406 N   0  0  0  0  0  0  0  0  0  0  0  0
  -22.8730  -31.6120  -23.4061 N   0  0  0  0  0  0  0  0  0  0  0  0
  -22.7088  -32.7165  -24.1574 C   0  0  0  0  0  0  0  0  0  0  0  0
  -21.5955  -32.9806  -24.8649 N   0  0  0  0  0  0  0  0  0  0  0  0
  -20.5481  -32.1210  -24.8574 C   0  0  0  0  0  0  0  0  0  0  0  0
  -20.6512  -30.8899  -24.0588 C   0  0  0  0  0  0  0  0  0  0  0  0
  -21.9096  -30.6708  -23.3072 C   0  0  0  0  0  0  0  0  0  0  0  0
  -22.0867  -29.5628  -22.5464 N   0  0  0  0  0  0  0  0  0  0  0  0
  -19.4914  -30.2265  -24.2247 N   0  0  0  0  0  0  0  0  0  0  0  0
  -18.7145  -30.9672  -25.0564 C   0  0  0  0  0  0  0  0  0  0  0  0
  -19.3438  -32.0955  -25.4334 N   0  0  0  0  0  0  0  0  0  0  0  0
  1  3  1  6  0  0  0
  1  5  2  0  0  0  0
  1  9  1  0  0  0  0
  1 18  1  0  0  0  0
  2  4  1  1  0  0  0
  2  6  2  0  0  0  0
  2 10  1  0  0  0  0
  2 17  1  0  0  0  0
  7  9  1  0  0  0  0
  8 10  1  0  0  0  0
 11  7  1  1  0  0  0
 11 13  1  0  0  0  0
 11 15  1  0  0  0  0
 12  8  1  1  0  0  0
 12 14  1  0  0  0  0
 12 16  1  0  0  0  0
 13 21  1  0  0  0  0
 14 22  1  0  0  0  0
 15 17  1  6  0  0  0
 15 19  1  0  0  0  0
 16 18  1  6  0  0  0
 16 20  1  0  0  0  0
 19 21  1  0  0  0  0
 20 22  1  0  0  0  0
 21 32  1  1  0  0  0
 22 42  1  1  0  0  0
 23 24  2  0  0  0  0
 23 28  1  0  0  0  0
 24 25  1  0  0  0  0
 25 26  2  0  0  0  0
 26 27  1  0  0  0  0
 26 32  1  0  0  0  0
 27 28  2  0  0  0  0
 27 30  1  0  0  0  0
 28 29  1  0  0  0  0
 30 31  2  0  0  0  0
 31 32  1  0  0  0  0
 33 34  2  0  0  0  0
 33 38  1  0  0  0  0
 34 35  1  0  0  0  0
 35 36  2  0  0  0  0
 36 37  1  0  0  0  0
 36 42  1  0  0  0  0
 37 38  2  0  0  0  0
 37 40  1  0  0  0  0
 38 39  1  0  0  0  0
 40 41  2  0  0  0  0
 41 42  1  0  0  0  0
M  CHG  2   3  -1   4  -1
M  END
>  <CHROM.1>
145.72093451,60.09824219,-21.48735903,-36.30840536,-24.26136673,-0.97939857
-1.06939479,3.13759502

>  <Name>
ligand

>  <RI>
0

>  <Rbt.Current_Directory>
/home/itssahil/PROJECTS/Mol_Feturizer/New_Systems/rnas/4QLN

>  <Rbt.Executable>
rbdock ($Id: //depot/dev/client3/rdock/2013.1/src/exe/rbdock.cxx#4 $)

>  <Rbt.Library>
libRbt.so (2013.1, Build901 2013/11/27)

>  <Rbt.Parameter_File>
/export/apps/rDock/src/rDock_2013.1_src/data/scripts/dock_solv.prm

>  <Rbt.Receptor>
prm/blind_docking_60.prm

>  <SCORE>
163.556

>  <SCORE.INTER>
156.453

>  <SCORE.INTER.CONST>
1

>  <SCORE.INTER.POLAR>
0

>  <SCORE.INTER.ROT>
2

>  <SCORE.INTER.SOLV>
42.7667

>  <SCORE.INTER.VDW>
85.1131

>  <SCORE.INTER.norm>
3.72507

>  <SCORE.INTRA>
2.40731

>  <SCORE.INTRA.DIHEDRAL>
-0.000102249

>  <SCORE.INTRA.DIHEDRAL.0>
2.39985

>  <SCORE.INTRA.POLAR>
0

>  <SCORE.INTRA.POLAR.0>
0

>  <SCORE.INTRA.REPUL>
0

>  <SCORE.INTRA.REPUL.0>
0

>  <SCORE.INTRA.SOLV>
1.21595

>  <SCORE.INTRA.SOLV.lig_0>
-110.958

>  <SCORE.INTRA.VDW>
1.79938

>  <SCORE.INTRA.VDW.0>
-2.34644

>  <SCORE.INTRA.norm>
0.0573168

>  <SCORE.RESTR>
4.69536

>  <SCORE.RESTR.CAVITY>
4.69536

>  <SCORE.RESTR.norm>
0.111794

>  <SCORE.SYSTEM>
0

>  <SCORE.SYSTEM.CONST>
0

>  <SCORE.SYSTEM.DIHEDRAL>
0

>  <SCORE.SYSTEM.SOLV>
0

>  <SCORE.SYSTEM.norm>
0

>  <SCORE.heavy>
42

>  <SCORE.norm>
3.89418

>  <RMSD>
29.410

$$$$
ligand
 OpenBabel11021811513D
libRbt.so/2013.1/901 2013/11/27
 42 48  0  0  0  0  0  0  0  0999 V2000
  -18.4589  -26.3513   -6.2696 P   0  0  2  0  0  0  0  0  0  0  0  0
  -18.7133  -22.0274   -3.6710 P   0  0  1  0  0  0  0  0  0  0  0  0
  -18.9609  -26.3732   -7.6946 O   0  5  0  0  0  0  0  0  0  0  0  0
  -18.4423  -23.0243   -2.5696 O   0  5  0  0  0  0  0  0  0  0  0  0
  -18.2177  -27.6491   -5.5363 O   0  0  0  0  0  0  0  0  0  0  0  0
  -18.5910  -20.5479   -3.3957 O   0  0  0  0  0  0  0  0  0  0  0  0
  -20.8644  -25.4335   -5.6967 C   0  0  0  0  0  0  0  0  0  0  0  0
  -16.3470  -22.3832   -4.7788 C   0  0  0  0  0  0  0  0  0  0  0  0
  -19.4708  -25.4576   -5.3931 O   0  0  0  0  0  0  0  0  0  0  0  0
  -17.7655  -22.3878   -4.9217 O   0  0  0  0  0  0  0  0  0  0  0  0
  -21.4444  -24.0776   -5.3124 C   0  0  1  0  0  0  0  0  0  0  0  0
  -15.7739  -23.6813   -5.3333 C   0  0  1  0  0  0  0  0  0  0  0  0
  -22.8548  -24.1971   -5.1077 O   0  0  0  0  0  0  0  0  0  0  0  0
  -14.4989  -23.9381   -4.7399 O   0  0  0  0  0  0  0  0  0  0  0  0
  -20.8293  -23.5609   -4.0229 C   0  0  1  0  0  0  0  0  0  0  0  0
  -16.6786  -24.8624   -5.0198 C   0  0  1  0  0  0  0  0  0  0  0  0
  -20.1877  -22.3104   -4.2542 O   0  0  0  0  0  0  0  0  0  0  0  0
  -17.1009  -25.4883   -6.2277 O   0  0  0  0  0  0  0  0  0  0  0  0
  -21.9734  -23.3846   -3.0418 C   0  0  0  0  0  0  0  0  0  0  0  0
  -15.8519  -25.8294   -4.1945 C   0  0  0  0  0  0  0  0  0  0  0  0
  -23.2324  -23.8062   -3.7848 C   0  0  2  0  0  0  0  0  0  0  0  0
  -14.4794  -25.1884   -4.0466 C   0  0  2  0  0  0  0  0  0  0  0  0
  -23.1534  -28.9875   -2.9323 N   0  0  0  0  0  0  0  0  0  0  0  0
  -22.3523  -28.2213   -3.6955 C   0  0  0  0  0  0  0  0  0  0  0  0
  -22.4915  -26.8888   -3.8222 N   0  0  0  0  0  0  0  0  0  0  0  0
  -23.4755  -26.2272   -3.1672 C   0  0  0  0  0  0  0  0  0  0  0  0
  -24.3932  -26.9957   -2.3117 C   0  0  0  0  0  0  0  0  0  0  0  0
  -24.1763  -28.4593   -2.2236 C   0  0  0  0  0  0  0  0  0  0  0  0
  -24.9754  -29.2410   -1.4581 N   0  0  0  0  0  0  0  0  0  0  0  0
  -25.2612  -26.1103   -1.7872 N   0  0  0  0  0  0  0  0  0  0  0  0
  -24.9298  -24.8831   -2.2642 C   0  0  0  0  0  0  0  0  0  0  0  0
  -23.8653  -24.9526   -3.0865 N   0  0  0  0  0  0  0  0  0  0  0  0
  -14.0611  -21.6595   -0.1808 N   0  0  0  0  0  0  0  0  0  0  0  0
  -14.3733  -21.4912   -1.4791 C   0  0  0  0  0  0  0  0  0  0  0  0
  -14.4444  -22.4988   -2.3675 N   0  0  0  0  0  0  0  0  0  0  0  0
  -14.1978  -23.7763   -1.9895 C   0  0  0  0  0  0  0  0  0  0  0  0
  -13.8499  -24.0419   -0.5850 C   0  0  0  0  0  0  0  0  0  0  0  0
  -13.7922  -22.8794    0.3324 C   0  0  0  0  0  0  0  0  0  0  0  0
  -13.4797  -23.0361    1.6423 N   0  0  0  0  0  0  0  0  0  0  0  0
  -13.6591  -25.3707   -0.4815 N   0  0  0  0  0  0  0  0  0  0  0  0
  -13.8662  -25.9083   -1.7112 C   0  0  0  0  0  0  0  0  0  0  0  0
  -14.1868  -24.9588   -2.6093 N   0  0  0  0  0  0  0  0  0  0  0  0
  1  3  1  6  0  0  0
  1  5  2  0  0  0  0
  1  9  1  0  0  0  0
  1 18  1  0  0  0  0
  2  4  1  1  0  0  0
  2  6  2  0  0  0  0
  2 10  1  0  0  0  0
  2 17  1  0  0  0  0
  7  9  1  0  0  0  0
  8 10  1  0  0  0  0
 11  7  1  1  0  0  0
 11 13  1  0  0  0  0
 11 15  1  0  0  0  0
 12  8  1  1  0  0  0
 12 14  1  0  0  0  0
 12 16  1  0  0  0  0
 13 21  1  0  0  0  0
 14 22  1  0  0  0  0
 15 17  1  6  0  0  0
 15 19  1  0  0  0  0
 16 18  1  6  0  0  0
 16 20  1  0  0  0  0
 19 21  1  0  0  0  0
 20 22  1  0  0  0  0
 21 32  1  1  0  0  0
 22 42  1  1  0  0  0
 23 24  2  0  0  0  0
 23 28  1  0  0  0  0
 24 25  1  0  0  0  0
 25 26  2  0  0  0  0
 26 27  1  0  0  0  0
 26 32  1  0  0  0  0
 27 28  2  0  0  0  0
 27 30  1  0  0  0  0
 28 29  1  0  0  0  0
 30 31  2  0  0  0  0
 31 32  1  0  0  0  0
 33 34  2  0  0  0  0
 33 38  1  0  0  0  0
 34 35  1  0  0  0  0
 35 36  2  0  0  0  0
 36 37  1  0  0  0  0
 36 42  1  0  0  0  0
 37 38  2  0  0  0  0
 37 40  1  0  0  0  0
 38 39  1  0  0  0  0
 40 41  2  0  0  0  0
 41 42  1  0  0  0  0
M  CHG  2   3  -1   4  -1
M  END
>  <CHROM.1>
39.37520426,12.20454902,-18.78084332,-24.66550706,-3.53809176,-2.88158443
0.23404159,1.12367885

>  <Name>
ligand

>  <RI>
0

>  <Rbt.Current_Directory>
/home/itssahil/PROJECTS/Mol_Feturizer/New_Systems/rnas/4QLN

>  <Rbt.Executable>
rbdock ($Id: //depot/dev/client3/rdock/2013.1/src/exe/rbdock.cxx#4 $)

>  <Rbt.Library>
libRbt.so (2013.1, Build901 2013/11/27)

>  <Rbt.Parameter_File>
/export/apps/rDock/src/rDock_2013.1_src/data/scripts/dock_solv.prm

>  <Rbt.Receptor>
prm/blind_docking_80.prm

>  <SCORE>
19.8928

>  <SCORE.INTER>
1.92613

>  <SCORE.INTER.CONST>
1

>  <SCORE.INTER.POLAR>
0

>  <SCORE.INTER.ROT>
2

>  <SCORE.INTER.SOLV>
34.8583

>  <SCORE.INTER.VDW>
-15.2687

>  <SCORE.INTER.norm>
0.0458603

>  <SCORE.INTRA>
-0.304875

>  <SCORE.INTRA.DIHEDRAL>
-0.000529751

>  <SCORE.INTRA.DIHEDRAL.0>
2.39985

>  <SCORE.INTRA.POLAR>
0

>  <SCORE.INTRA.POLAR.0>
0

>  <SCORE.INTRA.REPUL>
0

>  <SCORE.INTRA.REPUL.0>
0

>  <SCORE.INTRA.SOLV>
0.0292893

>  <SCORE.INTRA.SOLV.lig_0>
-110.958

>  <SCORE.INTRA.VDW>
-0.319255

>  <SCORE.INTRA.VDW.0>
-2.34644

>  <SCORE.INTRA.norm>
-0.00725893

>  <SCORE.RESTR>
18.2715

>  <SCORE.RESTR.CAVITY>
18.2715

>  <SCORE.RESTR.norm>
0.435036

>  <SCORE.SYSTEM>
0

>  <SCORE.SYSTEM.CONST>
0

>  <SCORE.SYSTEM.DIHEDRAL>
0

>  <SCORE.SYSTEM.SOLV>
0

>  <SCORE.SYSTEM.norm>
0

>  <SCORE.heavy>
42

>  <SCORE.norm>
0.473638

>  <RMSD>
29.423

$$$$
ligand
 OpenBabel11021811513D
libRbt.so/2013.1/901 2013/11/27
 42 48  0  0  0  0  0  0  0  0999 V2000
  -18.8033  -37.5859  -25.7092 P   0  0  2  0  0  0  0  0  0  0  0  0
  -23.6177  -36.0706  -25.9083 P   0  0  1  0  0  0  0  0  0  0  0  0
  -18.3774  -38.7652  -26.5523 O   0  5  0  0  0  0  0  0  0  0  0  0
  -23.1237  -35.3414  -24.6817 O   0  5  0  0  0  0  0  0  0  0  0  0
  -17.9146  -37.1013  -24.5888 O   0  0  0  0  0  0  0  0  0  0  0  0
  -24.9465  -35.6999  -26.5217 O   0  0  0  0  0  0  0  0  0  0  0  0
  -20.6238  -39.2395  -24.7561 C   0  0  0  0  0  0  0  0  0  0  0  0
  -22.0723  -34.6867  -27.5361 C   0  0  0  0  0  0  0  0  0  0  0  0
  -20.2579  -37.9036  -25.0975 O   0  0  0  0  0  0  0  0  0  0  0  0
  -22.4872  -35.9609  -27.0495 O   0  0  0  0  0  0  0  0  0  0  0  0
  -22.1275  -39.4146  -24.9315 C   0  0  1  0  0  0  0  0  0  0  0  0
  -20.5513  -34.6027  -27.5148 C   0  0  1  0  0  0  0  0  0  0  0  0
  -22.5825  -40.5076  -24.1292 O   0  0  0  0  0  0  0  0  0  0  0  0
  -20.1443  -33.2330  -27.4697 O   0  0  0  0  0  0  0  0  0  0  0  0
  -22.8817  -38.1705  -24.4935 C   0  0  1  0  0  0  0  0  0  0  0  0
  -19.9772  -35.2984  -26.2909 C   0  0  1  0  0  0  0  0  0  0  0  0
  -23.6365  -37.6478  -25.5825 O   0  0  0  0  0  0  0  0  0  0  0  0
  -19.0983  -36.3455  -26.6916 O   0  0  0  0  0  0  0  0  0  0  0  0
  -23.8126  -38.6038  -23.3762 C   0  0  0  0  0  0  0  0  0  0  0  0
  -19.2103  -34.2434  -25.5174 C   0  0  0  0  0  0  0  0  0  0  0  0
  -23.5765  -40.0949  -23.1875 C   0  0  2  0  0  0  0  0  0  0  0  0
  -19.3543  -32.9529  -26.3115 C   0  0  2  0  0  0  0  0  0  0  0  0
  -23.3365  -38.3451  -18.2419 N   0  0  0  0  0  0  0  0  0  0  0  0
  -23.9059  -37.7951  -19.3302 C   0  0  0  0  0  0  0  0  0  0  0  0
  -23.8893  -38.3629  -20.5502 N   0  0  0  0  0  0  0  0  0  0  0  0
  -23.2804  -39.5557  -20.7537 C   0  0  0  0  0  0  0  0  0  0  0  0
  -22.6344  -40.2213  -19.6116 C   0  0  0  0  0  0  0  0  0  0  0  0
  -22.6943  -39.5332  -18.3002 C   0  0  0  0  0  0  0  0  0  0  0  0
  -22.1257  -40.0771  -17.1972 N   0  0  0  0  0  0  0  0  0  0  0  0
  -22.1141  -41.3707  -20.0812 N   0  0  0  0  0  0  0  0  0  0  0  0
  -22.4008  -41.4364  -21.4066 C   0  0  0  0  0  0  0  0  0  0  0  0
  -23.0961  -40.3547  -21.8076 N   0  0  0  0  0  0  0  0  0  0  0  0
  -22.1459  -31.9937  -21.9687 N   0  0  0  0  0  0  0  0  0  0  0  0
  -21.6581  -33.1529  -22.4482 C   0  0  0  0  0  0  0  0  0  0  0  0
  -20.9513  -33.2517  -23.5885 N   0  0  0  0  0  0  0  0  0  0  0  0
  -20.6849  -32.1544  -24.3374 C   0  0  0  0  0  0  0  0  0  0  0  0
  -21.1846  -30.8489  -23.8790 C   0  0  0  0  0  0  0  0  0  0  0  0
  -21.9548  -30.8224  -22.6132 C   0  0  0  0  0  0  0  0  0  0  0  0
  -22.4506  -29.6611  -22.1196 N   0  0  0  0  0  0  0  0  0  0  0  0
  -20.7855  -29.9432  -24.7918 N   0  0  0  0  0  0  0  0  0  0  0  0
  -20.0920  -30.6100  -25.7502 C   0  0  0  0  0  0  0  0  0  0  0  0
  -20.0323  -31.9269  -25.4798 N   0  0  0  0  0  0  0  0  0  0  0  0
  1  3  1  6  0  0  0
  1  5  2  0  0  0  0
  1  9  1  0  0  0  0
  1 18  1  0  0  0  0
  2  4  1  1  0  0  0
  2  6  2  0  0  0  0
  2 10  1  0  0  0  0
  2 17  1  0  0  0  0
  7  9  1  0  0  0  0
  8 10  1  0  0  0  0
 11  7  1  1  0  0  0
 11 13  1  0  0  0  0
 11 15  1  0  0  0  0
 12  8  1  1  0  0  0
 12 14  1  0  0  0  0
 12 16  1  0  0  0  0
 13 21  1  0  0  0  0
 14 22  1  0  0  0  0
 15 17  1  6  0  0  0
 15 19  1  0  0  0  0
 16 18  1  6  0  0  0
 16 20  1  0  0  0  0
 19 21  1  0  0  0  0
 20 22  1  0  0  0  0
 21 32  1  1  0  0  0
 22 42  1  1  0  0  0
 23 24  2  0  0  0  0
 23 28  1  0  0  0  0
 24 25  1  0  0  0  0
 25 26  2  0  0  0  0
 26 27  1  0  0  0  0
 26 32  1  0  0  0  0
 27 28  2  0  0  0  0
 27 30  1  0  0  0  0
 28 29  1  0  0  0  0
 30 31  2  0  0  0  0
 31 32  1  0  0  0  0
 33 34  2  0  0  0  0
 33 38  1  0  0  0  0
 34 35  1  0  0  0  0
 35 36  2  0  0  0  0
 36 37  1  0  0  0  0
 36 42  1  0  0  0  0
 37 38  2  0  0  0  0
 37 40  1  0  0  0  0
 38 39  1  0  0  0  0
 40 41  2  0  0  0  0
 41 42  1  0  0  0  0
M  CHG  2   3  -1   4  -1
M  END
>  <CHROM.1>
140.72722462,104.60493116,-21.63186640,-36.28042998,-23.99124094,-0.90583362
-1.18671335,-3.07836262

>  <Name>
ligand

>  <RI>
0

>  <Rbt.Current_Directory>
/home/itssahil/PROJECTS/Mol_Feturizer/New_Systems/rnas/4QLN

>  <Rbt.Executable>
rbdock ($Id: //depot/dev/client3/rdock/2013.1/src/exe/rbdock.cxx#4 $)

>  <Rbt.Library>
libRbt.so (2013.1, Build901 2013/11/27)

>  <Rbt.Parameter_File>
/export/apps/rDock/src/rDock_2013.1_src/data/scripts/dock_solv.prm

>  <Rbt.Receptor>
prm/blind_docking_80.prm

>  <SCORE>
178.816

>  <SCORE.INTER>
164.828

>  <SCORE.INTER.CONST>
1

>  <SCORE.INTER.POLAR>
0

>  <SCORE.INTER.ROT>
2

>  <SCORE.INTER.SOLV>
47.8791

>  <SCORE.INTER.VDW>
88.9923

>  <SCORE.INTER.norm>
3.92448

>  <SCORE.INTRA>
3.02006

>  <SCORE.INTRA.DIHEDRAL>
0.000461375

>  <SCORE.INTRA.DIHEDRAL.0>
2.39985

>  <SCORE.INTRA.POLAR>
0

>  <SCORE.INTRA.POLAR.0>
0

>  <SCORE.INTRA.REPUL>
0

>  <SCORE.INTRA.REPUL.0>
0

>  <SCORE.INTRA.SOLV>
0.282408

>  <SCORE.INTRA.SOLV.lig_0>
-110.958

>  <SCORE.INTRA.VDW>
2.87862

>  <SCORE.INTRA.VDW.0>
-2.34644

>  <SCORE.INTRA.norm>
0.0719062

>  <SCORE.RESTR>
10.9677

>  <SCORE.RESTR.CAVITY>
10.9677

>  <SCORE.RESTR.norm>
0.261136

>  <SCORE.SYSTEM>
0

>  <SCORE.SYSTEM.CONST>
0

>  <SCORE.SYSTEM.DIHEDRAL>
0

>  <SCORE.SYSTEM.SOLV>
0

>  <SCORE.SYSTEM.norm>
0

>  <SCORE.heavy>
42

>  <SCORE.norm>
4.25752

>  <RMSD>
29.464

$$$$
ligand
 OpenBabel11021811513D
libRbt.so/2013.1/901 2013/11/27
 42 48  0  0  0  0  0  0  0  0999 V2000
  -21.2226  -22.0204   -5.8059 P   0  0  2  0  0  0  0  0  0  0  0  0
  -18.7206  -26.1969   -7.1518 P   0  0  1  0  0  0  0  0  0  0  0  0
  -20.9990  -20.7528   -6.5972 O   0  5  0  0  0  0  0  0  0  0  0  0
  -19.2327  -26.5810   -5.7841 O   0  5  0  0  0  0  0  0  0  0  0  0
  -21.8945  -21.9562   -4.4552 O   0  0  0  0  0  0  0  0  0  0  0  0
  -18.1416  -27.2517   -8.0638 O   0  0  0  0  0  0  0  0  0  0  0  0
  -18.6024  -22.0013   -5.5039 C   0  0  0  0  0  0  0  0  0  0  0  0
  -21.1401  -26.1079   -8.1965 C   0  0  0  0  0  0  0  0  0  0  0  0
  -19.8039  -22.7600   -5.6286 O   0  0  0  0  0  0  0  0  0  0  0  0
  -19.9050  -25.4433   -7.9403 O   0  0  0  0  0  0  0  0  0  0  0  0
  -17.4382  -22.7949   -6.0847 C   0  0  1  0  0  0  0  0  0  0  0  0
  -22.2982  -25.2163   -7.7665 C   0  0  1  0  0  0  0  0  0  0  0  0
  -16.2088  -22.3296   -5.5213 O   0  0  0  0  0  0  0  0  0  0  0  0
  -23.4531  -26.0178   -7.5063 O   0  0  0  0  0  0  0  0  0  0  0  0
  -17.5660  -24.2746   -5.7645 C   0  0  1  0  0  0  0  0  0  0  0  0
  -21.9651  -24.4544   -6.4936 C   0  0  1  0  0  0  0  0  0  0  0  0
  -17.6232  -25.0322   -6.9693 O   0  0  0  0  0  0  0  0  0  0  0  0
  -22.0438  -23.0518   -6.7293 O   0  0  0  0  0  0  0  0  0  0  0  0
  -16.3280  -24.6509   -4.9719 C   0  0  0  0  0  0  0  0  0  0  0  0
  -22.9982  -24.8673   -5.4631 C   0  0  0  0  0  0  0  0  0  0  0  0
  -15.5061  -23.3768   -4.8467 C   0  0  2  0  0  0  0  0  0  0  0  0
  -23.9136  -25.8627   -6.1616 C   0  0  2  0  0  0  0  0  0  0  0  0
  -16.7125  -24.5957    0.1168 N   0  0  0  0  0  0  0  0  0  0  0  0
  -17.0734  -25.1908   -1.0351 C   0  0  0  0  0  0  0  0  0  0  0  0
  -16.6848  -24.7639   -2.2508 N   0  0  0  0  0  0  0  0  0  0  0  0
  -15.8843  -23.6793   -2.3836 C   0  0  0  0  0  0  0  0  0  0  0  0
  -15.4460  -22.9735   -1.1692 C   0  0  0  0  0  0  0  0  0  0  0  0
  -15.9161  -23.5034    0.1328 C   0  0  0  0  0  0  0  0  0  0  0  0
  -15.5590  -22.9137    1.2991 N   0  0  0  0  0  0  0  0  0  0  0  0
  -14.6727  -21.9502   -1.5779 N   0  0  0  0  0  0  0  0  0  0  0  0
  -14.6198  -21.9954   -2.9338 C   0  0  0  0  0  0  0  0  0  0  0  0
  -15.3416  -23.0261   -3.4142 N   0  0  0  0  0  0  0  0  0  0  0  0
  -21.0075  -29.1671   -3.2967 N   0  0  0  0  0  0  0  0  0  0  0  0
  -20.7011  -27.9586   -3.8038 C   0  0  0  0  0  0  0  0  0  0  0  0
  -21.5552  -27.2136   -4.5284 N   0  0  0  0  0  0  0  0  0  0  0  0
  -22.8085  -27.6550   -4.7936 C   0  0  0  0  0  0  0  0  0  0  0  0
  -23.2191  -28.9681   -4.2729 C   0  0  0  0  0  0  0  0  0  0  0  0
  -22.2215  -29.7284   -3.4835 C   0  0  0  0  0  0  0  0  0  0  0  0
  -22.5184  -30.9462   -2.9669 N   0  0  0  0  0  0  0  0  0  0  0  0
  -24.4900  -29.1597   -4.6740 N   0  0  0  0  0  0  0  0  0  0  0  0
  -24.8602  -28.0661   -5.3888 C   0  0  0  0  0  0  0  0  0  0  0  0
  -23.8588  -27.1700   -5.4602 N   0  0  0  0  0  0  0  0  0  0  0  0
  1  3  1  6  0  0  0
  1  5  2  0  0  0  0
  1  9  1  0  0  0  0
  1 18  1  0  0  0  0
  2  4  1  1  0  0  0
  2  6  2  0  0  0  0
  2 10  1  0  0  0  0
  2 17  1  0  0  0  0
  7  9  1  0  0  0  0
  8 10  1  0  0  0  0
 11  7  1  1  0  0  0
 11 13  1  0  0  0  0
 11 15  1  0  0  0  0
 12  8  1  1  0  0  0
 12 14  1  0  0  0  0
 12 16  1  0  0  0  0
 13 21  1  0  0  0  0
 14 22  1  0  0  0  0
 15 17  1  6  0  0  0
 15 19  1  0  0  0  0
 16 18  1  6  0  0  0
 16 20  1  0  0  0  0
 19 21  1  0  0  0  0
 20 22  1  0  0  0  0
 21 32  1  1  0  0  0
 22 42  1  1  0  0  0
 23 24  2  0  0  0  0
 23 28  1  0  0  0  0
 24 25  1  0  0  0  0
 25 26  2  0  0  0  0
 26 27  1  0  0  0  0
 26 32  1  0  0  0  0
 27 28  2  0  0  0  0
 27 30  1  0  0  0  0
 28 29  1  0  0  0  0
 30 31  2  0  0  0  0
 31 32  1  0  0  0  0
 33 34  2  0  0  0  0
 33 38  1  0  0  0  0
 34 35  1  0  0  0  0
 35 36  2  0  0  0  0
 36 37  1  0  0  0  0
 36 42  1  0  0  0  0
 37 38  2  0  0  0  0
 37 40  1  0  0  0  0
 38 39  1  0  0  0  0
 40 41  2  0  0  0  0
 41 42  1  0  0  0  0
M  CHG  2   3  -1   4  -1
M  END
>  <CHROM.1>
115.23385753,88.48132658,-19.61621104,-24.97967747,-4.85259066,3.04156500
0.64886159,2.38568814

>  <Name>
ligand

>  <RI>
0

>  <Rbt.Current_Directory>
/home/itssahil/PROJECTS/Mol_Feturizer/New_Systems/rnas/4QLN

>  <Rbt.Executable>
rbdock ($Id: //depot/dev/client3/rdock/2013.1/src/exe/rbdock.cxx#4 $)

>  <Rbt.Library>
libRbt.so (2013.1, Build901 2013/11/27)

>  <Rbt.Parameter_File>
/export/apps/rDock/src/rDock_2013.1_src/data/scripts/dock_solv.prm

>  <Rbt.Receptor>
prm/blind_docking_60.prm

>  <SCORE>
69.1216

>  <SCORE.INTER>
56.4288

>  <SCORE.INTER.CONST>
1

>  <SCORE.INTER.POLAR>
0

>  <SCORE.INTER.ROT>
2

>  <SCORE.INTER.SOLV>
40.4846

>  <SCORE.INTER.VDW>
19.191

>  <SCORE.INTER.norm>
1.34354

>  <SCORE.INTRA>
2.83402

>  <SCORE.INTRA.DIHEDRAL>
0.000964167

>  <SCORE.INTRA.DIHEDRAL.0>
2.39985

>  <SCORE.INTRA.POLAR>
0

>  <SCORE.INTRA.POLAR.0>
0

>  <SCORE.INTRA.REPUL>
0

>  <SCORE.INTRA.REPUL.0>
0

>  <SCORE.INTRA.SOLV>
0.713794

>  <SCORE.INTRA.SOLV.lig_0>
-110.958

>  <SCORE.INTRA.VDW>
2.47664

>  <SCORE.INTRA.VDW.0>
-2.34644

>  <SCORE.INTRA.norm>
0.0674766

>  <SCORE.RESTR>
9.85888

>  <SCORE.RESTR.CAVITY>
9.85888

>  <SCORE.RESTR.norm>
0.234735

>  <SCORE.SYSTEM>
0

>  <SCORE.SYSTEM.CONST>
0

>  <SCORE.SYSTEM.DIHEDRAL>
0

>  <SCORE.SYSTEM.SOLV>
0

>  <SCORE.SYSTEM.norm>
0

>  <SCORE.heavy>
42

>  <SCORE.norm>
1.64575

>  <RMSD>
29.474

$$$$
ligand
 OpenBabel11021811513D
libRbt.so/2013.1/901 2013/11/27
 42 48  0  0  0  0  0  0  0  0999 V2000
  -15.5510  -24.2862   -5.6393 P   0  0  2  0  0  0  0  0  0  0  0  0
  -18.4723  -21.7711   -2.3751 P   0  0  1  0  0  0  0  0  0  0  0  0
  -14.6357  -23.5008   -6.5495 O   0  5  0  0  0  0  0  0  0  0  0  0
  -19.0956  -23.1461   -2.3384 O   0  5  0  0  0  0  0  0  0  0  0  0
  -15.8412  -25.7383   -5.9342 O   0  0  0  0  0  0  0  0  0  0  0  0
  -18.8496  -20.7443   -1.3346 O   0  0  0  0  0  0  0  0  0  0  0  0
  -17.4556  -22.7691   -6.6533 C   0  0  0  0  0  0  0  0  0  0  0  0
  -16.2265  -22.5966   -1.2668 C   0  0  0  0  0  0  0  0  0  0  0  0
  -16.9533  -23.5024   -5.5375 O   0  0  0  0  0  0  0  0  0  0  0  0
  -16.8715  -21.9426   -2.3572 O   0  0  0  0  0  0  0  0  0  0  0  0
  -18.2838  -21.5908   -6.1551 C   0  0  1  0  0  0  0  0  0  0  0  0
  -15.2692  -23.6548   -1.8004 C   0  0  1  0  0  0  0  0  0  0  0  0
  -19.1962  -21.1770   -7.1758 O   0  0  0  0  0  0  0  0  0  0  0  0
  -15.0374  -24.6459   -0.7965 O   0  0  0  0  0  0  0  0  0  0  0  0
  -19.0976  -21.9687   -4.9291 C   0  0  1  0  0  0  0  0  0  0  0  0
  -15.8453  -24.3554   -3.0206 C   0  0  1  0  0  0  0  0  0  0  0  0
  -18.7416  -21.1353   -3.8302 O   0  0  0  0  0  0  0  0  0  0  0  0
  -14.9795  -24.1806   -4.1382 O   0  0  0  0  0  0  0  0  0  0  0  0
  -20.5537  -21.7510   -5.2963 C   0  0  0  0  0  0  0  0  0  0  0  0
  -15.9444  -25.8261   -2.6646 C   0  0  0  0  0  0  0  0  0  0  0  0
  -20.5541  -21.2515   -6.7335 C   0  0  2  0  0  0  0  0  0  0  0  0
  -15.4207  -25.9497   -1.2408 C   0  0  2  0  0  0  0  0  0  0  0  0
  -22.2386  -26.1851   -7.3661 N   0  0  0  0  0  0  0  0  0  0  0  0
  -21.5128  -25.6365   -6.3745 C   0  0  0  0  0  0  0  0  0  0  0  0
  -21.1487  -24.3413   -6.3430 N   0  0  0  0  0  0  0  0  0  0  0  0
  -21.5052  -23.4945   -7.3384 C   0  0  0  0  0  0  0  0  0  0  0  0
  -22.3008  -24.0194   -8.4593 C   0  0  0  0  0  0  0  0  0  0  0  0
  -22.6622  -25.4564   -8.4230 C   0  0  0  0  0  0  0  0  0  0  0  0
  -23.3932  -26.0200   -9.4148 N   0  0  0  0  0  0  0  0  0  0  0  0
  -22.5144  -22.9861   -9.2954 N   0  0  0  0  0  0  0  0  0  0  0  0
  -21.9095  -21.8956   -8.7587 C   0  0  0  0  0  0  0  0  0  0  0  0
  -21.3082  -22.1984   -7.5920 N   0  0  0  0  0  0  0  0  0  0  0  0
  -20.5551  -26.0145   -0.1423 N   0  0  0  0  0  0  0  0  0  0  0  0
  -19.8816  -25.3545   -1.1027 C   0  0  0  0  0  0  0  0  0  0  0  0
  -18.5490  -25.4323   -1.2692 N   0  0  0  0  0  0  0  0  0  0  0  0
  -17.7913  -26.2039   -0.4528 C   0  0  0  0  0  0  0  0  0  0  0  0
  -18.4551  -26.9574    0.6223 C   0  0  0  0  0  0  0  0  0  0  0  0
  -19.9259  -26.8196    0.7406 C   0  0  0  0  0  0  0  0  0  0  0  0
  -20.6157  -27.4798    1.7032 N   0  0  0  0  0  0  0  0  0  0  0  0
  -17.4876  -27.6308    1.2728 N   0  0  0  0  0  0  0  0  0  0  0  0
  -16.3085  -27.3343    0.6680 C   0  0  0  0  0  0  0  0  0  0  0  0
  -16.4892  -26.4844   -0.3596 N   0  0  0  0  0  0  0  0  0  0  0  0
  1  3  1  6  0  0  0
  1  5  2  0  0  0  0
  1  9  1  0  0  0  0
  1 18  1  0  0  0  0
  2  4  1  1  0  0  0
  2  6  2  0  0  0  0
  2 10  1  0  0  0  0
  2 17  1  0  0  0  0
  7  9  1  0  0  0  0
  8 10  1  0  0  0  0
 11  7  1  6  0  0  0
 11 13  1  0  0  0  0
 11 15  1  0  0  0  0
 12  8  1  1  0  0  0
 12 14  1  0  0  0  0
 12 16  1  0  0  0  0
 13 21  1  0  0  0  0
 14 22  1  0  0  0  0
 15 17  1  1  0  0  0
 15 19  1  0  0  0  0
 16 18  1  6  0  0  0
 16 20  1  0  0  0  0
 19 21  1  0  0  0  0
 20 22  1  0  0  0  0
 21 32  1  6  0  0  0
 22 42  1  1  0  0  0
 23 24  2  0  0  0  0
 23 28  1  0  0  0  0
 24 25  1  0  0  0  0
 25 26  2  0  0  0  0
 26 27  1  0  0  0  0
 26 32  1  0  0  0  0
 27 28  2  0  0  0  0
 27 30  1  0  0  0  0
 28 29  1  0  0  0  0
 30 31  2  0  0  0  0
 31 32  1  0  0  0  0
 33 34  2  0  0  0  0
 33 38  1  0  0  0  0
 34 35  1  0  0  0  0
 35 36  2  0  0  0  0
 36 37  1  0  0  0  0
 36 42  1  0  0  0  0
 37 38  2  0  0  0  0
 37 40  1  0  0  0  0
 38 39  1  0  0  0  0
 40 41  2  0  0  0  0
 41 42  1  0  0  0  0
M  CHG  2   3  -1   4  -1
M  END
>  <CHROM.1>
93.94921721,82.06113740,-18.51621571,-24.04772319,-3.94629457,-2.09193313
0.38204000,2.08289193

>  <Name>
ligand

>  <RI>
0

>  <Rbt.Current_Directory>
/home/itssahil/PROJECTS/Mol_Feturizer/New_Systems/rnas/4QLN

>  <Rbt.Executable>
rbdock ($Id: //depot/dev/client3/rdock/2013.1/src/exe/rbdock.cxx#4 $)

>  <Rbt.Library>
libRbt.so (2013.1, Build901 2013/11/27)

>  <Rbt.Parameter_File>
/export/apps/rDock/src/rDock_2013.1_src/data/scripts/dock_solv.prm

>  <Rbt.Receptor>
prm/blind_docking_40.prm

>  <SCORE>
57.0523

>  <SCORE.INTER>
46.7225

>  <SCORE.INTER.CONST>
1

>  <SCORE.INTER.POLAR>
0

>  <SCORE.INTER.ROT>
2

>  <SCORE.INTER.SOLV>
40.4772

>  <SCORE.INTER.VDW>
12.7226

>  <SCORE.INTER.norm>
1.11244

>  <SCORE.INTRA>
2.17755

>  <SCORE.INTRA.DIHEDRAL>
0.0010937

>  <SCORE.INTRA.DIHEDRAL.0>
2.39985

>  <SCORE.INTRA.POLAR>
0

>  <SCORE.INTRA.POLAR.0>
0

>  <SCORE.INTRA.REPUL>
0

>  <SCORE.INTRA.REPUL.0>
0

>  <SCORE.INTRA.SOLV>
0.940636

>  <SCORE.INTRA.SOLV.lig_0>
-110.958

>  <SCORE.INTRA.VDW>
1.70668

>  <SCORE.INTRA.VDW.0>
-2.34644

>  <SCORE.INTRA.norm>
0.0518464

>  <SCORE.RESTR>
8.1522

>  <SCORE.RESTR.CAVITY>
8.1522

>  <SCORE.RESTR.norm>
0.1941

>  <SCORE.SYSTEM>
0

>  <SCORE.SYSTEM.CONST>
0

>  <SCORE.SYSTEM.DIHEDRAL>
0

>  <SCORE.SYSTEM.SOLV>
0

>  <SCORE.SYSTEM.norm>
0

>  <SCORE.heavy>
42

>  <SCORE.norm>
1.35839

>  <RMSD>
29.490

$$$$
ligand
 OpenBabel11021811513D
libRbt.so/2013.1/901 2013/11/27
 42 48  0  0  0  0  0  0  0  0999 V2000
  -18.6114  -26.6282   -6.3718 P   0  0  2  0  0  0  0  0  0  0  0  0
  -17.5832  -21.8039   -5.2840 P   0  0  1  0  0  0  0  0  0  0  0  0
  -18.9909  -26.9884   -7.7893 O   0  5  0  0  0  0  0  0  0  0  0  0
  -17.7394  -22.3964   -3.9038 O   0  5  0  0  0  0  0  0  0  0  0  0
  -18.8706  -27.6065   -5.2512 O   0  0  0  0  0  0  0  0  0  0  0  0
  -16.9918  -20.4247   -5.4499 O   0  0  0  0  0  0  0  0  0  0  0  0
  -20.6041  -24.9082   -6.5372 C   0  0  0  0  0  0  0  0  0  0  0  0
  -15.4016  -23.1938   -5.7960 C   0  0  0  0  0  0  0  0  0  0  0  0
  -19.3239  -25.2339   -5.9988 O   0  0  0  0  0  0  0  0  0  0  0  0
  -16.7260  -22.8314   -6.1796 O   0  0  0  0  0  0  0  0  0  0  0  0
  -20.7216  -23.3962   -6.6881 C   0  0  1  0  0  0  0  0  0  0  0  0
  -15.2593  -24.7104   -5.8233 C   0  0  1  0  0  0  0  0  0  0  0  0
  -22.1012  -23.0197   -6.7099 O   0  0  0  0  0  0  0  0  0  0  0  0
  -14.1887  -25.1101   -4.9642 O   0  0  0  0  0  0  0  0  0  0  0  0
  -20.0606  -22.6737   -5.5265 C   0  0  1  0  0  0  0  0  0  0  0  0
  -16.5270  -25.3926   -5.3340 C   0  0  1  0  0  0  0  0  0  0  0  0
  -19.0226  -21.8244   -6.0062 O   0  0  0  0  0  0  0  0  0  0  0  0
  -17.0491  -26.2411   -6.3521 O   0  0  0  0  0  0  0  0  0  0  0  0
  -21.1450  -21.8454   -4.8628 C   0  0  0  0  0  0  0  0  0  0  0  0
  -16.1318  -26.2157   -4.1232 C   0  0  0  0  0  0  0  0  0  0  0  0
  -22.4174  -22.1074   -5.6549 C   0  0  2  0  0  0  0  0  0  0  0  0
  -14.6377  -25.9947   -3.9347 C   0  0  2  0  0  0  0  0  0  0  0  0
  -24.1695  -22.6348   -0.7325 N   0  0  0  0  0  0  0  0  0  0  0  0
  -23.1106  -21.9539   -1.2084 C   0  0  0  0  0  0  0  0  0  0  0  0
  -22.7764  -21.9066   -2.5111 N   0  0  0  0  0  0  0  0  0  0  0  0
  -23.5113  -22.5615   -3.4416 C   0  0  0  0  0  0  0  0  0  0  0  0
  -24.6863  -23.3289   -2.9997 C   0  0  0  0  0  0  0  0  0  0  0  0
  -24.9896  -23.3337   -1.5489 C   0  0  0  0  0  0  0  0  0  0  0  0
  -26.0531  -24.0145   -1.0578 N   0  0  0  0  0  0  0  0  0  0  0  0
  -25.2280  -23.8725   -4.1058 N   0  0  0  0  0  0  0  0  0  0  0  0
  -24.4680  -23.4881   -5.1631 C   0  0  0  0  0  0  0  0  0  0  0  0
  -23.4449  -22.7065   -4.7674 N   0  0  0  0  0  0  0  0  0  0  0  0
  -16.2869  -22.5611   -0.3205 N   0  0  0  0  0  0  0  0  0  0  0  0
  -16.8143  -22.8824   -1.5163 C   0  0  0  0  0  0  0  0  0  0  0  0
  -16.2781  -23.7923   -2.3495 N   0  0  0  0  0  0  0  0  0  0  0  0
  -15.1432  -24.4539   -2.0176 C   0  0  0  0  0  0  0  0  0  0  0  0
  -14.5063  -24.1578   -0.7250 C   0  0  0  0  0  0  0  0  0  0  0  0
  -15.1575  -23.1434    0.1370 C   0  0  0  0  0  0  0  0  0  0  0  0
  -14.6365  -22.8116    1.3439 N   0  0  0  0  0  0  0  0  0  0  0  0
  -13.4141  -24.9413   -0.6470 N   0  0  0  0  0  0  0  0  0  0  0  0
  -13.3566  -25.6739   -1.7889 C   0  0  0  0  0  0  0  0  0  0  0  0
  -14.3862  -25.3836   -2.6053 N   0  0  0  0  0  0  0  0  0  0  0  0
  1  3  1  6  0  0  0
  1  5  2  0  0  0  0
  1  9  1  0  0  0  0
  1 18  1  0  0  0  0
  2  4  1  1  0  0  0
  2  6  2  0  0  0  0
  2 10  1  0  0  0  0
  2 17  1  0  0  0  0
  7  9  1  0  0  0  0
  8 10  1  0  0  0  0
 11  7  1  1  0  0  0
 11 13  1  0  0  0  0
 11 15  1  0  0  0  0
 12  8  1  1  0  0  0
 12 14  1  0  0  0  0
 12 16  1  0  0  0  0
 13 21  1  0  0  0  0
 14 22  1  0  0  0  0
 15 17  1  6  0  0  0
 15 19  1  0  0  0  0
 16 18  1  6  0  0  0
 16 20  1  0  0  0  0
 19 21  1  0  0  0  0
 20 22  1  0  0  0  0
 21 32  1  1  0  0  0
 22 42  1  1  0  0  0
 23 24  2  0  0  0  0
 23 28  1  0  0  0  0
 24 25  1  0  0  0  0
 25 26  2  0  0  0  0
 26 27  1  0  0  0  0
 26 32  1  0  0  0  0
 27 28  2  0  0  0  0
 27 30  1  0  0  0  0
 28 29  1  0  0  0  0
 30 31  2  0  0  0  0
 31 32  1  0  0  0  0
 33 34  2  0  0  0  0
 33 38  1  0  0  0  0
 34 35  1  0  0  0  0
 35 36  2  0  0  0  0
 36 37  1  0  0  0  0
 36 42  1  0  0  0  0
 37 38  2  0  0  0  0
 37 40  1  0  0  0  0
 38 39  1  0  0  0  0
 40 41  2  0  0  0  0
 41 42  1  0  0  0  0
M  CHG  2   3  -1   4  -1
M  END
>  <CHROM.1>
143.71304419,79.97771808,-18.78504333,-23.85473447,-4.08702401,-0.01865991
0.18169445,-1.91692947

>  <Name>
ligand

>  <RI>
0

>  <Rbt.Current_Directory>
/home/itssahil/PROJECTS/Mol_Feturizer/New_Systems/rnas/4QLN

>  <Rbt.Executable>
rbdock ($Id: //depot/dev/client3/rdock/2013.1/src/exe/rbdock.cxx#4 $)

>  <Rbt.Library>
libRbt.so (2013.1, Build901 2013/11/27)

>  <Rbt.Parameter_File>
/export/apps/rDock/src/rDock_2013.1_src/data/scripts/dock_solv.prm

>  <Rbt.Receptor>
prm/blind_docking_40.prm

>  <SCORE>
92.7769

>  <SCORE.INTER>
84.7287

>  <SCORE.INTER.CONST>
1

>  <SCORE.INTER.POLAR>
0

>  <SCORE.INTER.ROT>
2

>  <SCORE.INTER.SOLV>
42.9196

>  <SCORE.INTER.VDW>
37.2459

>  <SCORE.INTER.norm>
2.01735

>  <SCORE.INTRA>
2.82279

>  <SCORE.INTRA.DIHEDRAL>
0.000552869

>  <SCORE.INTRA.DIHEDRAL.0>
2.39985

>  <SCORE.INTRA.POLAR>
0

>  <SCORE.INTRA.POLAR.0>
0

>  <SCORE.INTRA.REPUL>
0

>  <SCORE.INTRA.REPUL.0>
0

>  <SCORE.INTRA.SOLV>
0.979089

>  <SCORE.INTRA.SOLV.lig_0>
-110.958

>  <SCORE.INTRA.VDW>
2.33297

>  <SCORE.INTRA.VDW.0>
-2.34644

>  <SCORE.INTRA.norm>
0.0672093

>  <SCORE.RESTR>
5.22538

>  <SCORE.RESTR.CAVITY>
5.22538

>  <SCORE.RESTR.norm>
0.124414

>  <SCORE.SYSTEM>
0

>  <SCORE.SYSTEM.CONST>
0

>  <SCORE.SYSTEM.DIHEDRAL>
0

>  <SCORE.SYSTEM.SOLV>
0

>  <SCORE.SYSTEM.norm>
0

>  <SCORE.heavy>
42

>  <SCORE.norm>
2.20897

>  <RMSD>
29.601

$$$$
ligand
 OpenBabel11021811513D
libRbt.so/2013.1/901 2013/11/27
 42 48  0  0  0  0  0  0  0  0999 V2000
  -19.7153  -25.1180   -7.5690 P   0  0  2  0  0  0  0  0  0  0  0  0
  -21.0919  -23.4172   -3.0163 P   0  0  1  0  0  0  0  0  0  0  0  0
  -20.5263  -24.7044   -8.7748 O   0  5  0  0  0  0  0  0  0  0  0  0
  -20.1277  -24.5190   -2.6465 O   0  5  0  0  0  0  0  0  0  0  0  0
  -18.7472  -26.2722   -7.6725 O   0  0  0  0  0  0  0  0  0  0  0  0
  -21.5505  -22.4331   -1.9672 O   0  0  0  0  0  0  0  0  0  0  0  0
  -22.0231  -25.9682   -6.6161 C   0  0  0  0  0  0  0  0  0  0  0  0
  -19.2065  -21.9292   -4.1046 C   0  0  0  0  0  0  0  0  0  0  0  0
  -20.7318  -25.4197   -6.3579 O   0  0  0  0  0  0  0  0  0  0  0  0
  -20.4629  -22.5882   -4.2450 O   0  0  0  0  0  0  0  0  0  0  0  0
  -23.0023  -25.4832   -5.5538 C   0  0  1  0  0  0  0  0  0  0  0  0
  -18.3046  -22.2947   -5.2768 C   0  0  1  0  0  0  0  0  0  0  0  0
  -24.1073  -26.3872   -5.4680 O   0  0  0  0  0  0  0  0  0  0  0  0
  -16.9357  -22.1120   -4.9075 O   0  0  0  0  0  0  0  0  0  0  0  0
  -22.3447  -25.4213   -4.1855 C   0  0  1  0  0  0  0  0  0  0  0  0
  -18.4867  -23.7491   -5.6807 C   0  0  1  0  0  0  0  0  0  0  0  0
  -22.3963  -24.0913   -3.6782 O   0  0  0  0  0  0  0  0  0  0  0  0
  -18.9092  -23.8296   -7.0387 O   0  0  0  0  0  0  0  0  0  0  0  0
  -23.1365  -26.3520   -3.2860 C   0  0  0  0  0  0  0  0  0  0  0  0
  -17.1331  -24.4130   -5.5171 C   0  0  0  0  0  0  0  0  0  0  0  0
  -24.2395  -26.9380   -4.1548 C   0  0  2  0  0  0  0  0  0  0  0  0
  -16.1897  -23.3263   -5.0211 C   0  0  2  0  0  0  0  0  0  0  0  0
  -21.0895  -31.0622   -3.3512 N   0  0  0  0  0  0  0  0  0  0  0  0
  -20.8611  -29.7481   -3.1722 C   0  0  0  0  0  0  0  0  0  0  0  0
  -21.7724  -28.7900   -3.4228 N   0  0  0  0  0  0  0  0  0  0  0  0
  -23.0066  -29.1075   -3.8820 C   0  0  0  0  0  0  0  0  0  0  0  0
  -23.3334  -30.5250   -4.1031 C   0  0  0  0  0  0  0  0  0  0  0  0
  -22.2773  -31.5213   -3.8049 C   0  0  0  0  0  0  0  0  0  0  0  0
  -22.4953  -32.8469   -3.9803 N   0  0  0  0  0  0  0  0  0  0  0  0
  -24.6016  -30.5608   -4.5534 N   0  0  0  0  0  0  0  0  0  0  0  0
  -25.0484  -29.2803   -4.6158 C   0  0  0  0  0  0  0  0  0  0  0  0
  -24.0979  -28.4140   -4.2154 N   0  0  0  0  0  0  0  0  0  0  0  0
  -14.7070  -27.2499   -1.8621 N   0  0  0  0  0  0  0  0  0  0  0  0
  -15.1965  -27.2829   -3.1154 C   0  0  0  0  0  0  0  0  0  0  0  0
  -15.5385  -26.1850   -3.8134 N   0  0  0  0  0  0  0  0  0  0  0  0
  -15.4035  -24.9494   -3.2740 C   0  0  0  0  0  0  0  0  0  0  0  0
  -14.8743  -24.8305   -1.9065 C   0  0  0  0  0  0  0  0  0  0  0  0
  -14.5202  -26.0860   -1.2033 C   0  0  0  0  0  0  0  0  0  0  0  0
  -14.0256  -26.0659    0.0589 N   0  0  0  0  0  0  0  0  0  0  0  0
  -14.8427  -23.5152   -1.6203 N   0  0  0  0  0  0  0  0  0  0  0  0
  -15.3108  -22.8508   -2.7081 C   0  0  0  0  0  0  0  0  0  0  0  0
  -15.6450  -23.7049   -3.6930 N   0  0  0  0  0  0  0  0  0  0  0  0
  1  3  1  6  0  0  0
  1  5  2  0  0  0  0
  1  9  1  0  0  0  0
  1 18  1  0  0  0  0
  2  4  1  1  0  0  0
  2  6  2  0  0  0  0
  2 10  1  0  0  0  0
  2 17  1  0  0  0  0
  7  9  1  0  0  0  0
  8 10  1  0  0  0  0
 11  7  1  6  0  0  0
 11 13  1  0  0  0  0
 11 15  1  0  0  0  0
 12  8  1  1  0  0  0
 12 14  1  0  0  0  0
 12 16  1  0  0  0  0
 13 21  1  0  0  0  0
 14 22  1  0  0  0  0
 15 17  1  1  0  0  0
 15 19  1  0  0  0  0
 16 18  1  6  0  0  0
 16 20  1  0  0  0  0
 19 21  1  0  0  0  0
 20 22  1  0  0  0  0
 21 32  1  6  0  0  0
 22 42  1  1  0  0  0
 23 24  2  0  0  0  0
 23 28  1  0  0  0  0
 24 25  1  0  0  0  0
 25 26  2  0  0  0  0
 26 27  1  0  0  0  0
 26 32  1  0  0  0  0
 27 28  2  0  0  0  0
 27 30  1  0  0  0  0
 28 29  1  0  0  0  0
 30 31  2  0  0  0  0
 31 32  1  0  0  0  0
 33 34  2  0  0  0  0
 33 38  1  0  0  0  0
 34 35  1  0  0  0  0
 35 36  2  0  0  0  0
 36 37  1  0  0  0  0
 36 42  1  0  0  0  0
 37 38  2  0  0  0  0
 37 40  1  0  0  0  0
 38 39  1  0  0  0  0
 40 41  2  0  0  0  0
 41 42  1  0  0  0  0
M  CHG  2   3  -1   4  -1
M  END
>  <CHROM.1>
101.85257198,150.40193780,-19.79327248,-25.79415794,-4.28826703,0.47552404
-0.38342043,-0.39264530

>  <Name>
ligand

>  <RI>
0

>  <Rbt.Current_Directory>
/home/itssahil/PROJECTS/Mol_Feturizer/New_Systems/rnas/4QLN

>  <Rbt.Executable>
rbdock ($Id: //depot/dev/client3/rdock/2013.1/src/exe/rbdock.cxx#4 $)

>  <Rbt.Library>
libRbt.so (2013.1, Build901 2013/11/27)

>  <Rbt.Parameter_File>
/export/apps/rDock/src/rDock_2013.1_src/data/scripts/dock_solv.prm

>  <Rbt.Receptor>
prm/blind_docking_60.prm

>  <SCORE>
13.1959

>  <SCORE.INTER>
-3.20632

>  <SCORE.INTER.CONST>
1

>  <SCORE.INTER.POLAR>
0

>  <SCORE.INTER.ROT>
2

>  <SCORE.INTER.SOLV>
27.2143

>  <SCORE.INTER.VDW>
-16.1423

>  <SCORE.INTER.norm>
-0.0763409

>  <SCORE.INTRA>
2.68426

>  <SCORE.INTRA.DIHEDRAL>
-0.000390045

>  <SCORE.INTRA.DIHEDRAL.0>
2.39985

>  <SCORE.INTRA.POLAR>
0

>  <SCORE.INTRA.POLAR.0>
0

>  <SCORE.INTRA.REPUL>
0

>  <SCORE.INTRA.REPUL.0>
0

>  <SCORE.INTRA.SOLV>
-0.15171

>  <SCORE.INTRA.SOLV.lig_0>
-110.958

>  <SCORE.INTRA.VDW>
2.76031

>  <SCORE.INTRA.VDW.0>
-2.34644

>  <SCORE.INTRA.norm>
0.063911

>  <SCORE.RESTR>
13.7179

>  <SCORE.RESTR.CAVITY>
13.7179

>  <SCORE.RESTR.norm>
0.326617

>  <SCORE.SYSTEM>
0

>  <SCORE.SYSTEM.CONST>
0

>  <SCORE.SYSTEM.DIHEDRAL>
0

>  <SCORE.SYSTEM.SOLV>
0

>  <SCORE.SYSTEM.norm>
0

>  <SCORE.heavy>
42

>  <SCORE.norm>
0.314187

>  <RMSD>
29.604

$$$$
ligand
 OpenBabel11021811513D
libRbt.so/2013.1/901 2013/11/27
 42 48  0  0  0  0  0  0  0  0999 V2000
  -18.8807  -25.5718   -6.4796 P   0  0  2  0  0  0  0  0  0  0  0  0
  -20.8422  -26.5665   -1.9323 P   0  0  1  0  0  0  0  0  0  0  0  0
  -18.1768  -26.6813   -7.2257 O   0  5  0  0  0  0  0  0  0  0  0  0
  -20.8719  -25.0568   -1.9486 O   0  5  0  0  0  0  0  0  0  0  0  0
  -18.6992  -24.1378   -6.9160 O   0  0  0  0  0  0  0  0  0  0  0  0
  -21.5965  -27.3240   -0.8661 O   0  0  0  0  0  0  0  0  0  0  0  0
  -17.1873  -26.1376   -4.5381 C   0  0  0  0  0  0  0  0  0  0  0  0
  -22.6358  -26.7709   -3.8545 C   0  0  0  0  0  0  0  0  0  0  0  0
  -18.4821  -25.6796   -4.9238 O   0  0  0  0  0  0  0  0  0  0  0  0
  -21.3346  -27.0960   -3.3710 O   0  0  0  0  0  0  0  0  0  0  0  0
  -17.2791  -26.8440   -3.1908 C   0  0  1  0  0  0  0  0  0  0  0  0
  -22.5319  -26.2287   -5.2744 C   0  0  1  0  0  0  0  0  0  0  0  0
  -15.9983  -26.8369   -2.5545 O   0  0  0  0  0  0  0  0  0  0  0  0
  -23.6758  -25.4230   -5.5680 O   0  0  0  0  0  0  0  0  0  0  0  0
  -18.2613  -26.1433   -2.2673 C   0  0  1  0  0  0  0  0  0  0  0  0
  -21.2957  -25.3600   -5.4445 C   0  0  1  0  0  0  0  0  0  0  0  0
  -19.3031  -27.0391   -1.8917 O   0  0  0  0  0  0  0  0  0  0  0  0
  -20.4568  -25.8982   -6.4621 O   0  0  0  0  0  0  0  0  0  0  0  0
  -17.4720  -25.7207   -1.0422 C   0  0  0  0  0  0  0  0  0  0  0  0
  -21.7897  -23.9850   -5.8510 C   0  0  0  0  0  0  0  0  0  0  0  0
  -16.0431  -26.1848   -1.2824 C   0  0  2  0  0  0  0  0  0  0  0  0
  -23.3073  -24.0845   -5.9101 C   0  0  2  0  0  0  0  0  0  0  0  0
  -13.8769  -22.3479   -4.1397 N   0  0  0  0  0  0  0  0  0  0  0  0
  -14.7380  -23.3176   -4.4997 C   0  0  0  0  0  0  0  0  0  0  0  0
  -15.2159  -24.2460   -3.6508 N   0  0  0  0  0  0  0  0  0  0  0  0
  -14.8446  -24.2537   -2.3481 C   0  0  0  0  0  0  0  0  0  0  0  0
  -13.9051  -23.2241   -1.8767 C   0  0  0  0  0  0  0  0  0  0  0  0
  -13.4225  -22.2368   -2.8713 C   0  0  0  0  0  0  0  0  0  0  0  0
  -12.5564  -21.2556   -2.5209 N   0  0  0  0  0  0  0  0  0  0  0  0
  -13.7068  -23.4567   -0.5657 N   0  0  0  0  0  0  0  0  0  0  0  0
  -14.4526  -24.5392   -0.2263 C   0  0  0  0  0  0  0  0  0  0  0  0
  -15.1311  -25.0142   -1.2885 N   0  0  0  0  0  0  0  0  0  0  0  0
  -22.8901  -21.8004   -1.2004 N   0  0  0  0  0  0  0  0  0  0  0  0
  -22.0838  -22.6910   -1.8072 C   0  0  0  0  0  0  0  0  0  0  0  0
  -22.3172  -23.1980   -3.0311 N   0  0  0  0  0  0  0  0  0  0  0  0
  -23.4109  -22.8265   -3.7395 C   0  0  0  0  0  0  0  0  0  0  0  0
  -24.3412  -21.8553   -3.1433 C   0  0  0  0  0  0  0  0  0  0  0  0
  -24.0147  -21.3428   -1.7917 C   0  0  0  0  0  0  0  0  0  0  0  0
  -24.8184  -20.4449   -1.1704 N   0  0  0  0  0  0  0  0  0  0  0  0
  -25.3245  -21.6637   -4.0429 N   0  0  0  0  0  0  0  0  0  0  0  0
  -25.0484  -22.4437   -5.1196 C   0  0  0  0  0  0  0  0  0  0  0  0
  -23.9089  -23.1364   -4.9389 N   0  0  0  0  0  0  0  0  0  0  0  0
  1  3  1  6  0  0  0
  1  5  2  0  0  0  0
  1  9  1  0  0  0  0
  1 18  1  0  0  0  0
  2  4  1  1  0  0  0
  2  6  2  0  0  0  0
  2 10  1  0  0  0  0
  2 17  1  0  0  0  0
  7  9  1  0  0  0  0
  8 10  1  0  0  0  0
 11  7  1  6  0  0  0
 11 13  1  0  0  0  0
 11 15  1  0  0  0  0
 12  8  1  1  0  0  0
 12 14  1  0  0  0  0
 12 16  1  0  0  0  0
 13 21  1  0  0  0  0
 14 22  1  0  0  0  0
 15 17  1  1  0  0  0
 15 19  1  0  0  0  0
 16 18  1  6  0  0  0
 16 20  1  0  0  0  0
 19 21  1  0  0  0  0
 20 22  1  0  0  0  0
 21 32  1  6  0  0  0
 22 42  1  1  0  0  0
 23 24  2  0  0  0  0
 23 28  1  0  0  0  0
 24 25  1  0  0  0  0
 25 26  2  0  0  0  0
 26 27  1  0  0  0  0
 26 32  1  0  0  0  0
 27 28  2  0  0  0  0
 27 30  1  0  0  0  0
 28 29  1  0  0  0  0
 30 31  2  0  0  0  0
 31 32  1  0  0  0  0
 33 34  2  0  0  0  0
 33 38  1  0  0  0  0
 34 35  1  0  0  0  0
 35 36  2  0  0  0  0
 36 37  1  0  0  0  0
 36 42  1  0  0  0  0
 37 38  2  0  0  0  0
 37 40  1  0  0  0  0
 38 39  1  0  0  0  0
 40 41  2  0  0  0  0
 41 42  1  0  0  0  0
M  CHG  2   3  -1   4  -1
M  END
>  <CHROM.1>
31.76762655,82.58393272,-19.47891286,-24.61225512,-3.48521553,-0.05384670
0.15536225,-2.34257157

>  <Name>
ligand

>  <RI>
0

>  <Rbt.Current_Directory>
/home/itssahil/PROJECTS/Mol_Feturizer/New_Systems/rnas/4QLN

>  <Rbt.Executable>
rbdock ($Id: //depot/dev/client3/rdock/2013.1/src/exe/rbdock.cxx#4 $)

>  <Rbt.Library>
libRbt.so (2013.1, Build901 2013/11/27)

>  <Rbt.Parameter_File>
/export/apps/rDock/src/rDock_2013.1_src/data/scripts/dock_solv.prm

>  <Rbt.Receptor>
prm/blind_docking_80.prm

>  <SCORE>
22.0466

>  <SCORE.INTER>
2.98006

>  <SCORE.INTER.CONST>
1

>  <SCORE.INTER.POLAR>
0

>  <SCORE.INTER.ROT>
2

>  <SCORE.INTER.SOLV>
29.0289

>  <SCORE.INTER.VDW>
-12.6229

>  <SCORE.INTER.norm>
0.0709539

>  <SCORE.INTRA>
1.03825

>  <SCORE.INTRA.DIHEDRAL>
0.000585208

>  <SCORE.INTRA.DIHEDRAL.0>
2.39985

>  <SCORE.INTRA.POLAR>
0

>  <SCORE.INTRA.POLAR.0>
0

>  <SCORE.INTRA.REPUL>
0

>  <SCORE.INTRA.REPUL.0>
0

>  <SCORE.INTRA.SOLV>
0.990168

>  <SCORE.INTRA.SOLV.lig_0>
-110.958

>  <SCORE.INTRA.VDW>
0.542869

>  <SCORE.INTRA.VDW.0>
-2.34644

>  <SCORE.INTRA.norm>
0.0247201

>  <SCORE.RESTR>
18.0283

>  <SCORE.RESTR.CAVITY>
18.0283

>  <SCORE.RESTR.norm>
0.429245

>  <SCORE.SYSTEM>
0

>  <SCORE.SYSTEM.CONST>
0

>  <SCORE.SYSTEM.DIHEDRAL>
0

>  <SCORE.SYSTEM.SOLV>
0

>  <SCORE.SYSTEM.norm>
0

>  <SCORE.heavy>
42

>  <SCORE.norm>
0.524919

>  <RMSD>
29.900

$$$$
ligand
 OpenBabel11021811513D
libRbt.so/2013.1/901 2013/11/27
 42 48  0  0  0  0  0  0  0  0999 V2000
  -22.1159  -39.7165  -23.9967 P   0  0  2  0  0  0  0  0  0  0  0  0
  -18.3294  -38.9483  -27.2504 P   0  0  1  0  0  0  0  0  0  0  0  0
  -22.0101  -40.8610  -23.0160 O   0  5  0  0  0  0  0  0  0  0  0  0
  -19.4189  -38.0912  -27.8495 O   0  5  0  0  0  0  0  0  0  0  0  0
  -23.4489  -39.0476  -24.2323 O   0  0  0  0  0  0  0  0  0  0  0  0
  -16.9078  -38.8119  -27.7402 O   0  0  0  0  0  0  0  0  0  0  0  0
  -21.7095  -41.5716  -25.8271 C   0  0  0  0  0  0  0  0  0  0  0  0
  -18.1153  -37.4352  -25.1014 C   0  0  0  0  0  0  0  0  0  0  0  0
  -21.5443  -40.2155  -25.4163 O   0  0  0  0  0  0  0  0  0  0  0  0
  -18.3363  -38.7302  -25.6551 O   0  0  0  0  0  0  0  0  0  0  0  0
  -20.5421  -41.9777  -26.7187 C   0  0  1  0  0  0  0  0  0  0  0  0
  -19.2022  -37.1244  -24.0802 C   0  0  1  0  0  0  0  0  0  0  0  0
  -20.9253  -43.0835  -27.5408 O   0  0  0  0  0  0  0  0  0  0  0  0
  -19.3268  -35.7088  -23.9238 O   0  0  0  0  0  0  0  0  0  0  0  0
  -20.1265  -40.8391  -27.6348 C   0  0  1  0  0  0  0  0  0  0  0  0
  -20.5515  -37.6627  -24.5290 C   0  0  1  0  0  0  0  0  0  0  0  0
  -18.7659  -40.4917  -27.3962 O   0  0  0  0  0  0  0  0  0  0  0  0
  -21.0532  -38.5862  -23.5675 O   0  0  0  0  0  0  0  0  0  0  0  0
  -20.2919  -41.3481  -29.0547 C   0  0  0  0  0  0  0  0  0  0  0  0
  -21.4778  -36.4665  -24.6339 C   0  0  0  0  0  0  0  0  0  0  0  0
  -20.8038  -42.7756  -28.9321 C   0  0  2  0  0  0  0  0  0  0  0  0
  -20.6448  -35.2547  -24.2411 C   0  0  2  0  0  0  0  0  0  0  0  0
  -25.8175  -44.2516  -28.4195 N   0  0  0  0  0  0  0  0  0  0  0  0
  -24.8041  -44.2995  -27.5352 C   0  0  0  0  0  0  0  0  0  0  0  0
  -23.5541  -43.8815  -27.8073 N   0  0  0  0  0  0  0  0  0  0  0  0
  -23.2400  -43.3738  -29.0232 C   0  0  0  0  0  0  0  0  0  0  0  0
  -24.2950  -43.2880  -30.0452 C   0  0  0  0  0  0  0  0  0  0  0  0
  -25.6461  -43.7688  -29.6705 C   0  0  0  0  0  0  0  0  0  0  0  0
  -26.6744  -43.7250  -30.5516 N   0  0  0  0  0  0  0  0  0  0  0  0
  -23.7243  -42.7558  -31.1422 N   0  0  0  0  0  0  0  0  0  0  0  0
  -22.4194  -42.5213  -30.8499 C   0  0  0  0  0  0  0  0  0  0  0  0
  -22.1306  -42.8894  -29.5868 N   0  0  0  0  0  0  0  0  0  0  0  0
  -20.9656  -30.2361  -25.7521 N   0  0  0  0  0  0  0  0  0  0  0  0
  -21.0814  -30.7825  -24.5276 C   0  0  0  0  0  0  0  0  0  0  0  0
  -20.9752  -32.1013  -24.2845 N   0  0  0  0  0  0  0  0  0  0  0  0
  -20.7385  -32.9761  -25.2919 C   0  0  0  0  0  0  0  0  0  0  0  0
  -20.5993  -32.4551  -26.6606 C   0  0  0  0  0  0  0  0  0  0  0  0
  -20.7288  -30.9906  -26.8468 C   0  0  0  0  0  0  0  0  0  0  0  0
  -20.6136  -30.4281  -28.0750 N   0  0  0  0  0  0  0  0  0  0  0  0
  -20.3720  -33.5184  -27.4547 N   0  0  0  0  0  0  0  0  0  0  0  0
  -20.3667  -34.6226  -26.6643 C   0  0  0  0  0  0  0  0  0  0  0  0
  -20.5851  -34.2997  -25.3763 N   0  0  0  0  0  0  0  0  0  0  0  0
  1  3  1  1  0  0  0
  1  5  2  0  0  0  0
  1  9  1  0  0  0  0
  1 18  1  0  0  0  0
  2  4  1  6  0  0  0
  2  6  2  0  0  0  0
  2 10  1  0  0  0  0
  2 17  1  0  0  0  0
  7  9  1  0  0  0  0
  8 10  1  0  0  0  0
 11  7  1  6  0  0  0
 11 13  1  0  0  0  0
 11 15  1  0  0  0  0
 12  8  1  6  0  0  0
 12 14  1  0  0  0  0
 12 16  1  0  0  0  0
 13 21  1  0  0  0  0
 14 22  1  0  0  0  0
 15 17  1  1  0  0  0
 15 19  1  0  0  0  0
 16 18  1  1  0  0  0
 16 20  1  0  0  0  0
 19 21  1  0  0  0  0
 20 22  1  0  0  0  0
 21 32  1  6  0  0  0
 22 42  1  6  0  0  0
 23 24  2  0  0  0  0
 23 28  1  0  0  0  0
 24 25  1  0  0  0  0
 25 26  2  0  0  0  0
 26 27  1  0  0  0  0
 26 32  1  0  0  0  0
 27 28  2  0  0  0  0
 27 30  1  0  0  0  0
 28 29  1  0  0  0  0
 30 31  2  0  0  0  0
 31 32  1  0  0  0  0
 33 34  2  0  0  0  0
 33 38  1  0  0  0  0
 34 35  1  0  0  0  0
 35 36  2  0  0  0  0
 36 37  1  0  0  0  0
 36 42  1  0  0  0  0
 37 38  2  0  0  0  0
 37 40  1  0  0  0  0
 38 39  1  0  0  0  0
 40 41  2  0  0  0  0
 41 42  1  0  0  0  0
M  CHG  2   3  -1   4  -1
M  END
>  <CHROM.1>
-8.26139797,-105.94137759,-21.18692488,-38.69722264,-26.63683126,-1.97062749
-0.78685475,0.01536969

>  <Name>
ligand

>  <RI>
0

>  <Rbt.Current_Directory>
/home/itssahil/PROJECTS/Mol_Feturizer/New_Systems/rnas/4QLN

>  <Rbt.Executable>
rbdock ($Id: //depot/dev/client3/rdock/2013.1/src/exe/rbdock.cxx#4 $)

>  <Rbt.Library>
libRbt.so (2013.1, Build901 2013/11/27)

>  <Rbt.Parameter_File>
/export/apps/rDock/src/rDock_2013.1_src/data/scripts/dock_solv.prm

>  <Rbt.Receptor>
prm/blind_docking_60.prm

>  <SCORE>
23.0657

>  <SCORE.INTER>
4.06727

>  <SCORE.INTER.CONST>
1

>  <SCORE.INTER.POLAR>
0

>  <SCORE.INTER.ROT>
2

>  <SCORE.INTER.SOLV>
34.6701

>  <SCORE.INTER.VDW>
-13.7785

>  <SCORE.INTER.norm>
0.0968399

>  <SCORE.INTRA>
0.984851

>  <SCORE.INTRA.DIHEDRAL>
-0.000245734

>  <SCORE.INTRA.DIHEDRAL.0>
2.39985

>  <SCORE.INTRA.POLAR>
0

>  <SCORE.INTRA.POLAR.0>
0

>  <SCORE.INTRA.REPUL>
0

>  <SCORE.INTRA.REPUL.0>
0

>  <SCORE.INTRA.SOLV>
0.0172103

>  <SCORE.INTRA.SOLV.lig_0>
-110.958

>  <SCORE.INTRA.VDW>
0.976369

>  <SCORE.INTRA.VDW.0>
-2.34644

>  <SCORE.INTRA.norm>
0.0234488

>  <SCORE.RESTR>
18.0136

>  <SCORE.RESTR.CAVITY>
18.0136

>  <SCORE.RESTR.norm>
0.428895

>  <SCORE.SYSTEM>
0

>  <SCORE.SYSTEM.CONST>
0

>  <SCORE.SYSTEM.DIHEDRAL>
0

>  <SCORE.SYSTEM.SOLV>
0

>  <SCORE.SYSTEM.norm>
0

>  <SCORE.heavy>
42

>  <SCORE.norm>
0.549184

>  <RMSD>
29.939

$$$$
ligand
 OpenBabel11021811513D
libRbt.so/2013.1/901 2013/11/27
 42 48  0  0  0  0  0  0  0  0999 V2000
  -22.1729  -22.6490   -2.3865 P   0  0  2  0  0  0  0  0  0  0  0  0
  -20.0278  -21.3691   -6.7768 P   0  0  1  0  0  0  0  0  0  0  0  0
  -22.4725  -21.5624   -1.3802 O   0  5  0  0  0  0  0  0  0  0  0  0
  -19.8400  -22.8674   -6.7761 O   0  5  0  0  0  0  0  0  0  0  0  0
  -22.1890  -24.0969   -1.9584 O   0  0  0  0  0  0  0  0  0  0  0  0
  -19.7833  -20.5791   -8.0400 O   0  0  0  0  0  0  0  0  0  0  0  0
  -19.7080  -21.7152   -2.2923 C   0  0  0  0  0  0  0  0  0  0  0  0
  -22.6517  -21.5486   -6.9679 C   0  0  0  0  0  0  0  0  0  0  0  0
  -20.7419  -22.3364   -3.0539 O   0  0  0  0  0  0  0  0  0  0  0  0
  -21.5191  -21.0477   -6.2616 O   0  0  0  0  0  0  0  0  0  0  0  0
  -18.8286  -20.8807   -3.2159 C   0  0  1  0  0  0  0  0  0  0  0  0
  -23.6034  -22.2273   -5.9908 C   0  0  1  0  0  0  0  0  0  0  0  0
  -17.5427  -20.6941   -2.6184 O   0  0  0  0  0  0  0  0  0  0  0  0
  -24.4223  -23.1680   -6.6896 O   0  0  0  0  0  0  0  0  0  0  0  0
  -18.6241  -21.5710   -4.5538 C   0  0  1  0  0  0  0  0  0  0  0  0
  -22.8419  -22.9840   -4.9142 C   0  0  1  0  0  0  0  0  0  0  0  0
  -19.1104  -20.7465   -5.6086 O   0  0  0  0  0  0  0  0  0  0  0  0
  -23.1842  -22.4785   -3.6271 O   0  0  0  0  0  0  0  0  0  0  0  0
  -17.1289  -21.7804   -4.7048 C   0  0  0  0  0  0  0  0  0  0  0  0
  -23.2623  -24.4363   -5.0311 C   0  0  0  0  0  0  0  0  0  0  0  0
  -16.4952  -21.2071   -3.4460 C   0  0  2  0  0  0  0  0  0  0  0  0
  -24.2635  -24.4928   -6.1761 C   0  0  2  0  0  0  0  0  0  0  0  0
  -14.3257  -25.9810   -3.7311 N   0  0  0  0  0  0  0  0  0  0  0  0
  -14.9599  -25.2584   -4.6729 C   0  0  0  0  0  0  0  0  0  0  0  0
  -15.4726  -24.0332   -4.4559 N   0  0  0  0  0  0  0  0  0  0  0  0
  -15.3738  -23.4435   -3.2404 C   0  0  0  0  0  0  0  0  0  0  0  0
  -14.6933  -24.1706   -2.1573 C   0  0  0  0  0  0  0  0  0  0  0  0
  -14.1556  -25.5152   -2.4734 C   0  0  0  0  0  0  0  0  0  0  0  0
  -13.5147  -26.2519   -1.5342 N   0  0  0  0  0  0  0  0  0  0  0  0
  -14.7344  -23.3723   -1.0741 N   0  0  0  0  0  0  0  0  0  0  0  0
  -15.3837  -22.2346   -1.4306 C   0  0  0  0  0  0  0  0  0  0  0  0
  -15.7647  -22.2767   -2.7218 N   0  0  0  0  0  0  0  0  0  0  0  0
  -20.0222  -26.5130   -8.5219 N   0  0  0  0  0  0  0  0  0  0  0  0
  -20.1165  -25.6576   -7.4871 C   0  0  0  0  0  0  0  0  0  0  0  0
  -21.2845  -25.2190   -6.9840 N   0  0  0  0  0  0  0  0  0  0  0  0
  -22.4643  -25.6288   -7.5093 C   0  0  0  0  0  0  0  0  0  0  0  0
  -22.4442  -26.5653   -8.6436 C   0  0  0  0  0  0  0  0  0  0  0  0
  -21.1183  -27.0024   -9.1407 C   0  0  0  0  0  0  0  0  0  0  0  0
  -21.0102  -27.8642  -10.1817 N   0  0  0  0  0  0  0  0  0  0  0  0
  -23.7293  -26.8061   -8.9653 N   0  0  0  0  0  0  0  0  0  0  0  0
  -24.5036  -26.0869   -8.1126 C   0  0  0  0  0  0  0  0  0  0  0  0
  -23.7503  -25.3856   -7.2455 N   0  0  0  0  0  0  0  0  0  0  0  0
  1  3  1  1  0  0  0
  1  5  2  0  0  0  0
  1  9  1  0  0  0  0
  1 18  1  0  0  0  0
  2  4  1  6  0  0  0
  2  6  2  0  0  0  0
  2 10  1  0  0  0  0
  2 17  1  0  0  0  0
  7  9  1  0  0  0  0
  8 10  1  0  0  0  0
 11  7  1  1  0  0  0
 11 13  1  0  0  0  0
 11 15  1  0  0  0  0
 12  8  1  6  0  0  0
 12 14  1  0  0  0  0
 12 16  1  0  0  0  0
 13 21  1  0  0  0  0
 14 22  1  0  0  0  0
 15 17  1  6  0  0  0
 15 19  1  0  0  0  0
 16 18  1  1  0  0  0
 16 20  1  0  0  0  0
 19 21  1  0  0  0  0
 20 22  1  0  0  0  0
 21 32  1  1  0  0  0
 22 42  1  6  0  0  0
 23 24  2  0  0  0  0
 23 28  1  0  0  0  0
 24 25  1  0  0  0  0
 25 26  2  0  0  0  0
 26 27  1  0  0  0  0
 26 32  1  0  0  0  0
 27 28  2  0  0  0  0
 27 30  1  0  0  0  0
 28 29  1  0  0  0  0
 30 31  2  0  0  0  0
 31 32  1  0  0  0  0
 33 34  2  0  0  0  0
 33 38  1  0  0  0  0
 34 35  1  0  0  0  0
 35 36  2  0  0  0  0
 36 37  1  0  0  0  0
 36 42  1  0  0  0  0
 37 38  2  0  0  0  0
 37 40  1  0  0  0  0
 38 39  1  0  0  0  0
 40 41  2  0  0  0  0
 41 42  1  0  0  0  0
M  CHG  2   3  -1   4  -1
M  END
>  <CHROM.1>
136.66886780,90.58361219,-19.89139823,-23.43341760,-5.01358269,2.64225016
0.30570885,-2.34924089

>  <Name>
ligand

>  <RI>
0

>  <Rbt.Current_Directory>
/home/itssahil/PROJECTS/Mol_Feturizer/New_Systems/rnas/4QLN

>  <Rbt.Executable>
rbdock ($Id: //depot/dev/client3/rdock/2013.1/src/exe/rbdock.cxx#4 $)

>  <Rbt.Library>
libRbt.so (2013.1, Build901 2013/11/27)

>  <Rbt.Parameter_File>
/export/apps/rDock/src/rDock_2013.1_src/data/scripts/dock_solv.prm

>  <Rbt.Receptor>
prm/blind_docking_40.prm

>  <SCORE>
59.7377

>  <SCORE.INTER>
52.338

>  <SCORE.INTER.CONST>
1

>  <SCORE.INTER.POLAR>
0

>  <SCORE.INTER.ROT>
2

>  <SCORE.INTER.SOLV>
46.7796

>  <SCORE.INTER.VDW>
14.3654

>  <SCORE.INTER.norm>
1.24614

>  <SCORE.INTRA>
2.58705

>  <SCORE.INTRA.DIHEDRAL>
0.000701182

>  <SCORE.INTRA.DIHEDRAL.0>
2.39985

>  <SCORE.INTRA.POLAR>
0

>  <SCORE.INTRA.POLAR.0>
0

>  <SCORE.INTRA.REPUL>
0

>  <SCORE.INTRA.REPUL.0>
0

>  <SCORE.INTRA.SOLV>
0.64444

>  <SCORE.INTRA.SOLV.lig_0>
-110.958

>  <SCORE.INTRA.VDW>
2.26448

>  <SCORE.INTRA.VDW.0>
-2.34644

>  <SCORE.INTRA.norm>
0.0615964

>  <SCORE.RESTR>
4.81266

>  <SCORE.RESTR.CAVITY>
4.81266

>  <SCORE.RESTR.norm>
0.114587

>  <SCORE.SYSTEM>
0

>  <SCORE.SYSTEM.CONST>
0

>  <SCORE.SYSTEM.DIHEDRAL>
0

>  <SCORE.SYSTEM.SOLV>
0

>  <SCORE.SYSTEM.norm>
0

>  <SCORE.heavy>
42

>  <SCORE.norm>
1.42233

>  <RMSD>
29.954

$$$$
ligand
 OpenBabel11021811513D
libRbt.so/2013.1/901 2013/11/27
 42 48  0  0  0  0  0  0  0  0999 V2000
  -19.0372  -25.5313   -6.4620 P   0  0  2  0  0  0  0  0  0  0  0  0
  -20.6220  -25.9490   -1.6841 P   0  0  1  0  0  0  0  0  0  0  0  0
  -18.3609  -26.7172   -7.1094 O   0  5  0  0  0  0  0  0  0  0  0  0
  -20.6949  -24.4556   -1.8953 O   0  5  0  0  0  0  0  0  0  0  0  0
  -18.9292  -24.1648   -7.0952 O   0  0  0  0  0  0  0  0  0  0  0  0
  -21.2723  -26.5717   -0.4722 O   0  0  0  0  0  0  0  0  0  0  0  0
  -17.1872  -25.8046   -4.6020 C   0  0  0  0  0  0  0  0  0  0  0  0
  -22.5489  -26.4381   -3.4165 C   0  0  0  0  0  0  0  0  0  0  0  0
  -18.5196  -25.4248   -4.9416 O   0  0  0  0  0  0  0  0  0  0  0  0
  -21.2064  -26.6732   -2.9981 O   0  0  0  0  0  0  0  0  0  0  0  0
  -17.1575  -26.3278   -3.1709 C   0  0  1  0  0  0  0  0  0  0  0  0
  -22.5675  -26.0871   -4.8989 C   0  0  1  0  0  0  0  0  0  0  0  0
  -15.8330  -26.2137   -2.6433 O   0  0  0  0  0  0  0  0  0  0  0  0
  -23.7522  -25.3478   -5.2047 O   0  0  0  0  0  0  0  0  0  0  0  0
  -18.0864  -25.5284   -2.2728 C   0  0  1  0  0  0  0  0  0  0  0  0
  -21.3724  -25.2269   -5.2774 C   0  0  1  0  0  0  0  0  0  0  0  0
  -19.0716  -26.3847   -1.7027 O   0  0  0  0  0  0  0  0  0  0  0  0
  -20.5978  -25.8803   -6.2785 O   0  0  0  0  0  0  0  0  0  0  0  0
  -17.2192  -24.9332   -1.1791 C   0  0  0  0  0  0  0  0  0  0  0  0
  -21.9336  -23.9269   -5.8203 C   0  0  0  0  0  0  0  0  0  0  0  0
  -15.8001  -25.3997   -1.4679 C   0  0  2  0  0  0  0  0  0  0  0  0
  -23.4481  -24.0602   -5.7467 C   0  0  2  0  0  0  0  0  0  0  0  0
  -13.8022  -22.0644   -4.9981 N   0  0  0  0  0  0  0  0  0  0  0  0
  -14.6398  -23.1046   -5.1641 C   0  0  0  0  0  0  0  0  0  0  0  0
  -15.0742  -23.8829   -4.1559 N   0  0  0  0  0  0  0  0  0  0  0  0
  -14.6797  -23.6530   -2.8805 C   0  0  0  0  0  0  0  0  0  0  0  0
  -13.7634  -22.5324   -2.6172 C   0  0  0  0  0  0  0  0  0  0  0  0
  -13.3288  -21.7214   -3.7792 C   0  0  0  0  0  0  0  0  0  0  0  0
  -12.4865  -20.6714   -3.6248 N   0  0  0  0  0  0  0  0  0  0  0  0
  -13.5348  -22.5270   -1.2905 N   0  0  0  0  0  0  0  0  0  0  0  0
  -14.2414  -23.5531   -0.7510 C   0  0  0  0  0  0  0  0  0  0  0  0
  -14.9241  -24.2242   -1.6985 N   0  0  0  0  0  0  0  0  0  0  0  0
  -23.8805  -22.2507   -0.8364 N   0  0  0  0  0  0  0  0  0  0  0  0
  -23.2447  -23.3397   -1.3069 C   0  0  0  0  0  0  0  0  0  0  0  0
  -23.2166  -23.6856   -2.6066 N   0  0  0  0  0  0  0  0  0  0  0  0
  -23.8469  -22.9317   -3.5394 C   0  0  0  0  0  0  0  0  0  0  0  0
  -24.5647  -21.7239   -3.1032 C   0  0  0  0  0  0  0  0  0  0  0  0
  -24.5492  -21.4100   -1.6549 C   0  0  0  0  0  0  0  0  0  0  0  0
  -25.1852  -20.3158   -1.1689 N   0  0  0  0  0  0  0  0  0  0  0  0
  -25.0912  -21.1691   -4.2113 N   0  0  0  0  0  0  0  0  0  0  0  0
  -24.7418  -21.9527   -5.2638 C   0  0  0  0  0  0  0  0  0  0  0  0
  -24.0009  -23.0025   -4.8638 N   0  0  0  0  0  0  0  0  0  0  0  0
  1  3  1  6  0  0  0
  1  5  2  0  0  0  0
  1  9  1  0  0  0  0
  1 18  1  0  0  0  0
  2  4  1  6  0  0  0
  2  6  2  0  0  0  0
  2 10  1  0  0  0  0
  2 17  1  0  0  0  0
  7  9  1  0  0  0  0
  8 10  1  0  0  0  0
 11  7  1  6  0  0  0
 11 13  1  0  0  0  0
 11 15  1  0  0  0  0
 12  8  1  1  0  0  0
 12 14  1  0  0  0  0
 12 16  1  0  0  0  0
 13 21  1  0  0  0  0
 14 22  1  0  0  0  0
 15 17  1  1  0  0  0
 15 19  1  0  0  0  0
 16 18  1  6  0  0  0
 16 20  1  0  0  0  0
 19 21  1  0  0  0  0
 20 22  1  0  0  0  0
 21 32  1  6  0  0  0
 22 42  1  1  0  0  0
 23 24  2  0  0  0  0
 23 28  1  0  0  0  0
 24 25  1  0  0  0  0
 25 26  2  0  0  0  0
 26 27  1  0  0  0  0
 26 32  1  0  0  0  0
 27 28  2  0  0  0  0
 27 30  1  0  0  0  0
 28 29  1  0  0  0  0
 30 31  2  0  0  0  0
 31 32  1  0  0  0  0
 33 34  2  0  0  0  0
 33 38  1  0  0  0  0
 34 35  1  0  0  0  0
 35 36  2  0  0  0  0
 36 37  1  0  0  0  0
 36 42  1  0  0  0  0
 37 38  2  0  0  0  0
 37 40  1  0  0  0  0
 38 39  1  0  0  0  0
 40 41  2  0  0  0  0
 41 42  1  0  0  0  0
M  CHG  2   3  -1   4  -1
M  END
>  <CHROM.1>
27.67794350,49.03289848,-19.51496747,-24.29364428,-3.53588352,-0.01612557
0.04038389,-2.14219159

>  <Name>
ligand

>  <RI>
0

>  <Rbt.Current_Directory>
/home/itssahil/PROJECTS/Mol_Feturizer/New_Systems/rnas/4QLN

>  <Rbt.Executable>
rbdock ($Id: //depot/dev/client3/rdock/2013.1/src/exe/rbdock.cxx#4 $)

>  <Rbt.Library>
libRbt.so (2013.1, Build901 2013/11/27)

>  <Rbt.Parameter_File>
/export/apps/rDock/src/rDock_2013.1_src/data/scripts/dock_solv.prm

>  <Rbt.Receptor>
prm/blind_docking_40.prm

>  <SCORE>
8.39067

>  <SCORE.INTER>
-0.138537

>  <SCORE.INTER.CONST>
1

>  <SCORE.INTER.POLAR>
0

>  <SCORE.INTER.ROT>
2

>  <SCORE.INTER.SOLV>
32.5217

>  <SCORE.INTER.VDW>
-15.8662

>  <SCORE.INTER.norm>
-0.00329849

>  <SCORE.INTRA>
-0.247857

>  <SCORE.INTRA.DIHEDRAL>
-0.000519406

>  <SCORE.INTRA.DIHEDRAL.0>
2.39985

>  <SCORE.INTRA.POLAR>
0

>  <SCORE.INTRA.POLAR.0>
0

>  <SCORE.INTRA.REPUL>
0

>  <SCORE.INTRA.REPUL.0>
0

>  <SCORE.INTRA.SOLV>
1.1772

>  <SCORE.INTRA.SOLV.lig_0>
-110.958

>  <SCORE.INTRA.VDW>
-0.836197

>  <SCORE.INTRA.VDW.0>
-2.34644

>  <SCORE.INTRA.norm>
-0.00590136

>  <SCORE.RESTR>
8.77706

>  <SCORE.RESTR.CAVITY>
8.77706

>  <SCORE.RESTR.norm>
0.208978

>  <SCORE.SYSTEM>
0

>  <SCORE.SYSTEM.CONST>
0

>  <SCORE.SYSTEM.DIHEDRAL>
0

>  <SCORE.SYSTEM.SOLV>
0

>  <SCORE.SYSTEM.norm>
0

>  <SCORE.heavy>
42

>  <SCORE.norm>
0.199778

>  <RMSD>
29.990

$$$$
ligand
 OpenBabel11021811513D
libRbt.so/2013.1/901 2013/11/27
 42 48  0  0  0  0  0  0  0  0999 V2000
  -19.4337  -25.1222   -6.4949 P   0  0  2  0  0  0  0  0  0  0  0  0
  -20.3846  -26.5014   -1.7296 P   0  0  1  0  0  0  0  0  0  0  0  0
  -18.8886  -26.1539   -7.4548 O   0  5  0  0  0  0  0  0  0  0  0  0
  -20.4357  -24.9960   -1.6226 O   0  5  0  0  0  0  0  0  0  0  0  0
  -19.3656  -23.6556   -6.8474 O   0  0  0  0  0  0  0  0  0  0  0  0
  -20.8888  -27.3558   -0.5915 O   0  0  0  0  0  0  0  0  0  0  0  0
  -17.3637  -25.7802   -4.9986 C   0  0  0  0  0  0  0  0  0  0  0  0
  -22.5390  -26.6155   -3.2458 C   0  0  0  0  0  0  0  0  0  0  0  0
  -18.7161  -25.3320   -5.0694 O   0  0  0  0  0  0  0  0  0  0  0  0
  -21.1614  -26.9381   -3.0707 O   0  0  0  0  0  0  0  0  0  0  0  0
  -17.1619  -26.5855   -3.7206 C   0  0  1  0  0  0  0  0  0  0  0  0
  -22.7422  -25.9682   -4.6099 C   0  0  1  0  0  0  0  0  0  0  0  0
  -15.7763  -26.5887   -3.3665 O   0  0  0  0  0  0  0  0  0  0  0  0
  -23.9321  -25.1758   -4.5955 O   0  0  0  0  0  0  0  0  0  0  0  0
  -17.9369  -25.9822   -2.5613 C   0  0  1  0  0  0  0  0  0  0  0  0
  -21.5801  -25.0548   -4.9661 C   0  0  1  0  0  0  0  0  0  0  0  0
  -18.8655  -26.9320   -2.0472 O   0  0  0  0  0  0  0  0  0  0  0  0
  -20.9669  -25.4934   -6.1747 O   0  0  0  0  0  0  0  0  0  0  0  0
  -16.9133  -25.6280   -1.4986 C   0  0  0  0  0  0  0  0  0  0  0  0
  -22.1652  -23.6684   -5.1532 C   0  0  0  0  0  0  0  0  0  0  0  0
  -15.5611  -26.0328   -2.0665 C   0  0  2  0  0  0  0  0  0  0  0  0
  -23.6602  -23.8061   -4.9023 C   0  0  2  0  0  0  0  0  0  0  0  0
  -14.1116  -21.9211   -4.9941 N   0  0  0  0  0  0  0  0  0  0  0  0
  -15.0197  -22.8836   -5.2390 C   0  0  0  0  0  0  0  0  0  0  0  0
  -15.2910  -23.8897   -4.3874 N   0  0  0  0  0  0  0  0  0  0  0  0
  -14.6448  -23.9897   -3.2011 C   0  0  0  0  0  0  0  0  0  0  0  0
  -13.6364  -22.9740   -2.8598 C   0  0  0  0  0  0  0  0  0  0  0  0
  -13.3930  -21.8975   -3.8492 C   0  0  0  0  0  0  0  0  0  0  0  0
  -12.4820  -20.9227   -3.6138 N   0  0  0  0  0  0  0  0  0  0  0  0
  -13.1547  -23.3037   -1.6467 N   0  0  0  0  0  0  0  0  0  0  0  0
  -13.7968  -24.4307   -1.2457 C   0  0  0  0  0  0  0  0  0  0  0  0
  -14.6852  -24.8396   -2.1719 N   0  0  0  0  0  0  0  0  0  0  0  0
  -24.1419  -23.4286    0.3129 N   0  0  0  0  0  0  0  0  0  0  0  0
  -23.7087  -24.4519   -0.4465 C   0  0  0  0  0  0  0  0  0  0  0  0
  -23.6375  -24.4084   -1.7892 N   0  0  0  0  0  0  0  0  0  0  0  0
  -24.0098  -23.2967   -2.4685 C   0  0  0  0  0  0  0  0  0  0  0  0
  -24.4949  -22.1346   -1.7081 C   0  0  0  0  0  0  0  0  0  0  0  0
  -24.5437  -22.2603   -0.2323 C   0  0  0  0  0  0  0  0  0  0  0  0
  -24.9774  -21.2365    0.5436 N   0  0  0  0  0  0  0  0  0  0  0  0
  -24.7923  -21.1817   -2.6117 N   0  0  0  0  0  0  0  0  0  0  0  0
  -24.5219  -21.6891   -3.8419 C   0  0  0  0  0  0  0  0  0  0  0  0
  -24.0561  -22.9488   -3.7567 N   0  0  0  0  0  0  0  0  0  0  0  0
  1  3  1  6  0  0  0
  1  5  2  0  0  0  0
  1  9  1  0  0  0  0
  1 18  1  0  0  0  0
  2  4  1  1  0  0  0
  2  6  2  0  0  0  0
  2 10  1  0  0  0  0
  2 17  1  0  0  0  0
  7  9  1  0  0  0  0
  8 10  1  0  0  0  0
 11  7  1  6  0  0  0
 11 13  1  0  0  0  0
 11 15  1  0  0  0  0
 12  8  1  1  0  0  0
 12 14  1  0  0  0  0
 12 16  1  0  0  0  0
 13 21  1  0  0  0  0
 14 22  1  0  0  0  0
 15 17  1  1  0  0  0
 15 19  1  0  0  0  0
 16 18  1  6  0  0  0
 16 20  1  0  0  0  0
 19 21  1  0  0  0  0
 20 22  1  0  0  0  0
 21 32  1  6  0  0  0
 22 42  1  1  0  0  0
 23 24  2  0  0  0  0
 23 28  1  0  0  0  0
 24 25  1  0  0  0  0
 25 26  2  0  0  0  0
 26 27  1  0  0  0  0
 26 32  1  0  0  0  0
 27 28  2  0  0  0  0
 27 30  1  0  0  0  0
 28 29  1  0  0  0  0
 30 31  2  0  0  0  0
 31 32  1  0  0  0  0
 33 34  2  0  0  0  0
 33 38  1  0  0  0  0
 34 35  1  0  0  0  0
 35 36  2  0  0  0  0
 36 37  1  0  0  0  0
 36 42  1  0  0  0  0
 37 38  2  0  0  0  0
 37 40  1  0  0  0  0
 38 39  1  0  0  0  0
 40 41  2  0  0  0  0
 41 42  1  0  0  0  0
M  CHG  2   3  -1   4  -1
M  END
>  <CHROM.1>
32.35549599,32.08542901,-19.55555020,-24.52863107,-3.33166985,0.11874815
-0.00847119,-1.86496641

>  <Name>
ligand

>  <RI>
0

>  <Rbt.Current_Directory>
/home/itssahil/PROJECTS/Mol_Feturizer/New_Systems/rnas/4QLN

>  <Rbt.Executable>
rbdock ($Id: //depot/dev/client3/rdock/2013.1/src/exe/rbdock.cxx#4 $)

>  <Rbt.Library>
libRbt.so (2013.1, Build901 2013/11/27)

>  <Rbt.Parameter_File>
/export/apps/rDock/src/rDock_2013.1_src/data/scripts/dock_solv.prm

>  <Rbt.Receptor>
prm/blind_docking_40.prm

>  <SCORE>
5.7726

>  <SCORE.INTER>
-3.53879

>  <SCORE.INTER.CONST>
1

>  <SCORE.INTER.POLAR>
0

>  <SCORE.INTER.ROT>
2

>  <SCORE.INTER.SOLV>
24.3661

>  <SCORE.INTER.VDW>
-15.4146

>  <SCORE.INTER.norm>
-0.084257

>  <SCORE.INTRA>
-0.35615

>  <SCORE.INTRA.DIHEDRAL>
-0.00085828

>  <SCORE.INTRA.DIHEDRAL.0>
2.39985

>  <SCORE.INTRA.POLAR>
0

>  <SCORE.INTRA.POLAR.0>
0

>  <SCORE.INTRA.REPUL>
0

>  <SCORE.INTRA.REPUL.0>
0

>  <SCORE.INTRA.SOLV>
0.557562

>  <SCORE.INTRA.SOLV.lig_0>
-110.958

>  <SCORE.INTRA.VDW>
-0.634502

>  <SCORE.INTRA.VDW.0>
-2.34644

>  <SCORE.INTRA.norm>
-0.00847977

>  <SCORE.RESTR>
9.66754

>  <SCORE.RESTR.CAVITY>
9.66754

>  <SCORE.RESTR.norm>
0.23018

>  <SCORE.SYSTEM>
0

>  <SCORE.SYSTEM.CONST>
0

>  <SCORE.SYSTEM.DIHEDRAL>
0

>  <SCORE.SYSTEM.SOLV>
0

>  <SCORE.SYSTEM.norm>
0

>  <SCORE.heavy>
42

>  <SCORE.norm>
0.137443

>  <RMSD>
30.101

$$$$
ligand
 OpenBabel11021811513D
libRbt.so/2013.1/901 2013/11/27
 42 48  0  0  0  0  0  0  0  0999 V2000
  -20.5440  -27.3897   -3.2251 P   0  0  2  0  0  0  0  0  0  0  0  0
  -18.3670  -23.5057   -5.6103 P   0  0  1  0  0  0  0  0  0  0  0  0
  -21.1723  -28.4889   -4.0497 O   0  5  0  0  0  0  0  0  0  0  0  0
  -18.4677  -22.9742   -4.2005 O   0  5  0  0  0  0  0  0  0  0  0  0
  -20.8613  -27.2778   -1.7531 O   0  0  0  0  0  0  0  0  0  0  0  0
  -17.5184  -22.7840   -6.6294 O   0  0  0  0  0  0  0  0  0  0  0  0
  -22.1228  -25.7896   -4.6051 C   0  0  0  0  0  0  0  0  0  0  0  0
  -16.6217  -25.3664   -4.9430 C   0  0  0  0  0  0  0  0  0  0  0  0
  -20.8844  -25.9796   -3.9228 O   0  0  0  0  0  0  0  0  0  0  0  0
  -17.8749  -25.0371   -5.5378 O   0  0  0  0  0  0  0  0  0  0  0  0
  -21.9296  -24.7893   -5.7385 C   0  0  1  0  0  0  0  0  0  0  0  0
  -16.8149  -26.4939   -3.9368 C   0  0  1  0  0  0  0  0  0  0  0  0
  -23.1864  -24.1972   -6.0783 O   0  0  0  0  0  0  0  0  0  0  0  0
  -15.7540  -26.4726   -2.9788 O   0  0  0  0  0  0  0  0  0  0  0  0
  -20.9837  -23.6720   -5.3319 C   0  0  1  0  0  0  0  0  0  0  0  0
  -18.1258  -26.3413   -3.1818 C   0  0  1  0  0  0  0  0  0  0  0  0
  -19.8579  -23.6433   -6.2039 O   0  0  0  0  0  0  0  0  0  0  0  0
  -18.9459  -27.4871   -3.3906 O   0  0  0  0  0  0  0  0  0  0  0  0
  -21.7688  -22.3792   -5.4537 C   0  0  0  0  0  0  0  0  0  0  0  0
  -17.7645  -26.2210   -1.7139 C   0  0  0  0  0  0  0  0  0  0  0  0
  -23.1591  -22.7752   -5.9280 C   0  0  2  0  0  0  0  0  0  0  0  0
  -16.2464  -26.3078   -1.6467 C   0  0  2  0  0  0  0  0  0  0  0  0
  -24.1703  -21.9258   -0.8452 N   0  0  0  0  0  0  0  0  0  0  0  0
  -23.0392  -22.3362   -1.4482 C   0  0  0  0  0  0  0  0  0  0  0  0
  -22.9225  -22.5136   -2.7771 N   0  0  0  0  0  0  0  0  0  0  0  0
  -23.9696  -22.2805   -3.6042 C   0  0  0  0  0  0  0  0  0  0  0  0
  -25.2422  -21.8284   -3.0203 C   0  0  0  0  0  0  0  0  0  0  0  0
  -25.2928  -21.6568   -1.5489 C   0  0  0  0  0  0  0  0  0  0  0  0
  -26.4252  -21.2435   -0.9305 N   0  0  0  0  0  0  0  0  0  0  0  0
  -26.1014  -21.6739   -4.0451 N   0  0  0  0  0  0  0  0  0  0  0  0
  -25.4389  -21.9983   -5.1849 C   0  0  0  0  0  0  0  0  0  0  0  0
  -24.1682  -22.3596   -4.9223 N   0  0  0  0  0  0  0  0  0  0  0  0
  -13.5893  -21.8664   -2.5330 N   0  0  0  0  0  0  0  0  0  0  0  0
  -13.9308  -22.8565   -3.3783 C   0  0  0  0  0  0  0  0  0  0  0  0
  -14.6214  -23.9501   -3.0086 N   0  0  0  0  0  0  0  0  0  0  0  0
  -15.0222  -24.1169   -1.7250 C   0  0  0  0  0  0  0  0  0  0  0  0
  -14.6870  -23.0767   -0.7403 C   0  0  0  0  0  0  0  0  0  0  0  0
  -13.9244  -21.9021   -1.2253 C   0  0  0  0  0  0  0  0  0  0  0  0
  -13.5752  -20.8981   -0.3839 N   0  0  0  0  0  0  0  0  0  0  0  0
  -15.1960  -23.4848    0.4375 N   0  0  0  0  0  0  0  0  0  0  0  0
  -15.8030  -24.6809    0.2256 C   0  0  0  0  0  0  0  0  0  0  0  0
  -15.6993  -25.0575   -1.0622 N   0  0  0  0  0  0  0  0  0  0  0  0
  1  3  1  6  0  0  0
  1  5  2  0  0  0  0
  1  9  1  0  0  0  0
  1 18  1  0  0  0  0
  2  4  1  1  0  0  0
  2  6  2  0  0  0  0
  2 10  1  0  0  0  0
  2 17  1  0  0  0  0
  7  9  1  0  0  0  0
  8 10  1  0  0  0  0
 11  7  1  1  0  0  0
 11 13  1  0  0  0  0
 11 15  1  0  0  0  0
 12  8  1  6  0  0  0
 12 14  1  0  0  0  0
 12 16  1  0  0  0  0
 13 21  1  0  0  0  0
 14 22  1  0  0  0  0
 15 17  1  6  0  0  0
 15 19  1  0  0  0  0
 16 18  1  1  0  0  0
 16 20  1  0  0  0  0
 19 21  1  0  0  0  0
 20 22  1  0  0  0  0
 21 32  1  1  0  0  0
 22 42  1  6  0  0  0
 23 24  2  0  0  0  0
 23 28  1  0  0  0  0
 24 25  1  0  0  0  0
 25 26  2  0  0  0  0
 26 27  1  0  0  0  0
 26 32  1  0  0  0  0
 27 28  2  0  0  0  0
 27 30  1  0  0  0  0
 28 29  1  0  0  0  0
 30 31  2  0  0  0  0
 31 32  1  0  0  0  0
 33 34  2  0  0  0  0
 33 38  1  0  0  0  0
 34 35  1  0  0  0  0
 35 36  2  0  0  0  0
 36 37  1  0  0  0  0
 36 42  1  0  0  0  0
 37 38  2  0  0  0  0
 37 40  1  0  0  0  0
 38 39  1  0  0  0  0
 40 41  2  0  0  0  0
 41 42  1  0  0  0  0
M  CHG  2   3  -1   4  -1
M  END
>  <CHROM.1>
87.65099369,9.60599806,-19.55464194,-24.13801699,-3.40819167,3.09842716,-0.21931433
0.47647520

>  <Name>
ligand

>  <RI>
0

>  <Rbt.Current_Directory>
/home/itssahil/PROJECTS/Mol_Feturizer/New_Systems/rnas/4QLN

>  <Rbt.Executable>
rbdock ($Id: //depot/dev/client3/rdock/2013.1/src/exe/rbdock.cxx#4 $)

>  <Rbt.Library>
libRbt.so (2013.1, Build901 2013/11/27)

>  <Rbt.Parameter_File>
/export/apps/rDock/src/rDock_2013.1_src/data/scripts/dock_solv.prm

>  <Rbt.Receptor>
prm/blind_docking_40.prm

>  <SCORE>
6.87959

>  <SCORE.INTER>
-2.64275

>  <SCORE.INTER.CONST>
1

>  <SCORE.INTER.POLAR>
0

>  <SCORE.INTER.ROT>
2

>  <SCORE.INTER.SOLV>
26.1288

>  <SCORE.INTER.VDW>
-15.4048

>  <SCORE.INTER.norm>
-0.0629226

>  <SCORE.INTRA>
0.620993

>  <SCORE.INTRA.DIHEDRAL>
4.67493e-05

>  <SCORE.INTRA.DIHEDRAL.0>
2.39985

>  <SCORE.INTRA.POLAR>
0

>  <SCORE.INTRA.POLAR.0>
0

>  <SCORE.INTRA.REPUL>
0

>  <SCORE.INTRA.REPUL.0>
0

>  <SCORE.INTRA.SOLV>
-0.0390109

>  <SCORE.INTRA.SOLV.lig_0>
-110.958

>  <SCORE.INTRA.VDW>
0.640475

>  <SCORE.INTRA.VDW.0>
-2.34644

>  <SCORE.INTRA.norm>
0.0147856

>  <SCORE.RESTR>
8.90135

>  <SCORE.RESTR.CAVITY>
8.90135

>  <SCORE.RESTR.norm>
0.211937

>  <SCORE.SYSTEM>
0

>  <SCORE.SYSTEM.CONST>
0

>  <SCORE.SYSTEM.DIHEDRAL>
0

>  <SCORE.SYSTEM.SOLV>
0

>  <SCORE.SYSTEM.norm>
0

>  <SCORE.heavy>
42

>  <SCORE.norm>
0.1638

>  <RMSD>
30.248

$$$$
ligand
 OpenBabel11021811513D
libRbt.so/2013.1/901 2013/11/27
 42 48  0  0  0  0  0  0  0  0999 V2000
  -19.1862  -27.5726   -3.2421 P   0  0  2  0  0  0  0  0  0  0  0  0
  -18.0191  -22.7643   -4.2580 P   0  0  1  0  0  0  0  0  0  0  0  0
  -19.9943  -28.3531   -4.2524 O   0  5  0  0  0  0  0  0  0  0  0  0
  -17.6979  -22.8466   -2.7847 O   0  5  0  0  0  0  0  0  0  0  0  0
  -19.0342  -28.0954   -1.8337 O   0  0  0  0  0  0  0  0  0  0  0  0
  -17.5596  -21.5735   -5.0645 O   0  0  0  0  0  0  0  0  0  0  0  0
  -21.1796  -25.8486   -3.3467 C   0  0  0  0  0  0  0  0  0  0  0  0
  -16.0785  -24.4202   -4.9255 C   0  0  0  0  0  0  0  0  0  0  0  0
  -19.7839  -26.0801   -3.1642 O   0  0  0  0  0  0  0  0  0  0  0  0
  -17.4668  -24.0988   -4.9697 O   0  0  0  0  0  0  0  0  0  0  0  0
  -21.3895  -24.4697   -3.9609 C   0  0  1  0  0  0  0  0  0  0  0  0
  -15.9031  -25.8650   -4.4752 C   0  0  1  0  0  0  0  0  0  0  0  0
  -22.7126  -24.0098   -3.6724 O   0  0  0  0  0  0  0  0  0  0  0  0
  -14.5987  -26.0414   -3.9173 O   0  0  0  0  0  0  0  0  0  0  0  0
  -20.4104  -23.4577   -3.3902 C   0  0  1  0  0  0  0  0  0  0  0  0
  -16.9192  -26.2375   -3.4073 C   0  0  1  0  0  0  0  0  0  0  0  0
  -19.6137  -22.9061   -4.4341 O   0  0  0  0  0  0  0  0  0  0  0  0
  -17.7162  -27.3313   -3.8519 O   0  0  0  0  0  0  0  0  0  0  0  0
  -21.2464  -22.3689   -2.7435 C   0  0  0  0  0  0  0  0  0  0  0  0
  -16.1246  -26.6383   -2.1795 C   0  0  0  0  0  0  0  0  0  0  0  0
  -22.6980  -22.7746   -2.9516 C   0  0  2  0  0  0  0  0  0  0  0  0
  -14.6587  -26.4911   -2.5615 C   0  0  2  0  0  0  0  0  0  0  0  0
  -25.0732  -20.4328    1.1046 N   0  0  0  0  0  0  0  0  0  0  0  0
  -24.5509  -19.9049   -0.0177 C   0  0  0  0  0  0  0  0  0  0  0  0
  -23.9645  -20.6347   -0.9845 N   0  0  0  0  0  0  0  0  0  0  0  0
  -23.8666  -21.9814   -0.8763 C   0  0  0  0  0  0  0  0  0  0  0  0
  -24.4151  -22.6340    0.3229 C   0  0  0  0  0  0  0  0  0  0  0  0
  -25.0449  -21.7631    1.3436 C   0  0  0  0  0  0  0  0  0  0  0  0
  -25.5749  -22.2827    2.4770 N   0  0  0  0  0  0  0  0  0  0  0  0
  -24.1893  -23.9534    0.1792 N   0  0  0  0  0  0  0  0  0  0  0  0
  -23.5525  -24.1312   -1.0066 C   0  0  0  0  0  0  0  0  0  0  0  0
  -23.3603  -22.9559   -1.6360 N   0  0  0  0  0  0  0  0  0  0  0  0
  -14.2186  -21.4206   -1.2696 N   0  0  0  0  0  0  0  0  0  0  0  0
  -14.9752  -22.0133   -2.2118 C   0  0  0  0  0  0  0  0  0  0  0  0
  -14.9878  -23.3399   -2.4349 N   0  0  0  0  0  0  0  0  0  0  0  0
  -14.2151  -24.1750   -1.6990 C   0  0  0  0  0  0  0  0  0  0  0  0
  -13.3594  -23.6023   -0.6483 C   0  0  0  0  0  0  0  0  0  0  0  0
  -13.4015  -22.1324   -0.4637 C   0  0  0  0  0  0  0  0  0  0  0  0
  -12.6448  -21.5237    0.4823 N   0  0  0  0  0  0  0  0  0  0  0  0
  -12.7084  -24.6340   -0.0788 N   0  0  0  0  0  0  0  0  0  0  0  0
  -13.1112  -25.7671   -0.7095 C   0  0  0  0  0  0  0  0  0  0  0  0
  -14.0084  -25.4938   -1.6745 N   0  0  0  0  0  0  0  0  0  0  0  0
  1  3  1  6  0  0  0
  1  5  2  0  0  0  0
  1  9  1  0  0  0  0
  1 18  1  0  0  0  0
  2  4  1  1  0  0  0
  2  6  2  0  0  0  0
  2 10  1  0  0  0  0
  2 17  1  0  0  0  0
  7  9  1  0  0  0  0
  8 10  1  0  0  0  0
 11  7  1  1  0  0  0
 11 13  1  0  0  0  0
 11 15  1  0  0  0  0
 12  8  1  1  0  0  0
 12 14  1  0  0  0  0
 12 16  1  0  0  0  0
 13 21  1  0  0  0  0
 14 22  1  0  0  0  0
 15 17  1  6  0  0  0
 15 19  1  0  0  0  0
 16 18  1  6  0  0  0
 16 20  1  0  0  0  0
 19 21  1  0  0  0  0
 20 22  1  0  0  0  0
 21 32  1  1  0  0  0
 22 42  1  1  0  0  0
 23 24  2  0  0  0  0
 23 28  1  0  0  0  0
 24 25  1  0  0  0  0
 25 26  2  0  0  0  0
 26 27  1  0  0  0  0
 26 32  1  0  0  0  0
 27 28  2  0  0  0  0
 27 30  1  0  0  0  0
 28 29  1  0  0  0  0
 30 31  2  0  0  0  0
 31 32  1  0  0  0  0
 33 34  2  0  0  0  0
 33 38  1  0  0  0  0
 34 35  1  0  0  0  0
 35 36  2  0  0  0  0
 36 37  1  0  0  0  0
 36 42  1  0  0  0  0
 37 38  2  0  0  0  0
 37 40  1  0  0  0  0
 38 39  1  0  0  0  0
 40 41  2  0  0  0  0
 41 42  1  0  0  0  0
M  CHG  2   3  -1   4  -1
M  END
>  <CHROM.1>
-159.64132245,47.23267359,-18.81313894,-24.06342589,-2.30388618,0.28931103
-0.01804043,-2.55549584

>  <Name>
ligand

>  <RI>
0

>  <Rbt.Current_Directory>
/home/itssahil/PROJECTS/Mol_Feturizer/New_Systems/rnas/4QLN

>  <Rbt.Executable>
rbdock ($Id: //depot/dev/client3/rdock/2013.1/src/exe/rbdock.cxx#4 $)

>  <Rbt.Library>
libRbt.so (2013.1, Build901 2013/11/27)

>  <Rbt.Parameter_File>
/export/apps/rDock/src/rDock_2013.1_src/data/scripts/dock_solv.prm

>  <Rbt.Receptor>
prm/blind_docking_40.prm

>  <SCORE>
9.21974

>  <SCORE.INTER>
-0.738868

>  <SCORE.INTER.CONST>
1

>  <SCORE.INTER.POLAR>
0

>  <SCORE.INTER.ROT>
2

>  <SCORE.INTER.SOLV>
21.8902

>  <SCORE.INTER.VDW>
-12.7226

>  <SCORE.INTER.norm>
-0.0175921

>  <SCORE.INTRA>
0.0274762

>  <SCORE.INTRA.DIHEDRAL>
-8.83907e-05

>  <SCORE.INTRA.DIHEDRAL.0>
2.39985

>  <SCORE.INTRA.POLAR>
0

>  <SCORE.INTRA.POLAR.0>
0

>  <SCORE.INTRA.REPUL>
0

>  <SCORE.INTRA.REPUL.0>
0

>  <SCORE.INTRA.SOLV>
1.04945

>  <SCORE.INTRA.SOLV.lig_0>
-110.958

>  <SCORE.INTRA.VDW>
-0.497205

>  <SCORE.INTRA.VDW.0>
-2.34644

>  <SCORE.INTRA.norm>
0.000654195

>  <SCORE.RESTR>
9.93113

>  <SCORE.RESTR.CAVITY>
9.93113

>  <SCORE.RESTR.norm>
0.236456

>  <SCORE.SYSTEM>
0

>  <SCORE.SYSTEM.CONST>
0

>  <SCORE.SYSTEM.DIHEDRAL>
0

>  <SCORE.SYSTEM.SOLV>
0

>  <SCORE.SYSTEM.norm>
0

>  <SCORE.heavy>
42

>  <SCORE.norm>
0.219518

>  <RMSD>
30.272

$$$$
ligand
 OpenBabel11021811513D
libRbt.so/2013.1/901 2013/11/27
 42 48  0  0  0  0  0  0  0  0999 V2000
  -22.2513  -22.6213   -2.3920 P   0  0  2  0  0  0  0  0  0  0  0  0
  -20.0960  -21.3519   -6.7804 P   0  0  1  0  0  0  0  0  0  0  0  0
  -22.5658  -21.5307   -1.3947 O   0  5  0  0  0  0  0  0  0  0  0  0
  -19.8945  -22.8484   -6.7685 O   0  5  0  0  0  0  0  0  0  0  0  0
  -22.2563  -24.0663   -1.9541 O   0  0  0  0  0  0  0  0  0  0  0  0
  -19.8524  -20.5683   -8.0477 O   0  0  0  0  0  0  0  0  0  0  0  0
  -19.7954  -21.6644   -2.2921 C   0  0  0  0  0  0  0  0  0  0  0  0
  -22.7171  -21.5567   -6.9832 C   0  0  0  0  0  0  0  0  0  0  0  0
  -20.8199  -22.3003   -3.0545 O   0  0  0  0  0  0  0  0  0  0  0  0
  -21.5927  -21.0406   -6.2748 O   0  0  0  0  0  0  0  0  0  0  0  0
  -18.9191  -20.8282   -3.2170 C   0  0  1  0  0  0  0  0  0  0  0  0
  -23.6675  -22.2374   -6.0062 C   0  0  1  0  0  0  0  0  0  0  0  0
  -17.6379  -20.6257   -2.6145 O   0  0  0  0  0  0  0  0  0  0  0  0
  -24.4743  -23.1903   -6.7025 O   0  0  0  0  0  0  0  0  0  0  0  0
  -18.7017  -21.5258   -4.5492 C   0  0  1  0  0  0  0  0  0  0  0  0
  -22.9045  -22.9797   -4.9206 C   0  0  1  0  0  0  0  0  0  0  0  0
  -19.1902  -20.7129   -5.6119 O   0  0  0  0  0  0  0  0  0  0  0  0
  -23.2579  -22.4686   -3.6388 O   0  0  0  0  0  0  0  0  0  0  0  0
  -17.2038  -21.7225   -4.6913 C   0  0  0  0  0  0  0  0  0  0  0  0
  -23.3111  -24.4366   -5.0296 C   0  0  0  0  0  0  0  0  0  0  0  0
  -16.5818  -21.1348   -3.4334 C   0  0  2  0  0  0  0  0  0  0  0  0
  -24.3060  -24.5101   -6.1792 C   0  0  2  0  0  0  0  0  0  0  0  0
  -16.8623  -25.8116   -1.0611 N   0  0  0  0  0  0  0  0  0  0  0  0
  -17.8192  -25.0910   -1.6745 C   0  0  0  0  0  0  0  0  0  0  0  0
  -17.6015  -23.8921   -2.2459 N   0  0  0  0  0  0  0  0  0  0  0  0
  -16.3691  -23.3300   -2.2343 C   0  0  0  0  0  0  0  0  0  0  0  0
  -15.2687  -24.0571   -1.5823 C   0  0  0  0  0  0  0  0  0  0  0  0
  -15.5871  -25.3712   -0.9749 C   0  0  0  0  0  0  0  0  0  0  0  0
  -14.6324  -26.1062   -0.3554 N   0  0  0  0  0  0  0  0  0  0  0  0
  -14.1710  -23.2886   -1.7117 N   0  0  0  0  0  0  0  0  0  0  0  0
  -14.5350  -22.1682   -2.3864 C   0  0  0  0  0  0  0  0  0  0  0  0
  -15.8451  -22.1928   -2.6982 N   0  0  0  0  0  0  0  0  0  0  0  0
  -20.0346  -26.4666   -8.5243 N   0  0  0  0  0  0  0  0  0  0  0  0
  -20.1419  -25.5998   -7.5004 C   0  0  0  0  0  0  0  0  0  0  0  0
  -21.3163  -25.1806   -6.9958 N   0  0  0  0  0  0  0  0  0  0  0  0
  -22.4898  -25.6235   -7.5084 C   0  0  0  0  0  0  0  0  0  0  0  0
  -22.4555  -26.5743   -8.6303 C   0  0  0  0  0  0  0  0  0  0  0  0
  -21.1231  -26.9884   -9.1298 C   0  0  0  0  0  0  0  0  0  0  0  0
  -21.0020  -27.8615  -10.1600 N   0  0  0  0  0  0  0  0  0  0  0  0
  -23.7368  -26.8479   -8.9408 N   0  0  0  0  0  0  0  0  0  0  0  0
  -24.5219  -26.1348   -8.0929 C   0  0  0  0  0  0  0  0  0  0  0  0
  -23.7794  -25.4054   -7.2399 N   0  0  0  0  0  0  0  0  0  0  0  0
  1  3  1  1  0  0  0
  1  5  2  0  0  0  0
  1  9  1  0  0  0  0
  1 18  1  0  0  0  0
  2  4  1  6  0  0  0
  2  6  2  0  0  0  0
  2 10  1  0  0  0  0
  2 17  1  0  0  0  0
  7  9  1  0  0  0  0
  8 10  1  0  0  0  0
 11  7  1  1  0  0  0
 11 13  1  0  0  0  0
 11 15  1  0  0  0  0
 12  8  1  6  0  0  0
 12 14  1  0  0  0  0
 12 16  1  0  0  0  0
 13 21  1  0  0  0  0
 14 22  1  0  0  0  0
 15 17  1  6  0  0  0
 15 19  1  0  0  0  0
 16 18  1  1  0  0  0
 16 20  1  0  0  0  0
 19 21  1  0  0  0  0
 20 22  1  0  0  0  0
 21 32  1  1  0  0  0
 22 42  1  6  0  0  0
 23 24  2  0  0  0  0
 23 28  1  0  0  0  0
 24 25  1  0  0  0  0
 25 26  2  0  0  0  0
 26 27  1  0  0  0  0
 26 32  1  0  0  0  0
 27 28  2  0  0  0  0
 27 30  1  0  0  0  0
 28 29  1  0  0  0  0
 30 31  2  0  0  0  0
 31 32  1  0  0  0  0
 33 34  2  0  0  0  0
 33 38  1  0  0  0  0
 34 35  1  0  0  0  0
 35 36  2  0  0  0  0
 36 37  1  0  0  0  0
 36 42  1  0  0  0  0
 37 38  2  0  0  0  0
 37 40  1  0  0  0  0
 38 39  1  0  0  0  0
 40 41  2  0  0  0  0
 41 42  1  0  0  0  0
M  CHG  2   3  -1   4  -1
M  END
>  <CHROM.1>
59.96979632,89.53484098,-20.15458266,-23.39299165,-4.79045700,0.60669590
-0.44485848,0.72350250

>  <Name>
ligand

>  <RI>
0

>  <Rbt.Current_Directory>
/home/itssahil/PROJECTS/Mol_Feturizer/New_Systems/rnas/4QLN

>  <Rbt.Executable>
rbdock ($Id: //depot/dev/client3/rdock/2013.1/src/exe/rbdock.cxx#4 $)

>  <Rbt.Library>
libRbt.so (2013.1, Build901 2013/11/27)

>  <Rbt.Parameter_File>
/export/apps/rDock/src/rDock_2013.1_src/data/scripts/dock_solv.prm

>  <Rbt.Receptor>
prm/blind_docking_40.prm

>  <SCORE>
58.3629

>  <SCORE.INTER>
52.7981

>  <SCORE.INTER.CONST>
1

>  <SCORE.INTER.POLAR>
0

>  <SCORE.INTER.ROT>
2

>  <SCORE.INTER.SOLV>
47.6997

>  <SCORE.INTER.VDW>
14.3655

>  <SCORE.INTER.norm>
1.2571

>  <SCORE.INTRA>
0.490979

>  <SCORE.INTRA.DIHEDRAL>
0.000901208

>  <SCORE.INTRA.DIHEDRAL.0>
2.39985

>  <SCORE.INTRA.POLAR>
0

>  <SCORE.INTRA.POLAR.0>
0

>  <SCORE.INTRA.REPUL>
0

>  <SCORE.INTRA.REPUL.0>
0

>  <SCORE.INTRA.SOLV>
0.740367

>  <SCORE.INTRA.SOLV.lig_0>
-110.958

>  <SCORE.INTRA.VDW>
0.120344

>  <SCORE.INTRA.VDW.0>
-2.34644

>  <SCORE.INTRA.norm>
0.01169

>  <SCORE.RESTR>
5.07385

>  <SCORE.RESTR.CAVITY>
5.07385

>  <SCORE.RESTR.norm>
0.120806

>  <SCORE.SYSTEM>
0

>  <SCORE.SYSTEM.CONST>
0

>  <SCORE.SYSTEM.DIHEDRAL>
0

>  <SCORE.SYSTEM.SOLV>
0

>  <SCORE.SYSTEM.norm>
0

>  <SCORE.heavy>
42

>  <SCORE.norm>
1.38959

>  <RMSD>
30.300

$$$$
ligand
 OpenBabel11021811513D
libRbt.so/2013.1/901 2013/11/27
 42 48  0  0  0  0  0  0  0  0999 V2000
  -22.2605  -22.5998   -2.3980 P   0  0  2  0  0  0  0  0  0  0  0  0
  -20.0871  -21.3461   -6.7819 P   0  0  1  0  0  0  0  0  0  0  0  0
  -22.5737  -21.5063   -1.4034 O   0  5  0  0  0  0  0  0  0  0  0  0
  -19.8915  -22.8434   -6.7669 O   0  5  0  0  0  0  0  0  0  0  0  0
  -22.2726  -24.0440   -1.9576 O   0  0  0  0  0  0  0  0  0  0  0  0
  -19.8366  -20.5656   -8.0498 O   0  0  0  0  0  0  0  0  0  0  0  0
  -19.8012  -21.6523   -2.2922 C   0  0  0  0  0  0  0  0  0  0  0  0
  -22.7083  -21.5410   -6.9923 C   0  0  0  0  0  0  0  0  0  0  0  0
  -20.8258  -22.2854   -3.0566 O   0  0  0  0  0  0  0  0  0  0  0  0
  -21.5840  -21.0281   -6.2813 O   0  0  0  0  0  0  0  0  0  0  0  0
  -18.9188  -20.8212   -3.2159 C   0  0  1  0  0  0  0  0  0  0  0  0
  -23.6643  -22.2162   -6.0170 C   0  0  1  0  0  0  0  0  0  0  0  0
  -17.6387  -20.6227   -2.6098 O   0  0  0  0  0  0  0  0  0  0  0  0
  -24.4728  -23.1671   -6.7142 O   0  0  0  0  0  0  0  0  0  0  0  0
  -18.7001  -21.5218   -4.5462 C   0  0  1  0  0  0  0  0  0  0  0  0
  -22.9076  -22.9598   -4.9279 C   0  0  1  0  0  0  0  0  0  0  0  0
  -19.1823  -20.7088   -5.6118 O   0  0  0  0  0  0  0  0  0  0  0  0
  -23.2627  -22.4451   -3.6480 O   0  0  0  0  0  0  0  0  0  0  0  0
  -17.2027  -21.7247   -4.6836 C   0  0  0  0  0  0  0  0  0  0  0  0
  -23.3195  -24.4152   -5.0357 C   0  0  0  0  0  0  0  0  0  0  0  0
  -16.5821  -21.1374   -3.4247 C   0  0  2  0  0  0  0  0  0  0  0  0
  -24.3112  -24.4867   -6.1881 C   0  0  2  0  0  0  0  0  0  0  0  0
  -16.8769  -25.8318   -1.0894 N   0  0  0  0  0  0  0  0  0  0  0  0
  -17.8276  -25.1114   -1.7126 C   0  0  0  0  0  0  0  0  0  0  0  0
  -17.6068  -23.9076   -2.2722 N   0  0  0  0  0  0  0  0  0  0  0  0
  -16.3775  -23.3398   -2.2377 C   0  0  0  0  0  0  0  0  0  0  0  0
  -15.2838  -24.0664   -1.5739 C   0  0  0  0  0  0  0  0  0  0  0  0
  -15.6053  -25.3861   -0.9806 C   0  0  0  0  0  0  0  0  0  0  0  0
  -14.6567  -26.1210   -0.3515 N   0  0  0  0  0  0  0  0  0  0  0  0
  -14.1879  -23.2919   -1.6809 N   0  0  0  0  0  0  0  0  0  0  0  0
  -14.5467  -22.1685   -2.3534 C   0  0  0  0  0  0  0  0  0  0  0  0
  -15.8518  -22.1970   -2.6856 N   0  0  0  0  0  0  0  0  0  0  0  0
  -20.0407  -26.4558   -8.5242 N   0  0  0  0  0  0  0  0  0  0  0  0
  -20.1476  -25.5857   -7.5029 C   0  0  0  0  0  0  0  0  0  0  0  0
  -21.3218  -25.1635   -7.0005 N   0  0  0  0  0  0  0  0  0  0  0  0
  -22.4955  -25.6064   -7.5126 C   0  0  0  0  0  0  0  0  0  0  0  0
  -22.4616  -26.5606   -8.6317 C   0  0  0  0  0  0  0  0  0  0  0  0
  -21.1294  -26.9779   -9.1290 C   0  0  0  0  0  0  0  0  0  0  0  0
  -21.0086  -27.8542  -10.1565 N   0  0  0  0  0  0  0  0  0  0  0  0
  -23.7430  -26.8334   -8.9424 N   0  0  0  0  0  0  0  0  0  0  0  0
  -24.5279  -26.1168   -8.0972 C   0  0  0  0  0  0  0  0  0  0  0  0
  -23.7850  -25.3859   -7.2458 N   0  0  0  0  0  0  0  0  0  0  0  0
  1  3  1  1  0  0  0
  1  5  2  0  0  0  0
  1  9  1  0  0  0  0
  1 18  1  0  0  0  0
  2  4  1  6  0  0  0
  2  6  2  0  0  0  0
  2 10  1  0  0  0  0
  2 17  1  0  0  0  0
  7  9  1  0  0  0  0
  8 10  1  0  0  0  0
 11  7  1  1  0  0  0
 11 13  1  0  0  0  0
 11 15  1  0  0  0  0
 12  8  1  6  0  0  0
 12 14  1  0  0  0  0
 12 16  1  0  0  0  0
 13 21  1  0  0  0  0
 14 22  1  0  0  0  0
 15 17  1  6  0  0  0
 15 19  1  0  0  0  0
 16 18  1  1  0  0  0
 16 20  1  0  0  0  0
 19 21  1  0  0  0  0
 20 22  1  0  0  0  0
 21 32  1  1  0  0  0
 22 42  1  6  0  0  0
 23 24  2  0  0  0  0
 23 28  1  0  0  0  0
 24 25  1  0  0  0  0
 25 26  2  0  0  0  0
 26 27  1  0  0  0  0
 26 32  1  0  0  0  0
 27 28  2  0  0  0  0
 27 30  1  0  0  0  0
 28 29  1  0  0  0  0
 30 31  2  0  0  0  0
 31 32  1  0  0  0  0
 33 34  2  0  0  0  0
 33 38  1  0  0  0  0
 34 35  1  0  0  0  0
 35 36  2  0  0  0  0
 36 37  1  0  0  0  0
 36 42  1  0  0  0  0
 37 38  2  0  0  0  0
 37 40  1  0  0  0  0
 38 39  1  0  0  0  0
 40 41  2  0  0  0  0
 41 42  1  0  0  0  0
M  CHG  2   3  -1   4  -1
M  END
>  <CHROM.1>
60.96759788,89.32280742,-20.15874284,-23.38487522,-4.79297800,0.60381288
-0.44951903,0.71987451

>  <Name>
ligand

>  <RI>
0

>  <Rbt.Current_Directory>
/home/itssahil/PROJECTS/Mol_Feturizer/New_Systems/rnas/4QLN

>  <Rbt.Executable>
rbdock ($Id: //depot/dev/client3/rdock/2013.1/src/exe/rbdock.cxx#4 $)

>  <Rbt.Library>
libRbt.so (2013.1, Build901 2013/11/27)

>  <Rbt.Parameter_File>
/export/apps/rDock/src/rDock_2013.1_src/data/scripts/dock_solv.prm

>  <Rbt.Receptor>
prm/blind_docking_40.prm

>  <SCORE>
58.3214

>  <SCORE.INTER>
52.754

>  <SCORE.INTER.CONST>
1

>  <SCORE.INTER.POLAR>
0

>  <SCORE.INTER.ROT>
2

>  <SCORE.INTER.SOLV>
47.8038

>  <SCORE.INTER.VDW>
14.3014

>  <SCORE.INTER.norm>
1.25605

>  <SCORE.INTRA>
0.483466

>  <SCORE.INTRA.DIHEDRAL>
0.000914616

>  <SCORE.INTRA.DIHEDRAL.0>
2.39985

>  <SCORE.INTRA.POLAR>
0

>  <SCORE.INTRA.POLAR.0>
0

>  <SCORE.INTRA.REPUL>
0

>  <SCORE.INTRA.REPUL.0>
0

>  <SCORE.INTRA.SOLV>
0.745963

>  <SCORE.INTRA.SOLV.lig_0>
-110.958

>  <SCORE.INTRA.VDW>
0.110027

>  <SCORE.INTRA.VDW.0>
-2.34644

>  <SCORE.INTRA.norm>
0.0115111

>  <SCORE.RESTR>
5.08398

>  <SCORE.RESTR.CAVITY>
5.08398

>  <SCORE.RESTR.norm>
0.121047

>  <SCORE.SYSTEM>
0

>  <SCORE.SYSTEM.CONST>
0

>  <SCORE.SYSTEM.DIHEDRAL>
0

>  <SCORE.SYSTEM.SOLV>
0

>  <SCORE.SYSTEM.norm>
0

>  <SCORE.heavy>
42

>  <SCORE.norm>
1.38861

>  <RMSD>
30.307

$$$$
ligand
 OpenBabel11021811513D
libRbt.so/2013.1/901 2013/11/27
 42 48  0  0  0  0  0  0  0  0999 V2000
  -18.6519  -22.5857   -5.4309 P   0  0  2  0  0  0  0  0  0  0  0  0
  -19.7945  -27.1652   -3.6316 P   0  0  1  0  0  0  0  0  0  0  0  0
  -17.9564  -22.4834   -6.7684 O   0  5  0  0  0  0  0  0  0  0  0  0
  -19.9831  -26.3048   -2.4050 O   0  5  0  0  0  0  0  0  0  0  0  0
  -18.6881  -21.3914   -4.5077 O   0  0  0  0  0  0  0  0  0  0  0  0
  -20.2972  -28.5888   -3.6386 O   0  0  0  0  0  0  0  0  0  0  0  0
  -16.6367  -24.1585   -4.7809 C   0  0  0  0  0  0  0  0  0  0  0  0
  -21.8251  -26.0612   -4.9009 C   0  0  0  0  0  0  0  0  0  0  0  0
  -18.0152  -23.8259   -4.6261 O   0  0  0  0  0  0  0  0  0  0  0  0
  -20.4394  -26.3964   -4.8908 O   0  0  0  0  0  0  0  0  0  0  0  0
  -16.4513  -25.6585   -4.5854 C   0  0  1  0  0  0  0  0  0  0  0  0
  -21.9925  -24.5933   -5.2726 C   0  0  1  0  0  0  0  0  0  0  0  0
  -15.0972  -25.9327   -4.2155 O   0  0  0  0  0  0  0  0  0  0  0  0
  -23.2450  -24.1108   -4.7803 O   0  0  0  0  0  0  0  0  0  0  0  0
  -17.3512  -26.1853   -3.4803 C   0  0  1  0  0  0  0  0  0  0  0  0
  -20.8930  -23.7401   -4.6604 C   0  0  1  0  0  0  0  0  0  0  0  0
  -18.2260  -27.1838   -3.9968 O   0  0  0  0  0  0  0  0  0  0  0  0
  -20.1649  -23.0719   -5.6863 O   0  0  0  0  0  0  0  0  0  0  0  0
  -16.4353  -26.7885   -2.4316 C   0  0  0  0  0  0  0  0  0  0  0  0
  -21.5826  -22.7265   -3.7677 C   0  0  0  0  0  0  0  0  0  0  0  0
  -15.0182  -26.5964   -2.9511 C   0  0  2  0  0  0  0  0  0  0  0  0
  -23.0733  -23.0123   -3.8815 C   0  0  2  0  0  0  0  0  0  0  0  0
  -15.1480  -22.6376    0.4971 N   0  0  0  0  0  0  0  0  0  0  0  0
  -16.1322  -23.1689   -0.2516 C   0  0  0  0  0  0  0  0  0  0  0  0
  -15.9523  -24.1946   -1.1040 N   0  0  0  0  0  0  0  0  0  0  0  0
  -14.7334  -24.7652   -1.2578 C   0  0  0  0  0  0  0  0  0  0  0  0
  -13.6051  -24.2401   -0.4729 C   0  0  0  0  0  0  0  0  0  0  0  0
  -13.8821  -23.1088    0.4438 C   0  0  0  0  0  0  0  0  0  0  0  0
  -12.9000  -22.5660    1.2032 N   0  0  0  0  0  0  0  0  0  0  0  0
  -12.5280  -24.9736   -0.8109 N   0  0  0  0  0  0  0  0  0  0  0  0
  -12.9297  -25.8876   -1.7309 C   0  0  0  0  0  0  0  0  0  0  0  0
  -14.2442  -25.7637   -1.9972 N   0  0  0  0  0  0  0  0  0  0  0  0
  -25.0422  -21.2366    0.6509 N   0  0  0  0  0  0  0  0  0  0  0  0
  -24.6160  -20.5624   -0.4332 C   0  0  0  0  0  0  0  0  0  0  0  0
  -24.1293  -21.1551   -1.5384 N   0  0  0  0  0  0  0  0  0  0  0  0
  -24.0402  -22.5046   -1.6205 C   0  0  0  0  0  0  0  0  0  0  0  0
  -24.4870  -23.3122   -0.4749 C   0  0  0  0  0  0  0  0  0  0  0  0
  -25.0110  -22.5856    0.7057 C   0  0  0  0  0  0  0  0  0  0  0  0
  -25.4439  -23.2534    1.8033 N   0  0  0  0  0  0  0  0  0  0  0  0
  -24.2934  -24.6005   -0.8148 N   0  0  0  0  0  0  0  0  0  0  0  0
  -23.7685  -24.6164   -2.0671 C   0  0  0  0  0  0  0  0  0  0  0  0
  -23.6176  -23.3682   -2.5469 N   0  0  0  0  0  0  0  0  0  0  0  0
  1  3  1  6  0  0  0
  1  5  2  0  0  0  0
  1  9  1  0  0  0  0
  1 18  1  0  0  0  0
  2  4  1  1  0  0  0
  2  6  2  0  0  0  0
  2 10  1  0  0  0  0
  2 17  1  0  0  0  0
  7  9  1  0  0  0  0
  8 10  1  0  0  0  0
 11  7  1  1  0  0  0
 11 13  1  0  0  0  0
 11 15  1  0  0  0  0
 12  8  1  1  0  0  0
 12 14  1  0  0  0  0
 12 16  1  0  0  0  0
 13 21  1  0  0  0  0
 14 22  1  0  0  0  0
 15 17  1  6  0  0  0
 15 19  1  0  0  0  0
 16 18  1  6  0  0  0
 16 20  1  0  0  0  0
 19 21  1  0  0  0  0
 20 22  1  0  0  0  0
 21 32  1  1  0  0  0
 22 42  1  1  0  0  0
 23 24  2  0  0  0  0
 23 28  1  0  0  0  0
 24 25  1  0  0  0  0
 25 26  2  0  0  0  0
 26 27  1  0  0  0  0
 26 32  1  0  0  0  0
 27 28  2  0  0  0  0
 27 30  1  0  0  0  0
 28 29  1  0  0  0  0
 30 31  2  0  0  0  0
 31 32  1  0  0  0  0
 33 34  2  0  0  0  0
 33 38  1  0  0  0  0
 34 35  1  0  0  0  0
 35 36  2  0  0  0  0
 36 37  1  0  0  0  0
 36 42  1  0  0  0  0
 37 38  2  0  0  0  0
 37 40  1  0  0  0  0
 38 39  1  0  0  0  0
 40 41  2  0  0  0  0
 41 42  1  0  0  0  0
M  CHG  2   3  -1   4  -1
M  END
>  <CHROM.1>
84.40407838,-156.07060546,-19.24208140,-24.29203212,-2.76827421,0.10131112
0.16072672,-2.04085655

>  <Name>
ligand

>  <RI>
0

>  <Rbt.Current_Directory>
/home/itssahil/PROJECTS/Mol_Feturizer/New_Systems/rnas/4QLN

>  <Rbt.Executable>
rbdock ($Id: //depot/dev/client3/rdock/2013.1/src/exe/rbdock.cxx#4 $)

>  <Rbt.Library>
libRbt.so (2013.1, Build901 2013/11/27)

>  <Rbt.Parameter_File>
/export/apps/rDock/src/rDock_2013.1_src/data/scripts/dock_solv.prm

>  <Rbt.Receptor>
prm/blind_docking_40.prm

>  <SCORE>
1.34647

>  <SCORE.INTER>
-7.69177

>  <SCORE.INTER.CONST>
1

>  <SCORE.INTER.POLAR>
0

>  <SCORE.INTER.ROT>
2

>  <SCORE.INTER.SOLV>
21.0714

>  <SCORE.INTER.VDW>
-17.085

>  <SCORE.INTER.norm>
-0.183137

>  <SCORE.INTRA>
0.698721

>  <SCORE.INTRA.DIHEDRAL>
0.00111453

>  <SCORE.INTRA.DIHEDRAL.0>
2.39985

>  <SCORE.INTRA.POLAR>
0

>  <SCORE.INTRA.POLAR.0>
0

>  <SCORE.INTRA.REPUL>
0

>  <SCORE.INTRA.REPUL.0>
0

>  <SCORE.INTRA.SOLV>
-0.113765

>  <SCORE.INTRA.SOLV.lig_0>
-110.958

>  <SCORE.INTRA.VDW>
0.755047

>  <SCORE.INTRA.VDW.0>
-2.34644

>  <SCORE.INTRA.norm>
0.0166362

>  <SCORE.RESTR>
8.33952

>  <SCORE.RESTR.CAVITY>
8.33952

>  <SCORE.RESTR.norm>
0.19856

>  <SCORE.SYSTEM>
0

>  <SCORE.SYSTEM.CONST>
0

>  <SCORE.SYSTEM.DIHEDRAL>
0

>  <SCORE.SYSTEM.SOLV>
0

>  <SCORE.SYSTEM.norm>
0

>  <SCORE.heavy>
42

>  <SCORE.norm>
0.0320588

>  <RMSD>
30.326

$$$$
ligand
 OpenBabel11021811513D
libRbt.so/2013.1/901 2013/11/27
 42 48  0  0  0  0  0  0  0  0999 V2000
  -19.1475  -21.8239   -5.6043 P   0  0  2  0  0  0  0  0  0  0  0  0
  -20.0984  -26.5463   -4.0847 P   0  0  1  0  0  0  0  0  0  0  0  0
  -18.5796  -21.6063   -6.9874 O   0  5  0  0  0  0  0  0  0  0  0  0
  -20.1763  -25.7895   -2.7802 O   0  5  0  0  0  0  0  0  0  0  0  0
  -19.1032  -20.7081   -4.5880 O   0  0  0  0  0  0  0  0  0  0  0  0
  -20.5935  -27.9706   -4.1607 O   0  0  0  0  0  0  0  0  0  0  0  0
  -17.0739  -23.4198   -5.2722 C   0  0  0  0  0  0  0  0  0  0  0  0
  -22.2428  -25.3681   -5.0679 C   0  0  0  0  0  0  0  0  0  0  0  0
  -18.4336  -23.1171   -4.9647 O   0  0  0  0  0  0  0  0  0  0  0  0
  -20.8607  -25.6865   -5.2126 O   0  0  0  0  0  0  0  0  0  0  0  0
  -16.8647  -24.9284   -5.2169 C   0  0  1  0  0  0  0  0  0  0  0  0
  -22.4503  -23.8771   -5.3024 C   0  0  1  0  0  0  0  0  0  0  0  0
  -15.4810  -25.2154   -4.9966 O   0  0  0  0  0  0  0  0  0  0  0  0
  -23.6539  -23.4505   -4.6594 O   0  0  0  0  0  0  0  0  0  0  0  0
  -17.6560  -25.5529   -4.0800 C   0  0  1  0  0  0  0  0  0  0  0  0
  -21.3025  -23.0629   -4.7269 C   0  0  1  0  0  0  0  0  0  0  0  0
  -18.5705  -26.5169   -4.5930 O   0  0  0  0  0  0  0  0  0  0  0  0
  -20.6756  -22.3059   -5.7579 O   0  0  0  0  0  0  0  0  0  0  0  0
  -16.6441  -26.2274   -3.1724 C   0  0  0  0  0  0  0  0  0  0  0  0
  -21.9108  -22.1325   -3.6953 C   0  0  0  0  0  0  0  0  0  0  0  0
  -15.2822  -25.9775   -3.8029 C   0  0  2  0  0  0  0  0  0  0  0  0
  -23.4043  -22.4258   -3.6941 C   0  0  2  0  0  0  0  0  0  0  0  0
  -12.9293  -21.3994   -2.7621 N   0  0  0  0  0  0  0  0  0  0  0  0
  -13.6957  -21.7633   -3.8068 C   0  0  0  0  0  0  0  0  0  0  0  0
  -14.2394  -22.9866   -3.9447 N   0  0  0  0  0  0  0  0  0  0  0  0
  -14.0386  -23.9462   -3.0099 C   0  0  0  0  0  0  0  0  0  0  0  0
  -13.2112  -23.6250   -1.8365 C   0  0  0  0  0  0  0  0  0  0  0  0
  -12.6466  -22.2568   -1.7559 C   0  0  0  0  0  0  0  0  0  0  0  0
  -11.8744  -21.8783   -0.7090 N   0  0  0  0  0  0  0  0  0  0  0  0
  -13.1734  -24.7363   -1.0776 N   0  0  0  0  0  0  0  0  0  0  0  0
  -13.9107  -25.6858   -1.7083 C   0  0  0  0  0  0  0  0  0  0  0  0
  -14.4267  -25.2150   -2.8600 N   0  0  0  0  0  0  0  0  0  0  0  0
  -25.0207  -21.0454    1.1073 N   0  0  0  0  0  0  0  0  0  0  0  0
  -24.7086  -20.2816    0.0440 C   0  0  0  0  0  0  0  0  0  0  0  0
  -24.3036  -20.7772   -1.1392 N   0  0  0  0  0  0  0  0  0  0  0  0
  -24.1851  -22.1137   -1.3281 C   0  0  0  0  0  0  0  0  0  0  0  0
  -24.5088  -23.0155   -0.2119 C   0  0  0  0  0  0  0  0  0  0  0  0
  -24.9480  -22.3931    1.0593 C   0  0  0  0  0  0  0  0  0  0  0  0
  -25.2658  -23.1516    2.1371 N   0  0  0  0  0  0  0  0  0  0  0  0
  -24.3102  -24.2691   -0.6613 N   0  0  0  0  0  0  0  0  0  0  0  0
  -23.8957  -24.1778   -1.9512 C   0  0  0  0  0  0  0  0  0  0  0  0
  -23.8210  -22.8942   -2.3483 N   0  0  0  0  0  0  0  0  0  0  0  0
  1  3  1  6  0  0  0
  1  5  2  0  0  0  0
  1  9  1  0  0  0  0
  1 18  1  0  0  0  0
  2  4  1  1  0  0  0
  2  6  2  0  0  0  0
  2 10  1  0  0  0  0
  2 17  1  0  0  0  0
  7  9  1  0  0  0  0
  8 10  1  0  0  0  0
 11  7  1  1  0  0  0
 11 13  1  0  0  0  0
 11 15  1  0  0  0  0
 12  8  1  1  0  0  0
 12 14  1  0  0  0  0
 12 16  1  0  0  0  0
 13 21  1  0  0  0  0
 14 22  1  0  0  0  0
 15 17  1  6  0  0  0
 15 19  1  0  0  0  0
 16 18  1  6  0  0  0
 16 20  1  0  0  0  0
 19 21  1  0  0  0  0
 20 22  1  0  0  0  0
 21 32  1  1  0  0  0
 22 42  1  1  0  0  0
 23 24  2  0  0  0  0
 23 28  1  0  0  0  0
 24 25  1  0  0  0  0
 25 26  2  0  0  0  0
 26 27  1  0  0  0  0
 26 32  1  0  0  0  0
 27 28  2  0  0  0  0
 27 30  1  0  0  0  0
 28 29  1  0  0  0  0
 30 31  2  0  0  0  0
 31 32  1  0  0  0  0
 33 34  2  0  0  0  0
 33 38  1  0  0  0  0
 34 35  1  0  0  0  0
 35 36  2  0  0  0  0
 36 37  1  0  0  0  0
 36 42  1  0  0  0  0
 37 38  2  0  0  0  0
 37 40  1  0  0  0  0
 38 39  1  0  0  0  0
 40 41  2  0  0  0  0
 41 42  1  0  0  0  0
M  CHG  2   3  -1   4  -1
M  END
>  <CHROM.1>
8.10514132,-154.65535153,-19.30746676,-23.67070518,-3.27057446,0.19422569
-0.00505032,-2.17080417

>  <Name>
ligand

>  <RI>
0

>  <Rbt.Current_Directory>
/home/itssahil/PROJECTS/Mol_Feturizer/New_Systems/rnas/4QLN

>  <Rbt.Executable>
rbdock ($Id: //depot/dev/client3/rdock/2013.1/src/exe/rbdock.cxx#4 $)

>  <Rbt.Library>
libRbt.so (2013.1, Build901 2013/11/27)

>  <Rbt.Parameter_File>
/export/apps/rDock/src/rDock_2013.1_src/data/scripts/dock_solv.prm

>  <Rbt.Receptor>
prm/blind_docking_40.prm

>  <SCORE>
22.7211

>  <SCORE.INTER>
14.9803

>  <SCORE.INTER.CONST>
1

>  <SCORE.INTER.POLAR>
0

>  <SCORE.INTER.ROT>
2

>  <SCORE.INTER.SOLV>
20.7436

>  <SCORE.INTER.VDW>
-1.86098

>  <SCORE.INTER.norm>
0.356675

>  <SCORE.INTRA>
0.353956

>  <SCORE.INTRA.DIHEDRAL>
0.000771883

>  <SCORE.INTRA.DIHEDRAL.0>
2.39985

>  <SCORE.INTRA.POLAR>
0

>  <SCORE.INTRA.POLAR.0>
0

>  <SCORE.INTRA.REPUL>
0

>  <SCORE.INTRA.REPUL.0>
0

>  <SCORE.INTRA.SOLV>
-0.0605914

>  <SCORE.INTRA.SOLV.lig_0>
-110.958

>  <SCORE.INTRA.VDW>
0.383866

>  <SCORE.INTRA.VDW.0>
-2.34644

>  <SCORE.INTRA.norm>
0.00842753

>  <SCORE.RESTR>
7.38679

>  <SCORE.RESTR.CAVITY>
7.38679

>  <SCORE.RESTR.norm>
0.175876

>  <SCORE.SYSTEM>
0

>  <SCORE.SYSTEM.CONST>
0

>  <SCORE.SYSTEM.DIHEDRAL>
0

>  <SCORE.SYSTEM.SOLV>
0

>  <SCORE.SYSTEM.norm>
0

>  <SCORE.heavy>
42

>  <SCORE.norm>
0.540978

>  <RMSD>
30.357

$$$$
ligand
 OpenBabel11021811513D
libRbt.so/2013.1/901 2013/11/27
 42 48  0  0  0  0  0  0  0  0999 V2000
  -18.9562  -21.9656   -5.4340 P   0  0  2  0  0  0  0  0  0  0  0  0
  -20.0268  -26.6614   -3.9117 P   0  0  1  0  0  0  0  0  0  0  0  0
  -18.3437  -21.7669   -6.8009 O   0  5  0  0  0  0  0  0  0  0  0  0
  -20.1317  -25.8941   -2.6154 O   0  5  0  0  0  0  0  0  0  0  0  0
  -18.9247  -20.8433   -4.4244 O   0  0  0  0  0  0  0  0  0  0  0  0
  -20.5418  -28.0783   -3.9930 O   0  0  0  0  0  0  0  0  0  0  0  0
  -16.9190  -23.5912   -5.0290 C   0  0  0  0  0  0  0  0  0  0  0  0
  -22.1218  -25.4570   -4.9670 C   0  0  0  0  0  0  0  0  0  0  0  0
  -18.2823  -23.2651   -4.7645 O   0  0  0  0  0  0  0  0  0  0  0  0
  -20.7412  -25.7980   -5.0679 O   0  0  0  0  0  0  0  0  0  0  0  0
  -16.7354  -25.1025   -4.9571 C   0  0  1  0  0  0  0  0  0  0  0  0
  -22.2986  -23.9647   -5.2177 C   0  0  1  0  0  0  0  0  0  0  0  0
  -15.3636  -25.4094   -4.6935 O   0  0  0  0  0  0  0  0  0  0  0  0
  -23.5140  -23.5148   -4.6141 O   0  0  0  0  0  0  0  0  0  0  0  0
  -17.5701  -25.7062   -3.8404 C   0  0  1  0  0  0  0  0  0  0  0  0
  -21.1558  -23.1644   -4.6134 C   0  0  1  0  0  0  0  0  0  0  0  0
  -18.4840  -26.6596   -4.3741 O   0  0  0  0  0  0  0  0  0  0  0  0
  -20.4864  -22.4247   -5.6303 O   0  0  0  0  0  0  0  0  0  0  0  0
  -16.5967  -26.3899   -2.8983 C   0  0  0  0  0  0  0  0  0  0  0  0
  -21.7799  -22.2172   -3.6069 C   0  0  0  0  0  0  0  0  0  0  0  0
  -15.2127  -26.1658   -3.4892 C   0  0  2  0  0  0  0  0  0  0  0  0
  -23.2773  -22.4871   -3.6487 C   0  0  2  0  0  0  0  0  0  0  0  0
  -15.1336  -22.7020    0.4573 N   0  0  0  0  0  0  0  0  0  0  0  0
  -16.1718  -23.2009   -0.2387 C   0  0  0  0  0  0  0  0  0  0  0  0
  -16.0424  -24.0934   -1.2377 N   0  0  0  0  0  0  0  0  0  0  0  0
  -14.8223  -24.5518   -1.6066 C   0  0  0  0  0  0  0  0  0  0  0  0
  -13.6364  -24.0535   -0.8923 C   0  0  0  0  0  0  0  0  0  0  0  0
  -13.8599  -23.0717    0.1954 C   0  0  0  0  0  0  0  0  0  0  0  0
  -12.8230  -22.5630    0.9037 N   0  0  0  0  0  0  0  0  0  0  0  0
  -12.5706  -24.6595   -1.4483 N   0  0  0  0  0  0  0  0  0  0  0  0
  -13.0318  -25.4739   -2.4318 C   0  0  0  0  0  0  0  0  0  0  0  0
  -14.3739  -25.4100   -2.5261 N   0  0  0  0  0  0  0  0  0  0  0  0
  -25.0085  -21.0467    1.0948 N   0  0  0  0  0  0  0  0  0  0  0  0
  -24.6519  -20.2956    0.0365 C   0  0  0  0  0  0  0  0  0  0  0  0
  -24.2213  -20.8060   -1.1313 N   0  0  0  0  0  0  0  0  0  0  0  0
  -24.1213  -22.1456   -1.3086 C   0  0  0  0  0  0  0  0  0  0  0  0
  -24.4935  -23.0342   -0.1969 C   0  0  0  0  0  0  0  0  0  0  0  0
  -24.9585  -22.3957    1.0571 C   0  0  0  0  0  0  0  0  0  0  0  0
  -25.3212  -23.1415    2.1297 N   0  0  0  0  0  0  0  0  0  0  0  0
  -24.3043  -24.2940   -0.6327 N   0  0  0  0  0  0  0  0  0  0  0  0
  -23.8506  -24.2186   -1.9103 C   0  0  0  0  0  0  0  0  0  0  0  0
  -23.7414  -22.9392   -2.3129 N   0  0  0  0  0  0  0  0  0  0  0  0
  1  3  1  6  0  0  0
  1  5  2  0  0  0  0
  1  9  1  0  0  0  0
  1 18  1  0  0  0  0
  2  4  1  1  0  0  0
  2  6  2  0  0  0  0
  2 10  1  0  0  0  0
  2 17  1  0  0  0  0
  7  9  1  0  0  0  0
  8 10  1  0  0  0  0
 11  7  1  1  0  0  0
 11 13  1  0  0  0  0
 11 15  1  0  0  0  0
 12  8  1  1  0  0  0
 12 14  1  0  0  0  0
 12 16  1  0  0  0  0
 13 21  1  0  0  0  0
 14 22  1  0  0  0  0
 15 17  1  6  0  0  0
 15 19  1  0  0  0  0
 16 18  1  6  0  0  0
 16 20  1  0  0  0  0
 19 21  1  0  0  0  0
 20 22  1  0  0  0  0
 21 32  1  1  0  0  0
 22 42  1  1  0  0  0
 23 24  2  0  0  0  0
 23 28  1  0  0  0  0
 24 25  1  0  0  0  0
 25 26  2  0  0  0  0
 26 27  1  0  0  0  0
 26 32  1  0  0  0  0
 27 28  2  0  0  0  0
 27 30  1  0  0  0  0
 28 29  1  0  0  0  0
 30 31  2  0  0  0  0
 31 32  1  0  0  0  0
 33 34  2  0  0  0  0
 33 38  1  0  0  0  0
 34 35  1  0  0  0  0
 35 36  2  0  0  0  0
 36 37  1  0  0  0  0
 36 42  1  0  0  0  0
 37 38  2  0  0  0  0
 37 40  1  0  0  0  0
 38 39  1  0  0  0  0
 40 41  2  0  0  0  0
 41 42  1  0  0  0  0
M  CHG  2   3  -1   4  -1
M  END
>  <CHROM.1>
90.58266859,-154.78446490,-19.40470053,-23.88183509,-2.85804780,0.15340176
0.15294986,-1.94212734

>  <Name>
ligand

>  <RI>
0

>  <Rbt.Current_Directory>
/home/itssahil/PROJECTS/Mol_Feturizer/New_Systems/rnas/4QLN

>  <Rbt.Executable>
rbdock ($Id: //depot/dev/client3/rdock/2013.1/src/exe/rbdock.cxx#4 $)

>  <Rbt.Library>
libRbt.so (2013.1, Build901 2013/11/27)

>  <Rbt.Parameter_File>
/export/apps/rDock/src/rDock_2013.1_src/data/scripts/dock_solv.prm

>  <Rbt.Receptor>
prm/blind_docking_40.prm

>  <SCORE>
14.6534

>  <SCORE.INTER>
6.75188

>  <SCORE.INTER.CONST>
1

>  <SCORE.INTER.POLAR>
0

>  <SCORE.INTER.ROT>
2

>  <SCORE.INTER.SOLV>
21.9182

>  <SCORE.INTER.VDW>
-7.73816

>  <SCORE.INTER.norm>
0.160759

>  <SCORE.INTRA>
1.04635

>  <SCORE.INTRA.DIHEDRAL>
0.00113981

>  <SCORE.INTRA.DIHEDRAL.0>
2.39985

>  <SCORE.INTRA.POLAR>
0

>  <SCORE.INTRA.POLAR.0>
0

>  <SCORE.INTRA.REPUL>
0

>  <SCORE.INTRA.REPUL.0>
0

>  <SCORE.INTRA.SOLV>
-0.123083

>  <SCORE.INTRA.SOLV.lig_0>
-110.958

>  <SCORE.INTRA.VDW>
1.10732

>  <SCORE.INTRA.VDW.0>
-2.34644

>  <SCORE.INTRA.norm>
0.024913

>  <SCORE.RESTR>
6.85521

>  <SCORE.RESTR.CAVITY>
6.85521

>  <SCORE.RESTR.norm>
0.163219

>  <SCORE.SYSTEM>
0

>  <SCORE.SYSTEM.CONST>
0

>  <SCORE.SYSTEM.DIHEDRAL>
0

>  <SCORE.SYSTEM.SOLV>
0

>  <SCORE.SYSTEM.norm>
0

>  <SCORE.heavy>
42

>  <SCORE.norm>
0.348891

>  <RMSD>
30.575

$$$$
ligand
 OpenBabel11021811513D
libRbt.so/2013.1/901 2013/11/27
 42 48  0  0  0  0  0  0  0  0999 V2000
  -19.5158  -27.4783   -3.4279 P   0  0  2  0  0  0  0  0  0  0  0  0
  -18.2860  -22.6583   -4.3053 P   0  0  1  0  0  0  0  0  0  0  0  0
  -20.3980  -28.1957   -4.4230 O   0  5  0  0  0  0  0  0  0  0  0  0
  -17.8861  -22.8116   -2.8572 O   0  5  0  0  0  0  0  0  0  0  0  0
  -19.2995  -28.0649   -2.0535 O   0  0  0  0  0  0  0  0  0  0  0  0
  -17.8419  -21.4445   -5.0856 O   0  0  0  0  0  0  0  0  0  0  0  0
  -21.4680  -25.7064   -3.3477 C   0  0  0  0  0  0  0  0  0  0  0  0
  -16.4276  -24.3276   -5.1498 C   0  0  0  0  0  0  0  0  0  0  0  0
  -20.0705  -25.9773   -3.2539 O   0  0  0  0  0  0  0  0  0  0  0  0
  -17.8077  -23.9731   -5.1023 O   0  0  0  0  0  0  0  0  0  0  0  0
  -21.6767  -24.2978   -3.8907 C   0  0  1  0  0  0  0  0  0  0  0  0
  -16.2640  -25.7941   -4.7711 C   0  0  1  0  0  0  0  0  0  0  0  0
  -22.9699  -23.8207   -3.5091 O   0  0  0  0  0  0  0  0  0  0  0  0
  -14.9355  -26.0243   -4.2955 O   0  0  0  0  0  0  0  0  0  0  0  0
  -20.6424  -23.3340   -3.3340 C   0  0  1  0  0  0  0  0  0  0  0  0
  -17.2286  -26.1893   -3.6643 C   0  0  1  0  0  0  0  0  0  0  0  0
  -19.8910  -22.7560   -4.3971 O   0  0  0  0  0  0  0  0  0  0  0  0
  -18.0762  -27.2443   -4.1088 O   0  0  0  0  0  0  0  0  0  0  0  0
  -21.4138  -22.2555   -2.5963 C   0  0  0  0  0  0  0  0  0  0  0  0
  -16.3777  -26.6609   -2.5010 C   0  0  0  0  0  0  0  0  0  0  0  0
  -22.8843  -22.6187   -2.7391 C   0  0  2  0  0  0  0  0  0  0  0  0
  -14.9318  -26.5307   -2.9585 C   0  0  2  0  0  0  0  0  0  0  0  0
  -25.1433  -20.4188    1.4604 N   0  0  0  0  0  0  0  0  0  0  0  0
  -24.6927  -19.8571    0.3235 C   0  0  0  0  0  0  0  0  0  0  0  0
  -24.1283  -20.5522   -0.6812 N   0  0  0  0  0  0  0  0  0  0  0  0
  -23.9798  -21.8962   -0.5991 C   0  0  0  0  0  0  0  0  0  0  0  0
  -24.4487  -22.5845    0.6138 C   0  0  0  0  0  0  0  0  0  0  0  0
  -25.0587  -21.7506    1.6766 C   0  0  0  0  0  0  0  0  0  0  0  0
  -25.5167  -22.3044    2.8251 N   0  0  0  0  0  0  0  0  0  0  0  0
  -24.1854  -23.8930    0.4386 N   0  0  0  0  0  0  0  0  0  0  0  0
  -23.5997  -24.0317   -0.7783 C   0  0  0  0  0  0  0  0  0  0  0  0
  -23.4773  -22.8416   -1.3971 N   0  0  0  0  0  0  0  0  0  0  0  0
  -15.3421  -22.8145    0.7285 N   0  0  0  0  0  0  0  0  0  0  0  0
  -16.2994  -23.5141    0.0916 C   0  0  0  0  0  0  0  0  0  0  0  0
  -16.0460  -24.4478   -0.8431 N   0  0  0  0  0  0  0  0  0  0  0  0
  -14.7733  -24.7420   -1.2034 C   0  0  0  0  0  0  0  0  0  0  0  0
  -13.6704  -24.0191   -0.5513 C   0  0  0  0  0  0  0  0  0  0  0  0
  -14.0309  -23.0058    0.4682 C   0  0  0  0  0  0  0  0  0  0  0  0
  -13.0759  -22.2951    1.1171 N   0  0  0  0  0  0  0  0  0  0  0  0
  -12.5301  -24.4971   -1.0843 N   0  0  0  0  0  0  0  0  0  0  0  0
  -12.8727  -25.4421   -1.9974 C   0  0  0  0  0  0  0  0  0  0  0  0
  -14.2087  -25.5878   -2.0684 N   0  0  0  0  0  0  0  0  0  0  0  0
  1  3  1  6  0  0  0
  1  5  2  0  0  0  0
  1  9  1  0  0  0  0
  1 18  1  0  0  0  0
  2  4  1  1  0  0  0
  2  6  2  0  0  0  0
  2 10  1  0  0  0  0
  2 17  1  0  0  0  0
  7  9  1  0  0  0  0
  8 10  1  0  0  0  0
 11  7  1  1  0  0  0
 11 13  1  0  0  0  0
 11 15  1  0  0  0  0
 12  8  1  1  0  0  0
 12 14  1  0  0  0  0
 12 16  1  0  0  0  0
 13 21  1  0  0  0  0
 14 22  1  0  0  0  0
 15 17  1  6  0  0  0
 15 19  1  0  0  0  0
 16 18  1  6  0  0  0
 16 20  1  0  0  0  0
 19 21  1  0  0  0  0
 20 22  1  0  0  0  0
 21 32  1  1  0  0  0
 22 42  1  1  0  0  0
 23 24  2  0  0  0  0
 23 28  1  0  0  0  0
 24 25  1  0  0  0  0
 25 26  2  0  0  0  0
 26 27  1  0  0  0  0
 26 32  1  0  0  0  0
 27 28  2  0  0  0  0
 27 30  1  0  0  0  0
 28 29  1  0  0  0  0
 30 31  2  0  0  0  0
 31 32  1  0  0  0  0
 33 34  2  0  0  0  0
 33 38  1  0  0  0  0
 34 35  1  0  0  0  0
 35 36  2  0  0  0  0
 36 37  1  0  0  0  0
 36 42  1  0  0  0  0
 37 38  2  0  0  0  0
 37 40  1  0  0  0  0
 38 39  1  0  0  0  0
 40 41  2  0  0  0  0
 41 42  1  0  0  0  0
M  CHG  2   3  -1   4  -1
M  END
>  <CHROM.1>
-155.91786490,103.88911249,-19.10347509,-24.12926878,-2.19064431,0.35907066
0.08442503,-2.28379580

>  <Name>
ligand

>  <RI>
0

>  <Rbt.Current_Directory>
/home/itssahil/PROJECTS/Mol_Feturizer/New_Systems/rnas/4QLN

>  <Rbt.Executable>
rbdock ($Id: //depot/dev/client3/rdock/2013.1/src/exe/rbdock.cxx#4 $)

>  <Rbt.Library>
libRbt.so (2013.1, Build901 2013/11/27)

>  <Rbt.Parameter_File>
/export/apps/rDock/src/rDock_2013.1_src/data/scripts/dock_solv.prm

>  <Rbt.Receptor>
prm/blind_docking_40.prm

>  <SCORE>
10.8629

>  <SCORE.INTER>
-0.358229

>  <SCORE.INTER.CONST>
1

>  <SCORE.INTER.POLAR>
0

>  <SCORE.INTER.ROT>
2

>  <SCORE.INTER.SOLV>
22.1872

>  <SCORE.INTER.VDW>
-12.5679

>  <SCORE.INTER.norm>
-0.00852926

>  <SCORE.INTRA>
1.674

>  <SCORE.INTRA.DIHEDRAL>
0.000961004

>  <SCORE.INTRA.DIHEDRAL.0>
2.39985

>  <SCORE.INTRA.POLAR>
0

>  <SCORE.INTRA.POLAR.0>
0

>  <SCORE.INTRA.REPUL>
0

>  <SCORE.INTRA.REPUL.0>
0

>  <SCORE.INTRA.SOLV>
0.31101

>  <SCORE.INTRA.SOLV.lig_0>
-110.958

>  <SCORE.INTRA.VDW>
1.51802

>  <SCORE.INTRA.VDW.0>
-2.34644

>  <SCORE.INTRA.norm>
0.0398572

>  <SCORE.RESTR>
9.54716

>  <SCORE.RESTR.CAVITY>
9.54716

>  <SCORE.RESTR.norm>
0.227313

>  <SCORE.SYSTEM>
0

>  <SCORE.SYSTEM.CONST>
0

>  <SCORE.SYSTEM.DIHEDRAL>
0

>  <SCORE.SYSTEM.SOLV>
0

>  <SCORE.SYSTEM.norm>
0

>  <SCORE.heavy>
42

>  <SCORE.norm>
0.258641

>  <RMSD>
30.591

$$$$
ligand
 OpenBabel11021811513D
libRbt.so/2013.1/901 2013/11/27
 42 48  0  0  0  0  0  0  0  0999 V2000
  -20.9126  -26.7953   -1.3791 P   0  0  2  0  0  0  0  0  0  0  0  0
  -19.6070  -24.5267   -5.6992 P   0  0  1  0  0  0  0  0  0  0  0  0
  -21.8379  -27.9884   -1.4358 O   0  5  0  0  0  0  0  0  0  0  0  0
  -19.1689  -23.5037   -4.6783 O   0  5  0  0  0  0  0  0  0  0  0  0
  -20.6692  -26.0930   -0.0647 O   0  0  0  0  0  0  0  0  0  0  0  0
  -19.1601  -24.3977   -7.1355 O   0  0  0  0  0  0  0  0  0  0  0  0
  -22.8238  -25.5605   -2.7131 C   0  0  0  0  0  0  0  0  0  0  0  0
  -17.8094  -26.2920   -4.9211 C   0  0  0  0  0  0  0  0  0  0  0  0
  -21.4302  -25.7056   -2.4447 O   0  0  0  0  0  0  0  0  0  0  0  0
  -19.1797  -25.9850   -5.1670 O   0  0  0  0  0  0  0  0  0  0  0  0
  -23.0183  -25.1014   -4.1533 C   0  0  1  0  0  0  0  0  0  0  0  0
  -17.6659  -26.9140   -3.5378 C   0  0  1  0  0  0  0  0  0  0  0  0
  -24.2895  -24.4601   -4.2873 O   0  0  0  0  0  0  0  0  0  0  0  0
  -16.3295  -26.7326   -3.0635 O   0  0  0  0  0  0  0  0  0  0  0  0
  -21.9483  -24.1034   -4.5625 C   0  0  1  0  0  0  0  0  0  0  0  0
  -18.6064  -26.2598   -2.5383 C   0  0  1  0  0  0  0  0  0  0  0  0
  -21.2157  -24.6020   -5.6776 O   0  0  0  0  0  0  0  0  0  0  0  0
  -19.4885  -27.2336   -1.9881 O   0  0  0  0  0  0  0  0  0  0  0  0
  -22.6751  -22.8278   -4.9462 C   0  0  0  0  0  0  0  0  0  0  0  0
  -17.7325  -25.6738   -1.4462 C   0  0  0  0  0  0  0  0  0  0  0  0
  -24.1565  -23.1130   -4.7488 C   0  0  2  0  0  0  0  0  0  0  0  0
  -16.2980  -26.0021   -1.8349 C   0  0  2  0  0  0  0  0  0  0  0  0
  -24.3076  -21.7399    0.3177 N   0  0  0  0  0  0  0  0  0  0  0  0
  -23.6288  -22.7283   -0.2936 C   0  0  0  0  0  0  0  0  0  0  0  0
  -23.6861  -22.9672   -1.6167 N   0  0  0  0  0  0  0  0  0  0  0  0
  -24.4532  -22.2012   -2.4289 C   0  0  0  0  0  0  0  0  0  0  0  0
  -25.2261  -21.0990   -1.8351 C   0  0  0  0  0  0  0  0  0  0  0  0
  -25.1117  -20.8993   -0.3709 C   0  0  0  0  0  0  0  0  0  0  0  0
  -25.7893  -19.9075    0.2558 N   0  0  0  0  0  0  0  0  0  0  0  0
  -25.8903  -20.5078   -2.8459 N   0  0  0  0  0  0  0  0  0  0  0  0
  -25.5720  -21.1718   -3.9864 C   0  0  0  0  0  0  0  0  0  0  0  0
  -24.7152  -22.1810   -3.7382 N   0  0  0  0  0  0  0  0  0  0  0  0
  -14.2677  -22.5853   -5.2664 N   0  0  0  0  0  0  0  0  0  0  0  0
  -14.9666  -23.7158   -5.4781 C   0  0  0  0  0  0  0  0  0  0  0  0
  -15.4307  -24.5035   -4.4913 N   0  0  0  0  0  0  0  0  0  0  0  0
  -15.2118  -24.1897   -3.1915 C   0  0  0  0  0  0  0  0  0  0  0  0
  -14.4550  -22.9677   -2.8785 C   0  0  0  0  0  0  0  0  0  0  0  0
  -13.9776  -22.1527   -4.0204 C   0  0  0  0  0  0  0  0  0  0  0  0
  -13.2734  -21.0116   -3.8202 N   0  0  0  0  0  0  0  0  0  0  0  0
  -14.3837  -22.8937   -1.5360 N   0  0  0  0  0  0  0  0  0  0  0  0
  -15.0367  -23.9733   -1.0339 C   0  0  0  0  0  0  0  0  0  0  0  0
  -15.5298  -24.7453   -2.0198 N   0  0  0  0  0  0  0  0  0  0  0  0
  1  3  1  1  0  0  0
  1  5  2  0  0  0  0
  1  9  1  0  0  0  0
  1 18  1  0  0  0  0
  2  4  1  1  0  0  0
  2  6  2  0  0  0  0
  2 10  1  0  0  0  0
  2 17  1  0  0  0  0
  7  9  1  0  0  0  0
  8 10  1  0  0  0  0
 11  7  1  1  0  0  0
 11 13  1  0  0  0  0
 11 15  1  0  0  0  0
 12  8  1  6  0  0  0
 12 14  1  0  0  0  0
 12 16  1  0  0  0  0
 13 21  1  0  0  0  0
 14 22  1  0  0  0  0
 15 17  1  6  0  0  0
 15 19  1  0  0  0  0
 16 18  1  1  0  0  0
 16 20  1  0  0  0  0
 19 21  1  0  0  0  0
 20 22  1  0  0  0  0
 21 32  1  1  0  0  0
 22 42  1  6  0  0  0
 23 24  2  0  0  0  0
 23 28  1  0  0  0  0
 24 25  1  0  0  0  0
 25 26  2  0  0  0  0
 26 27  1  0  0  0  0
 26 32  1  0  0  0  0
 27 28  2  0  0  0  0
 27 30  1  0  0  0  0
 28 29  1  0  0  0  0
 30 31  2  0  0  0  0
 31 32  1  0  0  0  0
 33 34  2  0  0  0  0
 33 38  1  0  0  0  0
 34 35  1  0  0  0  0
 35 36  2  0  0  0  0
 36 37  1  0  0  0  0
 36 42  1  0  0  0  0
 37 38  2  0  0  0  0
 37 40  1  0  0  0  0
 38 39  1  0  0  0  0
 40 41  2  0  0  0  0
 41 42  1  0  0  0  0
M  CHG  2   3  -1   4  -1
M  END
>  <CHROM.1>
48.20775152,16.22481697,-20.04950189,-24.18213728,-3.11945291,2.99496034
0.19071064,-0.29479898

>  <Name>
ligand

>  <RI>
0

>  <Rbt.Current_Directory>
/home/itssahil/PROJECTS/Mol_Feturizer/New_Systems/rnas/4QLN

>  <Rbt.Executable>
rbdock ($Id: //depot/dev/client3/rdock/2013.1/src/exe/rbdock.cxx#4 $)

>  <Rbt.Library>
libRbt.so (2013.1, Build901 2013/11/27)

>  <Rbt.Parameter_File>
/export/apps/rDock/src/rDock_2013.1_src/data/scripts/dock_solv.prm

>  <Rbt.Receptor>
prm/blind_docking_40.prm

>  <SCORE>
8.33959

>  <SCORE.INTER>
-1.33788

>  <SCORE.INTER.CONST>
1

>  <SCORE.INTER.POLAR>
0

>  <SCORE.INTER.ROT>
2

>  <SCORE.INTER.SOLV>
19.7724

>  <SCORE.INTER.VDW>
-12.4161

>  <SCORE.INTER.norm>
-0.0318544

>  <SCORE.INTRA>
-0.552269

>  <SCORE.INTRA.DIHEDRAL>
-0.000566877

>  <SCORE.INTRA.DIHEDRAL.0>
2.39985

>  <SCORE.INTRA.POLAR>
0

>  <SCORE.INTRA.POLAR.0>
0

>  <SCORE.INTRA.REPUL>
0

>  <SCORE.INTRA.REPUL.0>
0

>  <SCORE.INTRA.SOLV>
0.068506

>  <SCORE.INTRA.SOLV.lig_0>
-110.958

>  <SCORE.INTRA.VDW>
-0.586239

>  <SCORE.INTRA.VDW.0>
-2.34644

>  <SCORE.INTRA.norm>
-0.0131493

>  <SCORE.RESTR>
10.2297

>  <SCORE.RESTR.CAVITY>
10.2297

>  <SCORE.RESTR.norm>
0.243565

>  <SCORE.SYSTEM>
0

>  <SCORE.SYSTEM.CONST>
0

>  <SCORE.SYSTEM.DIHEDRAL>
0

>  <SCORE.SYSTEM.SOLV>
0

>  <SCORE.SYSTEM.norm>
0

>  <SCORE.heavy>
42

>  <SCORE.norm>
0.198562

>  <RMSD>
30.748

$$$$
ligand
 OpenBabel11021811513D
libRbt.so/2013.1/901 2013/11/27
 42 48  0  0  0  0  0  0  0  0999 V2000
  -19.9984  -40.5282  -28.3702 P   0  0  2  0  0  0  0  0  0  0  0  0
  -22.4583  -40.0780  -23.9815 P   0  0  1  0  0  0  0  0  0  0  0  0
  -18.4975  -40.7009  -28.3474 O   0  5  0  0  0  0  0  0  0  0  0  0
  -23.5137  -39.6312  -24.9647 O   0  5  0  0  0  0  0  0  0  0  0  0
  -20.6936  -40.1523  -29.6568 O   0  0  0  0  0  0  0  0  0  0  0  0
  -22.8378  -40.3735  -22.5504 O   0  0  0  0  0  0  0  0  0  0  0  0
  -19.5235  -38.3613  -26.9433 C   0  0  0  0  0  0  0  0  0  0  0  0
  -22.4647  -42.5592  -24.8742 C   0  0  0  0  0  0  0  0  0  0  0  0
  -20.3978  -39.4468  -27.2467 O   0  0  0  0  0  0  0  0  0  0  0  0
  -21.7227  -41.3762  -24.5866 O   0  0  0  0  0  0  0  0  0  0  0  0
  -19.6910  -37.9680  -25.4805 C   0  0  1  0  0  0  0  0  0  0  0  0
  -22.1439  -43.0321  -26.2864 C   0  0  1  0  0  0  0  0  0  0  0  0
  -19.2594  -36.6176  -25.2918 O   0  0  0  0  0  0  0  0  0  0  0  0
  -23.2155  -43.8398  -26.7798 O   0  0  0  0  0  0  0  0  0  0  0  0
  -21.1453  -38.0561  -25.0495 C   0  0  1  0  0  0  0  0  0  0  0  0
  -21.9723  -41.8574  -27.2363 C   0  0  1  0  0  0  0  0  0  0  0  0
  -21.2810  -38.9789  -23.9731 O   0  0  0  0  0  0  0  0  0  0  0  0
  -20.6690  -41.8803  -27.8108 O   0  0  0  0  0  0  0  0  0  0  0  0
  -21.5434  -36.6643  -24.5946 C   0  0  0  0  0  0  0  0  0  0  0  0
  -23.0209  -42.0238  -28.3191 C   0  0  0  0  0  0  0  0  0  0  0  0
  -20.3080  -35.7945  -24.7737 C   0  0  2  0  0  0  0  0  0  0  0  0
  -23.7814  -43.2966  -27.9751 C   0  0  2  0  0  0  0  0  0  0  0  0
  -19.5922  -30.7323  -25.9737 N   0  0  0  0  0  0  0  0  0  0  0  0
  -19.1327  -31.4506  -24.9325 C   0  0  0  0  0  0  0  0  0  0  0  0
  -19.3997  -32.7569  -24.7496 N   0  0  0  0  0  0  0  0  0  0  0  0
  -20.1683  -33.4396  -25.6317 C   0  0  0  0  0  0  0  0  0  0  0  0
  -20.7084  -32.7233  -26.7979 C   0  0  0  0  0  0  0  0  0  0  0  0
  -20.3710  -31.2861  -26.9299 C   0  0  0  0  0  0  0  0  0  0  0  0
  -20.8268  -30.5526  -27.9739 N   0  0  0  0  0  0  0  0  0  0  0  0
  -21.4250  -33.6201  -27.5012 N   0  0  0  0  0  0  0  0  0  0  0  0
  -21.3512  -34.8060  -26.8444 C   0  0  0  0  0  0  0  0  0  0  0  0
  -20.6020  -34.6987  -25.7302 N   0  0  0  0  0  0  0  0  0  0  0  0
  -28.7620  -44.7268  -28.8239 N   0  0  0  0  0  0  0  0  0  0  0  0
  -27.6134  -45.3099  -29.2141 C   0  0  0  0  0  0  0  0  0  0  0  0
  -26.3926  -44.8267  -28.9210 N   0  0  0  0  0  0  0  0  0  0  0  0
  -26.2513  -43.6918  -28.1944 C   0  0  0  0  0  0  0  0  0  0  0  0
  -27.4615  -42.9957  -27.7305 C   0  0  0  0  0  0  0  0  0  0  0  0
  -28.7692  -43.5907  -28.0939 C   0  0  0  0  0  0  0  0  0  0  0  0
  -29.9330  -43.0133  -27.7063 N   0  0  0  0  0  0  0  0  0  0  0  0
  -27.0435  -41.9165  -27.0425 N   0  0  0  0  0  0  0  0  0  0  0  0
  -25.6857  -41.9209  -27.0644 C   0  0  0  0  0  0  0  0  0  0  0  0
  -25.2139  -42.9781  -27.7505 N   0  0  0  0  0  0  0  0  0  0  0  0
  1  3  1  6  0  0  0
  1  5  2  0  0  0  0
  1  9  1  0  0  0  0
  1 18  1  0  0  0  0
  2  4  1  6  0  0  0
  2  6  2  0  0  0  0
  2 10  1  0  0  0  0
  2 17  1  0  0  0  0
  7  9  1  0  0  0  0
  8 10  1  0  0  0  0
 11  7  1  6  0  0  0
 11 13  1  0  0  0  0
 11 15  1  0  0  0  0
 12  8  1  1  0  0  0
 12 14  1  0  0  0  0
 12 16  1  0  0  0  0
 13 21  1  0  0  0  0
 14 22  1  0  0  0  0
 15 17  1  1  0  0  0
 15 19  1  0  0  0  0
 16 18  1  6  0  0  0
 16 20  1  0  0  0  0
 19 21  1  0  0  0  0
 20 22  1  0  0  0  0
 21 32  1  6  0  0  0
 22 42  1  1  0  0  0
 23 24  2  0  0  0  0
 23 28  1  0  0  0  0
 24 25  1  0  0  0  0
 25 26  2  0  0  0  0
 26 27  1  0  0  0  0
 26 32  1  0  0  0  0
 27 28  2  0  0  0  0
 27 30  1  0  0  0  0
 28 29  1  0  0  0  0
 30 31  2  0  0  0  0
 31 32  1  0  0  0  0
 33 34  2  0  0  0  0
 33 38  1  0  0  0  0
 34 35  1  0  0  0  0
 35 36  2  0  0  0  0
 36 37  1  0  0  0  0
 36 42  1  0  0  0  0
 37 38  2  0  0  0  0
 37 40  1  0  0  0  0
 38 39  1  0  0  0  0
 40 41  2  0  0  0  0
 41 42  1  0  0  0  0
M  CHG  2   3  -1   4  -1
M  END
>  <CHROM.1>
-100.13590467,-104.04725228,-22.39902096,-39.27483239,-26.58205373,-2.11144620
-0.17192016,0.07013194

>  <Name>
ligand

>  <RI>
0

>  <Rbt.Current_Directory>
/home/itssahil/PROJECTS/Mol_Feturizer/New_Systems/rnas/4QLN

>  <Rbt.Executable>
rbdock ($Id: //depot/dev/client3/rdock/2013.1/src/exe/rbdock.cxx#4 $)

>  <Rbt.Library>
libRbt.so (2013.1, Build901 2013/11/27)

>  <Rbt.Parameter_File>
/export/apps/rDock/src/rDock_2013.1_src/data/scripts/dock_solv.prm

>  <Rbt.Receptor>
prm/blind_docking_60.prm

>  <SCORE>
14.1058

>  <SCORE.INTER>
3.17471

>  <SCORE.INTER.CONST>
1

>  <SCORE.INTER.POLAR>
0

>  <SCORE.INTER.ROT>
2

>  <SCORE.INTER.SOLV>
34.3925

>  <SCORE.INTER.VDW>
-14.281

>  <SCORE.INTER.norm>
0.0755883

>  <SCORE.INTRA>
1.29662

>  <SCORE.INTRA.DIHEDRAL>
-0.000633828

>  <SCORE.INTRA.DIHEDRAL.0>
2.39985

>  <SCORE.INTRA.POLAR>
0

>  <SCORE.INTRA.POLAR.0>
0

>  <SCORE.INTRA.REPUL>
0

>  <SCORE.INTRA.REPUL.0>
0

>  <SCORE.INTRA.SOLV>
-0.0549472

>  <SCORE.INTRA.SOLV.lig_0>
-110.958

>  <SCORE.INTRA.VDW>
1.32441

>  <SCORE.INTRA.VDW.0>
-2.34644

>  <SCORE.INTRA.norm>
0.030872

>  <SCORE.RESTR>
9.63442

>  <SCORE.RESTR.CAVITY>
9.63442

>  <SCORE.RESTR.norm>
0.229391

>  <SCORE.SYSTEM>
0

>  <SCORE.SYSTEM.CONST>
0

>  <SCORE.SYSTEM.DIHEDRAL>
0

>  <SCORE.SYSTEM.SOLV>
0

>  <SCORE.SYSTEM.norm>
0

>  <SCORE.heavy>
42

>  <SCORE.norm>
0.335851

>  <RMSD>
31.104

$$$$
ligand
 OpenBabel11021811513D
libRbt.so/2013.1/901 2013/11/27
 42 48  0  0  0  0  0  0  0  0999 V2000
  -20.1033  -40.7888  -28.4799 P   0  0  2  0  0  0  0  0  0  0  0  0
  -22.5041  -40.3089  -24.0617 P   0  0  1  0  0  0  0  0  0  0  0  0
  -18.6070  -40.9984  -28.4747 O   0  5  0  0  0  0  0  0  0  0  0  0
  -23.5587  -39.8296  -25.0304 O   0  5  0  0  0  0  0  0  0  0  0  0
  -20.8029  -40.3871  -29.7563 O   0  0  0  0  0  0  0  0  0  0  0  0
  -22.8753  -40.6050  -22.6285 O   0  0  0  0  0  0  0  0  0  0  0  0
  -19.5599  -38.6442  -27.0439 C   0  0  0  0  0  0  0  0  0  0  0  0
  -22.5811  -42.7830  -24.9709 C   0  0  0  0  0  0  0  0  0  0  0  0
  -20.4639  -39.7059  -27.3450 O   0  0  0  0  0  0  0  0  0  0  0  0
  -21.8072  -41.6206  -24.6835 O   0  0  0  0  0  0  0  0  0  0  0  0
  -19.7020  -38.2571  -25.5767 C   0  0  1  0  0  0  0  0  0  0  0  0
  -22.2873  -43.2539  -26.3897 C   0  0  1  0  0  0  0  0  0  0  0  0
  -19.2354  -36.9190  -25.3838 O   0  0  0  0  0  0  0  0  0  0  0  0
  -23.3836  -44.0315  -26.8766 O   0  0  0  0  0  0  0  0  0  0  0  0
  -21.1534  -38.3125  -25.1305 C   0  0  1  0  0  0  0  0  0  0  0  0
  -22.0970  -42.0771  -27.3334 C   0  0  1  0  0  0  0  0  0  0  0  0
  -21.3001  -39.2391  -24.0588 O   0  0  0  0  0  0  0  0  0  0  0  0
  -20.8009  -42.1280  -27.9223 O   0  0  0  0  0  0  0  0  0  0  0  0
  -21.5122  -36.9145  -24.6620 C   0  0  0  0  0  0  0  0  0  0  0  0
  -23.1610  -42.2102  -28.4058 C   0  0  0  0  0  0  0  0  0  0  0  0
  -20.2577  -36.0741  -24.8488 C   0  0  2  0  0  0  0  0  0  0  0  0
  -23.9488  -43.4664  -28.0621 C   0  0  2  0  0  0  0  0  0  0  0  0
  -18.3699  -31.7986  -27.2435 N   0  0  0  0  0  0  0  0  0  0  0  0
  -17.7805  -32.6350  -26.3692 C   0  0  0  0  0  0  0  0  0  0  0  0
  -18.3929  -33.7046  -25.8288 N   0  0  0  0  0  0  0  0  0  0  0  0
  -19.6747  -34.0060  -26.1467 C   0  0  0  0  0  0  0  0  0  0  0  0
  -20.3880  -33.1385  -27.0972 C   0  0  0  0  0  0  0  0  0  0  0  0
  -19.6468  -31.9795  -27.6489 C   0  0  0  0  0  0  0  0  0  0  0  0
  -20.2289  -31.1310  -28.5303 N   0  0  0  0  0  0  0  0  0  0  0  0
  -21.6238  -33.6545  -27.2350 N   0  0  0  0  0  0  0  0  0  0  0  0
  -21.6967  -34.7549  -26.4433 C   0  0  0  0  0  0  0  0  0  0  0  0
  -20.5350  -34.9647  -25.7947 N   0  0  0  0  0  0  0  0  0  0  0  0
  -28.9720  -44.7600  -28.8783 N   0  0  0  0  0  0  0  0  0  0  0  0
  -27.8424  -45.3673  -29.2864 C   0  0  0  0  0  0  0  0  0  0  0  0
  -26.6070  -44.9187  -28.9998 N   0  0  0  0  0  0  0  0  0  0  0  0
  -26.4300  -43.7963  -28.2616 C   0  0  0  0  0  0  0  0  0  0  0  0
  -27.6175  -43.0754  -27.7778 C   0  0  0  0  0  0  0  0  0  0  0  0
  -28.9434  -43.6328  -28.1352 C   0  0  0  0  0  0  0  0  0  0  0  0
  -30.0884  -43.0307  -27.7295 N   0  0  0  0  0  0  0  0  0  0  0  0
  -27.1657  -42.0152  -27.0815 N   0  0  0  0  0  0  0  0  0  0  0  0
  -25.8088  -42.0538  -27.1168 C   0  0  0  0  0  0  0  0  0  0  0  0
  -25.3705  -43.1144  -27.8197 N   0  0  0  0  0  0  0  0  0  0  0  0
  1  3  1  6  0  0  0
  1  5  2  0  0  0  0
  1  9  1  0  0  0  0
  1 18  1  0  0  0  0
  2  4  1  6  0  0  0
  2  6  2  0  0  0  0
  2 10  1  0  0  0  0
  2 17  1  0  0  0  0
  7  9  1  0  0  0  0
  8 10  1  0  0  0  0
 11  7  1  6  0  0  0
 11 13  1  0  0  0  0
 11 15  1  0  0  0  0
 12  8  1  1  0  0  0
 12 14  1  0  0  0  0
 12 16  1  0  0  0  0
 13 21  1  0  0  0  0
 14 22  1  0  0  0  0
 15 17  1  1  0  0  0
 15 19  1  0  0  0  0
 16 18  1  6  0  0  0
 16 20  1  0  0  0  0
 19 21  1  0  0  0  0
 20 22  1  0  0  0  0
 21 32  1  6  0  0  0
 22 42  1  1  0  0  0
 23 24  2  0  0  0  0
 23 28  1  0  0  0  0
 24 25  1  0  0  0  0
 25 26  2  0  0  0  0
 26 27  1  0  0  0  0
 26 32  1  0  0  0  0
 27 28  2  0  0  0  0
 27 30  1  0  0  0  0
 28 29  1  0  0  0  0
 30 31  2  0  0  0  0
 31 32  1  0  0  0  0
 33 34  2  0  0  0  0
 33 38  1  0  0  0  0
 34 35  1  0  0  0  0
 35 36  2  0  0  0  0
 36 37  1  0  0  0  0
 36 42  1  0  0  0  0
 37 38  2  0  0  0  0
 37 40  1  0  0  0  0
 38 39  1  0  0  0  0
 40 41  2  0  0  0  0
 41 42  1  0  0  0  0
M  CHG  2   3  -1   4  -1
M  END
>  <CHROM.1>
-64.26653147,-104.33707555,-22.36592979,-39.55254635,-26.75868285,-0.94134979
0.22112875,3.11404112

>  <Name>
ligand

>  <RI>
0

>  <Rbt.Current_Directory>
/home/itssahil/PROJECTS/Mol_Feturizer/New_Systems/rnas/4QLN

>  <Rbt.Executable>
rbdock ($Id: //depot/dev/client3/rdock/2013.1/src/exe/rbdock.cxx#4 $)

>  <Rbt.Library>
libRbt.so (2013.1, Build901 2013/11/27)

>  <Rbt.Parameter_File>
/export/apps/rDock/src/rDock_2013.1_src/data/scripts/dock_solv.prm

>  <Rbt.Receptor>
prm/blind_docking_60.prm

>  <SCORE>
12.4475

>  <SCORE.INTER>
-0.50685

>  <SCORE.INTER.CONST>
1

>  <SCORE.INTER.POLAR>
0

>  <SCORE.INTER.ROT>
2

>  <SCORE.INTER.SOLV>
37.6959

>  <SCORE.INTER.VDW>
-17.8365

>  <SCORE.INTER.norm>
-0.0120679

>  <SCORE.INTRA>
1.94552

>  <SCORE.INTRA.DIHEDRAL>
-0.000458509

>  <SCORE.INTRA.DIHEDRAL.0>
2.39985

>  <SCORE.INTRA.POLAR>
0

>  <SCORE.INTRA.POLAR.0>
0

>  <SCORE.INTRA.REPUL>
0

>  <SCORE.INTRA.REPUL.0>
0

>  <SCORE.INTRA.SOLV>
-0.030467

>  <SCORE.INTRA.SOLV.lig_0>
-110.958

>  <SCORE.INTRA.VDW>
1.96098

>  <SCORE.INTRA.VDW.0>
-2.34644

>  <SCORE.INTRA.norm>
0.0463219

>  <SCORE.RESTR>
11.0088

>  <SCORE.RESTR.CAVITY>
11.0088

>  <SCORE.RESTR.norm>
0.262114

>  <SCORE.SYSTEM>
0

>  <SCORE.SYSTEM.CONST>
0

>  <SCORE.SYSTEM.DIHEDRAL>
0

>  <SCORE.SYSTEM.SOLV>
0

>  <SCORE.SYSTEM.norm>
0

>  <SCORE.heavy>
42

>  <SCORE.norm>
0.296368

>  <RMSD>
31.178

$$$$
ligand
 OpenBabel11021811513D
libRbt.so/2013.1/901 2013/11/27
 42 48  0  0  0  0  0  0  0  0999 V2000
  -20.3124  -40.8186  -28.6065 P   0  0  2  0  0  0  0  0  0  0  0  0
  -22.4639  -40.3876  -24.0568 P   0  0  1  0  0  0  0  0  0  0  0  0
  -18.8198  -41.0390  -28.6864 O   0  5  0  0  0  0  0  0  0  0  0  0
  -23.5661  -39.8863  -24.9591 O   0  5  0  0  0  0  0  0  0  0  0  0
  -21.0776  -40.3927  -29.8366 O   0  0  0  0  0  0  0  0  0  0  0  0
  -22.7585  -40.7024  -22.6099 O   0  0  0  0  0  0  0  0  0  0  0  0
  -19.6742  -38.6996  -27.1714 C   0  0  0  0  0  0  0  0  0  0  0  0
  -22.6104  -42.8471  -24.9963 C   0  0  0  0  0  0  0  0  0  0  0  0
  -20.6017  -39.7501  -27.4379 O   0  0  0  0  0  0  0  0  0  0  0  0
  -21.8127  -41.6947  -24.7349 O   0  0  0  0  0  0  0  0  0  0  0  0
  -19.7327  -38.3335  -25.6932 C   0  0  1  0  0  0  0  0  0  0  0  0
  -22.3984  -43.2988  -26.4357 C   0  0  1  0  0  0  0  0  0  0  0  0
  -19.2454  -37.0018  -25.5067 O   0  0  0  0  0  0  0  0  0  0  0  0
  -23.5259  -44.0612  -26.8731 O   0  0  0  0  0  0  0  0  0  0  0  0
  -21.1578  -38.3851  -25.1689 C   0  0  1  0  0  0  0  0  0  0  0  0
  -22.2507  -42.1095  -27.3713 C   0  0  1  0  0  0  0  0  0  0  0  0
  -21.2531  -39.3266  -24.1044 O   0  0  0  0  0  0  0  0  0  0  0  0
  -20.9892  -42.1609  -28.0311 O   0  0  0  0  0  0  0  0  0  0  0  0
  -21.4792  -36.9918  -24.6611 C   0  0  0  0  0  0  0  0  0  0  0  0
  -23.3727  -42.2189  -28.3855 C   0  0  0  0  0  0  0  0  0  0  0  0
  -20.2302  -36.1577  -24.9042 C   0  0  2  0  0  0  0  0  0  0  0  0
  -24.1506  -43.4743  -28.0174 C   0  0  2  0  0  0  0  0  0  0  0  0
  -18.4033  -31.9488  -27.4588 N   0  0  0  0  0  0  0  0  0  0  0  0
  -17.7686  -32.8138  -26.6461 C   0  0  0  0  0  0  0  0  0  0  0  0
  -18.3706  -33.8606  -26.0522 N   0  0  0  0  0  0  0  0  0  0  0  0
  -19.6881  -34.1075  -26.2474 C   0  0  0  0  0  0  0  0  0  0  0  0
  -20.4519  -33.2059  -27.1241 C   0  0  0  0  0  0  0  0  0  0  0  0
  -19.7192  -32.0750  -27.7414 C   0  0  0  0  0  0  0  0  0  0  0  0
  -20.3468  -31.1982  -28.5617 N   0  0  0  0  0  0  0  0  0  0  0  0
  -21.7154  -33.6702  -27.1449 N   0  0  0  0  0  0  0  0  0  0  0  0
  -21.7582  -34.7714  -26.3521 C   0  0  0  0  0  0  0  0  0  0  0  0
  -20.5499  -35.0324  -25.8172 N   0  0  0  0  0  0  0  0  0  0  0  0
  -28.9898  -45.2413  -27.0015 N   0  0  0  0  0  0  0  0  0  0  0  0
  -27.8592  -45.9177  -27.2765 C   0  0  0  0  0  0  0  0  0  0  0  0
  -26.6753  -45.3271  -27.5197 N   0  0  0  0  0  0  0  0  0  0  0  0
  -26.5555  -43.9776  -27.4995 C   0  0  0  0  0  0  0  0  0  0  0  0
  -27.7479  -43.1677  -27.2058 C   0  0  0  0  0  0  0  0  0  0  0  0
  -29.0150  -43.8921  -26.9485 C   0  0  0  0  0  0  0  0  0  0  0  0
  -30.1602  -43.2221  -26.6697 N   0  0  0  0  0  0  0  0  0  0  0  0
  -27.3569  -41.8800  -27.2473 N   0  0  0  0  0  0  0  0  0  0  0  0
  -26.0315  -41.8666  -27.5420 C   0  0  0  0  0  0  0  0  0  0  0  0
  -25.5541  -43.1158  -27.6924 N   0  0  0  0  0  0  0  0  0  0  0  0
  1  3  1  6  0  0  0
  1  5  2  0  0  0  0
  1  9  1  0  0  0  0
  1 18  1  0  0  0  0
  2  4  1  6  0  0  0
  2  6  2  0  0  0  0
  2 10  1  0  0  0  0
  2 17  1  0  0  0  0
  7  9  1  0  0  0  0
  8 10  1  0  0  0  0
 11  7  1  6  0  0  0
 11 13  1  0  0  0  0
 11 15  1  0  0  0  0
 12  8  1  1  0  0  0
 12 14  1  0  0  0  0
 12 16  1  0  0  0  0
 13 21  1  0  0  0  0
 14 22  1  0  0  0  0
 15 17  1  1  0  0  0
 15 19  1  0  0  0  0
 16 18  1  6  0  0  0
 16 20  1  0  0  0  0
 19 21  1  0  0  0  0
 20 22  1  0  0  0  0
 21 32  1  6  0  0  0
 22 42  1  1  0  0  0
 23 24  2  0  0  0  0
 23 28  1  0  0  0  0
 24 25  1  0  0  0  0
 25 26  2  0  0  0  0
 26 27  1  0  0  0  0
 26 32  1  0  0  0  0
 27 28  2  0  0  0  0
 27 30  1  0  0  0  0
 28 29  1  0  0  0  0
 30 31  2  0  0  0  0
 31 32  1  0  0  0  0
 33 34  2  0  0  0  0
 33 38  1  0  0  0  0
 34 35  1  0  0  0  0
 35 36  2  0  0  0  0
 36 37  1  0  0  0  0
 36 42  1  0  0  0  0
 37 38  2  0  0  0  0
 37 40  1  0  0  0  0
 38 39  1  0  0  0  0
 40 41  2  0  0  0  0
 41 42  1  0  0  0  0
M  CHG  2   3  -1   4  -1
M  END
>  <CHROM.1>
-61.20076691,-70.89851518,-22.44532099,-39.64203171,-26.62671201,-0.95289727
-0.08507592,-3.04580110

>  <Name>
ligand

>  <RI>
0

>  <Rbt.Current_Directory>
/home/itssahil/PROJECTS/Mol_Feturizer/New_Systems/rnas/4QLN

>  <Rbt.Executable>
rbdock ($Id: //depot/dev/client3/rdock/2013.1/src/exe/rbdock.cxx#4 $)

>  <Rbt.Library>
libRbt.so (2013.1, Build901 2013/11/27)

>  <Rbt.Parameter_File>
/export/apps/rDock/src/rDock_2013.1_src/data/scripts/dock_solv.prm

>  <Rbt.Receptor>
prm/blind_docking_60.prm

>  <SCORE>
39.5253

>  <SCORE.INTER>
27.502

>  <SCORE.INTER.CONST>
1

>  <SCORE.INTER.POLAR>
0

>  <SCORE.INTER.ROT>
2

>  <SCORE.INTER.SOLV>
39.302

>  <SCORE.INTER.VDW>
0.300699

>  <SCORE.INTER.norm>
0.65481

>  <SCORE.INTRA>
2.62848

>  <SCORE.INTRA.DIHEDRAL>
-0.000273949

>  <SCORE.INTRA.DIHEDRAL.0>
2.39985

>  <SCORE.INTRA.POLAR>
0

>  <SCORE.INTRA.POLAR.0>
0

>  <SCORE.INTRA.REPUL>
0

>  <SCORE.INTRA.REPUL.0>
0

>  <SCORE.INTRA.SOLV>
-0.0905856

>  <SCORE.INTRA.SOLV.lig_0>
-110.958

>  <SCORE.INTRA.VDW>
2.67391

>  <SCORE.INTRA.VDW.0>
-2.34644

>  <SCORE.INTRA.norm>
0.0625829

>  <SCORE.RESTR>
9.39479

>  <SCORE.RESTR.CAVITY>
9.39479

>  <SCORE.RESTR.norm>
0.223686

>  <SCORE.SYSTEM>
0

>  <SCORE.SYSTEM.CONST>
0

>  <SCORE.SYSTEM.DIHEDRAL>
0

>  <SCORE.SYSTEM.SOLV>
0

>  <SCORE.SYSTEM.norm>
0

>  <SCORE.heavy>
42

>  <SCORE.norm>
0.941079

>  <RMSD>
31.228

$$$$
ligand
 OpenBabel11021811513D
libRbt.so/2013.1/901 2013/11/27
 42 48  0  0  0  0  0  0  0  0999 V2000
  -20.1873  -40.8009  -28.5941 P   0  0  2  0  0  0  0  0  0  0  0  0
  -22.4890  -40.3848  -24.1171 P   0  0  1  0  0  0  0  0  0  0  0  0
  -18.6904  -41.0046  -28.6253 O   0  5  0  0  0  0  0  0  0  0  0  0
  -23.5671  -39.8978  -25.0557 O   0  5  0  0  0  0  0  0  0  0  0  0
  -20.9170  -40.3863  -29.8493 O   0  0  0  0  0  0  0  0  0  0  0  0
  -22.8266  -40.6999  -22.6797 O   0  0  0  0  0  0  0  0  0  0  0  0
  -19.6194  -38.6719  -27.1443 C   0  0  0  0  0  0  0  0  0  0  0  0
  -22.5775  -42.8478  -25.0548 C   0  0  0  0  0  0  0  0  0  0  0  0
  -20.5261  -39.7334  -27.4380 O   0  0  0  0  0  0  0  0  0  0  0  0
  -21.8016  -41.6859  -24.7707 O   0  0  0  0  0  0  0  0  0  0  0  0
  -19.7296  -38.3034  -25.6697 C   0  0  1  0  0  0  0  0  0  0  0  0
  -22.3142  -43.3000  -26.4856 C   0  0  1  0  0  0  0  0  0  0  0  0
  -19.2637  -36.9659  -25.4708 O   0  0  0  0  0  0  0  0  0  0  0  0
  -23.4184  -44.0760  -26.9572 O   0  0  0  0  0  0  0  0  0  0  0  0
  -21.1703  -38.3700  -25.1915 C   0  0  1  0  0  0  0  0  0  0  0  0
  -22.1497  -42.1111  -27.4188 C   0  0  1  0  0  0  0  0  0  0  0  0
  -21.2893  -39.3103  -24.1282 O   0  0  0  0  0  0  0  0  0  0  0  0
  -20.8672  -42.1496  -28.0375 O   0  0  0  0  0  0  0  0  0  0  0  0
  -21.5235  -36.9794  -24.6977 C   0  0  0  0  0  0  0  0  0  0  0  0
  -23.2372  -42.2352  -28.4684 C   0  0  0  0  0  0  0  0  0  0  0  0
  -20.2767  -36.1317  -24.9024 C   0  0  2  0  0  0  0  0  0  0  0  0
  -24.0124  -43.4986  -28.1225 C   0  0  2  0  0  0  0  0  0  0  0  0
  -18.4166  -31.9057  -27.4043 N   0  0  0  0  0  0  0  0  0  0  0  0
  -17.7989  -32.7615  -26.5692 C   0  0  0  0  0  0  0  0  0  0  0  0
  -18.4077  -33.8145  -25.9932 N   0  0  0  0  0  0  0  0  0  0  0  0
  -19.7150  -34.0775  -26.2314 C   0  0  0  0  0  0  0  0  0  0  0  0
  -20.4601  -33.1868  -27.1349 C   0  0  0  0  0  0  0  0  0  0  0  0
  -19.7208  -32.0483  -27.7301 C   0  0  0  0  0  0  0  0  0  0  0  0
  -20.3313  -31.1806  -28.5727 N   0  0  0  0  0  0  0  0  0  0  0  0
  -21.7165  -33.6663  -27.1967 N   0  0  0  0  0  0  0  0  0  0  0  0
  -21.7724  -34.7665  -26.4032 C   0  0  0  0  0  0  0  0  0  0  0  0
  -20.5794  -35.0120  -25.8280 N   0  0  0  0  0  0  0  0  0  0  0  0
  -29.0469  -44.8237  -28.8084 N   0  0  0  0  0  0  0  0  0  0  0  0
  -27.9244  -45.4243  -29.2453 C   0  0  0  0  0  0  0  0  0  0  0  0
  -26.6849  -44.9678  -28.9908 N   0  0  0  0  0  0  0  0  0  0  0  0
  -26.4958  -43.8440  -28.2578 C   0  0  0  0  0  0  0  0  0  0  0  0
  -27.6749  -43.1301  -27.7439 C   0  0  0  0  0  0  0  0  0  0  0  0
  -29.0061  -43.6959  -28.0667 C   0  0  0  0  0  0  0  0  0  0  0  0
  -30.1439  -43.1007  -27.6319 N   0  0  0  0  0  0  0  0  0  0  0  0
  -27.2119  -42.0668  -27.0600 N   0  0  0  0  0  0  0  0  0  0  0  0
  -25.8561  -42.0970  -27.1302 C   0  0  0  0  0  0  0  0  0  0  0  0
  -25.4296  -43.1552  -27.8437 N   0  0  0  0  0  0  0  0  0  0  0  0
  1  3  1  6  0  0  0
  1  5  2  0  0  0  0
  1  9  1  0  0  0  0
  1 18  1  0  0  0  0
  2  4  1  6  0  0  0
  2  6  2  0  0  0  0
  2 10  1  0  0  0  0
  2 17  1  0  0  0  0
  7  9  1  0  0  0  0
  8 10  1  0  0  0  0
 11  7  1  6  0  0  0
 11 13  1  0  0  0  0
 11 15  1  0  0  0  0
 12  8  1  1  0  0  0
 12 14  1  0  0  0  0
 12 16  1  0  0  0  0
 13 21  1  0  0  0  0
 14 22  1  0  0  0  0
 15 17  1  1  0  0  0
 15 19  1  0  0  0  0
 16 18  1  6  0  0  0
 16 20  1  0  0  0  0
 19 21  1  0  0  0  0
 20 22  1  0  0  0  0
 21 32  1  6  0  0  0
 22 42  1  1  0  0  0
 23 24  2  0  0  0  0
 23 28  1  0  0  0  0
 24 25  1  0  0  0  0
 25 26  2  0  0  0  0
 26 27  1  0  0  0  0
 26 32  1  0  0  0  0
 27 28  2  0  0  0  0
 27 30  1  0  0  0  0
 28 29  1  0  0  0  0
 30 31  2  0  0  0  0
 31 32  1  0  0  0  0
 33 34  2  0  0  0  0
 33 38  1  0  0  0  0
 34 35  1  0  0  0  0
 35 36  2  0  0  0  0
 36 37  1  0  0  0  0
 36 42  1  0  0  0  0
 37 38  2  0  0  0  0
 37 40  1  0  0  0  0
 38 39  1  0  0  0  0
 40 41  2  0  0  0  0
 41 42  1  0  0  0  0
M  CHG  2   3  -1   4  -1
M  END
>  <CHROM.1>
-61.27211551,-103.56986079,-22.41123291,-39.60365605,-26.81401967,-0.94284232
0.19505583,3.12321860

>  <Name>
ligand

>  <RI>
0

>  <Rbt.Current_Directory>
/home/itssahil/PROJECTS/Mol_Feturizer/New_Systems/rnas/4QLN

>  <Rbt.Executable>
rbdock ($Id: //depot/dev/client3/rdock/2013.1/src/exe/rbdock.cxx#4 $)

>  <Rbt.Library>
libRbt.so (2013.1, Build901 2013/11/27)

>  <Rbt.Parameter_File>
/export/apps/rDock/src/rDock_2013.1_src/data/scripts/dock_solv.prm

>  <Rbt.Receptor>
prm/blind_docking_60.prm

>  <SCORE>
12.0905

>  <SCORE.INTER>
-0.893423

>  <SCORE.INTER.CONST>
1

>  <SCORE.INTER.POLAR>
0

>  <SCORE.INTER.ROT>
2

>  <SCORE.INTER.SOLV>
37.9376

>  <SCORE.INTER.VDW>
-18.1748

>  <SCORE.INTER.norm>
-0.021272

>  <SCORE.INTRA>
1.95222

>  <SCORE.INTRA.DIHEDRAL>
-0.000438148

>  <SCORE.INTRA.DIHEDRAL.0>
2.39985

>  <SCORE.INTRA.POLAR>
0

>  <SCORE.INTRA.POLAR.0>
0

>  <SCORE.INTRA.REPUL>
0

>  <SCORE.INTRA.REPUL.0>
0

>  <SCORE.INTRA.SOLV>
-0.0291541

>  <SCORE.INTRA.SOLV.lig_0>
-110.958

>  <SCORE.INTRA.VDW>
1.96702

>  <SCORE.INTRA.VDW.0>
-2.34644

>  <SCORE.INTRA.norm>
0.0464814

>  <SCORE.RESTR>
11.0317

>  <SCORE.RESTR.CAVITY>
11.0317

>  <SCORE.RESTR.norm>
0.262659

>  <SCORE.SYSTEM>
0

>  <SCORE.SYSTEM.CONST>
0

>  <SCORE.SYSTEM.DIHEDRAL>
0

>  <SCORE.SYSTEM.SOLV>
0

>  <SCORE.SYSTEM.norm>
0

>  <SCORE.heavy>
42

>  <SCORE.norm>
0.287868

>  <RMSD>
31.252

$$$$
ligand
 OpenBabel11021811513D
libRbt.so/2013.1/901 2013/11/27
 42 48  0  0  0  0  0  0  0  0999 V2000
  -22.5343  -40.3387  -23.5956 P   0  0  2  0  0  0  0  0  0  0  0  0
  -20.1019  -40.1294  -28.0176 P   0  0  1  0  0  0  0  0  0  0  0  0
  -22.1879  -41.4459  -22.6276 O   0  5  0  0  0  0  0  0  0  0  0  0
  -21.2530  -39.1833  -28.2628 O   0  5  0  0  0  0  0  0  0  0  0  0
  -23.7993  -39.5374  -23.4016 O   0  0  0  0  0  0  0  0  0  0  0  0
  -18.9415  -40.1713  -28.9827 O   0  0  0  0  0  0  0  0  0  0  0  0
  -22.9715  -42.3023  -25.3016 C   0  0  0  0  0  0  0  0  0  0  0  0
  -19.0042  -38.5606  -26.2045 C   0  0  0  0  0  0  0  0  0  0  0  0
  -22.5519  -40.9567  -25.0818 O   0  0  0  0  0  0  0  0  0  0  0  0
  -19.5213  -39.8454  -26.5428 O   0  0  0  0  0  0  0  0  0  0  0  0
  -22.2386  -42.8716  -26.5105 C   0  0  1  0  0  0  0  0  0  0  0  0
  -19.6245  -38.0894  -24.8952 C   0  0  1  0  0  0  0  0  0  0  0  0
  -22.9854  -43.9618  -27.0575 O   0  0  0  0  0  0  0  0  0  0  0  0
  -19.5597  -36.6635  -24.8163 O   0  0  0  0  0  0  0  0  0  0  0  0
  -22.0775  -41.8250  -27.6001 C   0  0  1  0  0  0  0  0  0  0  0  0
  -21.0870  -38.4940  -24.8003 C   0  0  1  0  0  0  0  0  0  0  0  0
  -20.6961  -41.6201  -27.8804 O   0  0  0  0  0  0  0  0  0  0  0  0
  -21.2932  -39.3155  -23.6550 O   0  0  0  0  0  0  0  0  0  0  0  0
  -22.7817  -42.3717  -28.8280 C   0  0  0  0  0  0  0  0  0  0  0  0
  -21.8805  -37.2085  -24.6677 C   0  0  0  0  0  0  0  0  0  0  0  0
  -23.3403  -43.7277  -28.4229 C   0  0  2  0  0  0  0  0  0  0  0  0
  -20.8588  -36.0805  -24.6870 C   0  0  2  0  0  0  0  0  0  0  0  0
  -27.4595  -45.1260  -31.3650 N   0  0  0  0  0  0  0  0  0  0  0  0
  -26.1427  -45.3132  -31.5707 C   0  0  0  0  0  0  0  0  0  0  0  0
  -25.1865  -44.8957  -30.7208 N   0  0  0  0  0  0  0  0  0  0  0  0
  -25.5086  -44.2453  -29.5771 C   0  0  0  0  0  0  0  0  0  0  0  0
  -26.9291  -44.0024  -29.2803 C   0  0  0  0  0  0  0  0  0  0  0  0
  -27.9232  -44.4916  -30.2650 C   0  0  0  0  0  0  0  0  0  0  0  0
  -29.2514  -44.3100  -30.0687 N   0  0  0  0  0  0  0  0  0  0  0  0
  -26.9693  -43.3494  -28.1038 N   0  0  0  0  0  0  0  0  0  0  0  0
  -25.6886  -43.1876  -27.6834 C   0  0  0  0  0  0  0  0  0  0  0  0
  -24.8178  -43.7218  -28.5613 N   0  0  0  0  0  0  0  0  0  0  0  0
  -20.5474  -31.1988  -26.5962 N   0  0  0  0  0  0  0  0  0  0  0  0
  -20.1765  -31.6871  -25.3981 C   0  0  0  0  0  0  0  0  0  0  0  0
  -20.3172  -32.9762  -25.0402 N   0  0  0  0  0  0  0  0  0  0  0  0
  -20.8566  -33.8789  -25.8947 C   0  0  0  0  0  0  0  0  0  0  0  0
  -21.2868  -33.4218  -27.2251 C   0  0  0  0  0  0  0  0  0  0  0  0
  -21.0984  -31.9869  -27.5444 C   0  0  0  0  0  0  0  0  0  0  0  0
  -21.4672  -31.4832  -28.7479 N   0  0  0  0  0  0  0  0  0  0  0  0
  -21.7774  -34.5018  -27.8619 N   0  0  0  0  0  0  0  0  0  0  0  0
  -21.6712  -35.5571  -27.0140 C   0  0  0  0  0  0  0  0  0  0  0  0
  -21.1230  -35.1862  -25.8423 N   0  0  0  0  0  0  0  0  0  0  0  0
  1  3  1  1  0  0  0
  1  5  2  0  0  0  0
  1  9  1  0  0  0  0
  1 18  1  0  0  0  0
  2  4  1  6  0  0  0
  2  6  2  0  0  0  0
  2 10  1  0  0  0  0
  2 17  1  0  0  0  0
  7  9  1  0  0  0  0
  8 10  1  0  0  0  0
 11  7  1  1  0  0  0
 11 13  1  0  0  0  0
 11 15  1  0  0  0  0
 12  8  1  6  0  0  0
 12 14  1  0  0  0  0
 12 16  1  0  0  0  0
 13 21  1  0  0  0  0
 14 22  1  0  0  0  0
 15 17  1  6  0  0  0
 15 19  1  0  0  0  0
 16 18  1  1  0  0  0
 16 20  1  0  0  0  0
 19 21  1  0  0  0  0
 20 22  1  0  0  0  0
 21 32  1  1  0  0  0
 22 42  1  6  0  0  0
 23 24  2  0  0  0  0
 23 28  1  0  0  0  0
 24 25  1  0  0  0  0
 25 26  2  0  0  0  0
 26 27  1  0  0  0  0
 26 32  1  0  0  0  0
 27 28  2  0  0  0  0
 27 30  1  0  0  0  0
 28 29  1  0  0  0  0
 30 31  2  0  0  0  0
 31 32  1  0  0  0  0
 33 34  2  0  0  0  0
 33 38  1  0  0  0  0
 34 35  1  0  0  0  0
 35 36  2  0  0  0  0
 36 37  1  0  0  0  0
 36 42  1  0  0  0  0
 37 38  2  0  0  0  0
 37 40  1  0  0  0  0
 38 39  1  0  0  0  0
 40 41  2  0  0  0  0
 41 42  1  0  0  0  0
M  CHG  2   3  -1   4  -1
M  END
>  <CHROM.1>
-140.99157934,-91.30538776,-22.42136753,-39.58728143,-26.91744873,-0.74265439
0.93114872,2.73136443

>  <Name>
ligand

>  <RI>
0

>  <Rbt.Current_Directory>
/home/itssahil/PROJECTS/Mol_Feturizer/New_Systems/rnas/4QLN

>  <Rbt.Executable>
rbdock ($Id: //depot/dev/client3/rdock/2013.1/src/exe/rbdock.cxx#4 $)

>  <Rbt.Library>
libRbt.so (2013.1, Build901 2013/11/27)

>  <Rbt.Parameter_File>
/export/apps/rDock/src/rDock_2013.1_src/data/scripts/dock_solv.prm

>  <Rbt.Receptor>
prm/blind_docking_60.prm

>  <SCORE>
68.0338

>  <SCORE.INTER>
51.444

>  <SCORE.INTER.CONST>
1

>  <SCORE.INTER.POLAR>
0

>  <SCORE.INTER.ROT>
2

>  <SCORE.INTER.SOLV>
37.7989

>  <SCORE.INTER.VDW>
16.7631

>  <SCORE.INTER.norm>
1.22486

>  <SCORE.INTRA>
1.11374

>  <SCORE.INTRA.DIHEDRAL>
-0.000368203

>  <SCORE.INTRA.DIHEDRAL.0>
2.39985

>  <SCORE.INTRA.POLAR>
0

>  <SCORE.INTRA.POLAR.0>
0

>  <SCORE.INTRA.REPUL>
0

>  <SCORE.INTRA.REPUL.0>
0

>  <SCORE.INTRA.SOLV>
-0.0655

>  <SCORE.INTRA.SOLV.lig_0>
-110.958

>  <SCORE.INTRA.VDW>
1.14668

>  <SCORE.INTRA.VDW.0>
-2.34644

>  <SCORE.INTRA.norm>
0.0265177

>  <SCORE.RESTR>
15.4761

>  <SCORE.RESTR.CAVITY>
15.4761

>  <SCORE.RESTR.norm>
0.368477

>  <SCORE.SYSTEM>
0

>  <SCORE.SYSTEM.CONST>
0

>  <SCORE.SYSTEM.DIHEDRAL>
0

>  <SCORE.SYSTEM.SOLV>
0

>  <SCORE.SYSTEM.norm>
0

>  <SCORE.heavy>
42

>  <SCORE.norm>
1.61985

>  <RMSD>
31.327

$$$$
ligand
 OpenBabel11021811513D
libRbt.so/2013.1/901 2013/11/27
 42 48  0  0  0  0  0  0  0  0999 V2000
  -20.1253  -40.8105  -28.5436 P   0  0  2  0  0  0  0  0  0  0  0  0
  -22.4649  -40.3640  -24.0892 P   0  0  1  0  0  0  0  0  0  0  0  0
  -18.6303  -41.0287  -28.5603 O   0  5  0  0  0  0  0  0  0  0  0  0
  -23.5294  -39.8683  -25.0388 O   0  5  0  0  0  0  0  0  0  0  0  0
  -20.8392  -40.3911  -29.8063 O   0  0  0  0  0  0  0  0  0  0  0  0
  -22.8191  -40.6732  -22.6545 O   0  0  0  0  0  0  0  0  0  0  0  0
  -19.5504  -38.6845  -27.0922 C   0  0  0  0  0  0  0  0  0  0  0  0
  -22.5685  -42.8277  -25.0235 C   0  0  0  0  0  0  0  0  0  0  0  0
  -20.4646  -39.7376  -27.3926 O   0  0  0  0  0  0  0  0  0  0  0  0
  -21.7841  -41.6729  -24.7341 O   0  0  0  0  0  0  0  0  0  0  0  0
  -19.6710  -38.3123  -25.6192 C   0  0  1  0  0  0  0  0  0  0  0  0
  -22.2962  -43.2851  -26.4510 C   0  0  1  0  0  0  0  0  0  0  0  0
  -19.1939  -36.9790  -25.4183 O   0  0  0  0  0  0  0  0  0  0  0  0
  -23.4033  -44.0511  -26.9317 O   0  0  0  0  0  0  0  0  0  0  0  0
  -21.1166  -38.3640  -25.1546 C   0  0  1  0  0  0  0  0  0  0  0  0
  -22.1113  -42.0994  -27.3847 C   0  0  1  0  0  0  0  0  0  0  0  0
  -21.2548  -39.3013  -24.0909 O   0  0  0  0  0  0  0  0  0  0  0  0
  -20.8235  -42.1515  -27.9911 O   0  0  0  0  0  0  0  0  0  0  0  0
  -21.4610  -36.9692  -24.6665 C   0  0  0  0  0  0  0  0  0  0  0  0
  -23.1901  -42.2149  -28.4442 C   0  0  0  0  0  0  0  0  0  0  0  0
  -20.2041  -36.1340  -24.8609 C   0  0  2  0  0  0  0  0  0  0  0  0
  -23.9807  -43.4701  -28.1035 C   0  0  2  0  0  0  0  0  0  0  0  0
  -23.7863  -33.7561  -27.8762 N   0  0  0  0  0  0  0  0  0  0  0  0
  -23.8934  -34.8514  -27.1015 C   0  0  0  0  0  0  0  0  0  0  0  0
  -22.8790  -35.3548  -26.3743 N   0  0  0  0  0  0  0  0  0  0  0  0
  -21.6586  -34.7670  -26.3832 C   0  0  0  0  0  0  0  0  0  0  0  0
  -21.4618  -33.5635  -27.2063 C   0  0  0  0  0  0  0  0  0  0  0  0
  -22.6261  -33.0700  -27.9794 C   0  0  0  0  0  0  0  0  0  0  0  0
  -22.5310  -31.9681  -28.7621 N   0  0  0  0  0  0  0  0  0  0  0  0
  -20.1802  -33.1878  -27.0367 N   0  0  0  0  0  0  0  0  0  0  0  0
  -19.6061  -34.0718  -26.1811 C   0  0  0  0  0  0  0  0  0  0  0  0
  -20.4872  -35.0130  -25.7912 N   0  0  0  0  0  0  0  0  0  0  0  0
  -29.0219  -44.7197  -28.8763 N   0  0  0  0  0  0  0  0  0  0  0  0
  -27.9014  -45.3283  -29.3069 C   0  0  0  0  0  0  0  0  0  0  0  0
  -26.6597  -44.8917  -29.0291 N   0  0  0  0  0  0  0  0  0  0  0  0
  -26.4663  -43.7812  -28.2771 C   0  0  0  0  0  0  0  0  0  0  0  0
  -27.6431  -43.0597  -27.7686 C   0  0  0  0  0  0  0  0  0  0  0  0
  -28.9768  -43.6034  -28.1175 C   0  0  0  0  0  0  0  0  0  0  0  0
  -30.1128  -42.9999  -27.6893 N   0  0  0  0  0  0  0  0  0  0  0  0
  -27.1758  -42.0126  -27.0629 N   0  0  0  0  0  0  0  0  0  0  0  0
  -25.8197  -42.0593  -27.1154 C   0  0  0  0  0  0  0  0  0  0  0  0
  -25.3971  -43.1125  -27.8387 N   0  0  0  0  0  0  0  0  0  0  0  0
  1  3  1  6  0  0  0
  1  5  2  0  0  0  0
  1  9  1  0  0  0  0
  1 18  1  0  0  0  0
  2  4  1  6  0  0  0
  2  6  2  0  0  0  0
  2 10  1  0  0  0  0
  2 17  1  0  0  0  0
  7  9  1  0  0  0  0
  8 10  1  0  0  0  0
 11  7  1  6  0  0  0
 11 13  1  0  0  0  0
 11 15  1  0  0  0  0
 12  8  1  1  0  0  0
 12 14  1  0  0  0  0
 12 16  1  0  0  0  0
 13 21  1  0  0  0  0
 14 22  1  0  0  0  0
 15 17  1  1  0  0  0
 15 19  1  0  0  0  0
 16 18  1  6  0  0  0
 16 20  1  0  0  0  0
 19 21  1  0  0  0  0
 20 22  1  0  0  0  0
 21 32  1  6  0  0  0
 22 42  1  1  0  0  0
 23 24  2  0  0  0  0
 23 28  1  0  0  0  0
 24 25  1  0  0  0  0
 25 26  2  0  0  0  0
 26 27  1  0  0  0  0
 26 32  1  0  0  0  0
 27 28  2  0  0  0  0
 27 30  1  0  0  0  0
 28 29  1  0  0  0  0
 30 31  2  0  0  0  0
 31 32  1  0  0  0  0
 33 34  2  0  0  0  0
 33 38  1  0  0  0  0
 34 35  1  0  0  0  0
 35 36  2  0  0  0  0
 36 37  1  0  0  0  0
 36 42  1  0  0  0  0
 37 38  2  0  0  0  0
 37 40  1  0  0  0  0
 38 39  1  0  0  0  0
 40 41  2  0  0  0  0
 41 42  1  0  0  0  0
M  CHG  2   3  -1   4  -1
M  END
>  <CHROM.1>
118.02120802,-104.55698494,-22.80668623,-39.73613943,-26.83301380,-0.98989861
0.25641022,3.13043065

>  <Name>
ligand

>  <RI>
0

>  <Rbt.Current_Directory>
/home/itssahil/PROJECTS/Mol_Feturizer/New_Systems/rnas/4QLN

>  <Rbt.Executable>
rbdock ($Id: //depot/dev/client3/rdock/2013.1/src/exe/rbdock.cxx#4 $)

>  <Rbt.Library>
libRbt.so (2013.1, Build901 2013/11/27)

>  <Rbt.Parameter_File>
/export/apps/rDock/src/rDock_2013.1_src/data/scripts/dock_solv.prm

>  <Rbt.Receptor>
prm/blind_docking_60.prm

>  <SCORE>
15.7727

>  <SCORE.INTER>
-2.42659

>  <SCORE.INTER.CONST>
1

>  <SCORE.INTER.POLAR>
0

>  <SCORE.INTER.ROT>
2

>  <SCORE.INTER.SOLV>
33.9957

>  <SCORE.INTER.VDW>
-17.883

>  <SCORE.INTER.norm>
-0.0577759

>  <SCORE.INTRA>
2.57736

>  <SCORE.INTRA.DIHEDRAL>
-0.000367428

>  <SCORE.INTRA.DIHEDRAL.0>
2.39985

>  <SCORE.INTRA.POLAR>
0

>  <SCORE.INTRA.POLAR.0>
0

>  <SCORE.INTRA.REPUL>
0

>  <SCORE.INTRA.REPUL.0>
0

>  <SCORE.INTRA.SOLV>
-0.0611512

>  <SCORE.INTRA.SOLV.lig_0>
-110.958

>  <SCORE.INTRA.VDW>
2.60812

>  <SCORE.INTRA.VDW.0>
-2.34644

>  <SCORE.INTRA.norm>
0.0613658

>  <SCORE.RESTR>
15.622

>  <SCORE.RESTR.CAVITY>
15.622

>  <SCORE.RESTR.norm>
0.371951

>  <SCORE.SYSTEM>
0

>  <SCORE.SYSTEM.CONST>
0

>  <SCORE.SYSTEM.DIHEDRAL>
0

>  <SCORE.SYSTEM.SOLV>
0

>  <SCORE.SYSTEM.norm>
0

>  <SCORE.heavy>
42

>  <SCORE.norm>
0.375541

>  <RMSD>
31.731

$$$$
