@<TRIPOS>MOLECULE
4QLN_rdock.pdb
 2617 2902 0 0 0
SMALL
GASTEIGER

@<TRIPOS>ATOM
      1  P        -22.7340  -56.7180   -9.8170 P.3     2  G2          0.1280
      2  C5'      -20.4840  -57.3370  -11.0400 C.3     2  G2          0.1795
      3  O5'      -21.6670  -56.5470  -10.9930 O.3     2  G2         -0.3259
      4  C4'      -20.5760  -58.4080  -12.0990 C.3     2  G2          0.1772
      5  O4'      -21.9170  -58.9710  -12.0870 O.3     2  G2         -0.3307
      6  C3'      -20.3720  -57.9550  -13.5420 C.3     2  G2          0.1860
      7  O3'      -19.0040  -57.8630  -13.9220 O.3     2  G2         -0.3112
      8  C2'      -21.1560  -58.9980  -14.3270 C.3     2  G2          0.2309
      9  O2'      -20.4220  -60.2100  -14.4300 O.3     2  G2         -0.2156
     10  C1'      -22.3490  -59.2310  -13.4040 C.3     2  G2          0.2408
     11  N1       -26.7490  -58.4380  -15.8960 N.ar    2  G2         -0.1709
     12  C2       -25.9570  -59.5620  -15.8830 C.ar    2  G2          0.2606
     13  N2       -26.3860  -60.5970  -16.6200 N.pl3   2  G2         -0.0859
     14  N3       -24.8290  -59.6650  -15.1990 N.ar    2  G2         -0.1918
     15  C4       -24.5510  -58.5330  -14.5180 C.ar    2  G2          0.1723
     16  C5       -25.2790  -57.3620  -14.4670 C.ar    2  G2          0.1748
     17  C6       -26.4830  -57.2620  -15.2010 C.ar    2  G2          0.3023
     18  O6       -27.2530  -56.2960  -15.2700 O.2     2  G2         -0.2633
     19  N7       -24.6680  -56.4230  -13.6540 N.ar    2  G2         -0.2173
     20  C8       -23.5980  -57.0280  -13.2300 C.ar    2  G2          0.1817
     21  N9       -23.4610  -58.3090  -13.7080 N.ar    2  G2         -0.2693
     22  OP1      -22.0540  -56.4890   -8.5150 O.3     2  G2         -0.1955
     23  OP2      -23.4930  -57.9810  -10.0310 O.co2   2  G2         -0.7863
     24  P        -18.5080  -56.7310  -14.9600 P.3     3  A3          0.2141
     25  C5'      -19.0220  -58.3180  -16.9890 C.3     3  A3          0.1812
     26  O5'      -19.2540  -57.0850  -16.3220 O.3     3  A3         -0.3114
     27  C4'      -20.1070  -58.6130  -17.9940 C.3     3  A3          0.1773
     28  O4'      -21.3880  -58.7360  -17.3190 O.3     3  A3         -0.3307
     29  C3'      -20.3480  -57.5340  -19.0340 C.3     3  A3          0.1860
     30  O3'      -19.4190  -57.5640  -20.0980 O.3     3  A3         -0.3112
     31  C2'      -21.7870  -57.7960  -19.4500 C.3     3  A3          0.2309
     32  O2'      -21.8700  -58.9250  -20.3080 O.3     3  A3         -0.2156
     33  C1'      -22.4070  -58.1520  -18.1040 C.3     3  A3          0.2408
     34  N1       -26.0110  -54.4440  -17.7280 N.ar    3  A3         -0.2040
     35  C2       -25.9170  -55.5170  -18.5280 C.ar    3  A3          0.2016
     36  N3       -24.9670  -56.4510  -18.5810 N.ar    3  A3         -0.2048
     37  C4       -24.0070  -56.2000  -17.6700 C.ar    3  A3          0.1692
     38  C5       -23.9670  -55.1370  -16.7830 C.ar    3  A3          0.1518
     39  C6       -25.0270  -54.2220  -16.8260 C.ar    3  A3          0.1919
     40  N6       -25.0990  -53.1590  -16.0210 N.pl3   3  A3         -0.1054
     41  N7       -22.8320  -55.1900  -15.9910 N.ar    3  A3         -0.2193
     42  C8       -22.2150  -56.2660  -16.4090 C.ar    3  A3          0.1816
     43  N9       -22.8680  -56.9330  -17.4140 N.ar    3  A3         -0.2693
     44  OP1      -17.0540  -56.9040  -15.1980 O.2     3  A3         -0.5172
     45  OP2      -19.0070  -55.4140  -14.4980 O.co2   3  A3         -0.4373
     46  P        -18.7920  -56.1870  -20.6250 P.3     4  U4          0.2141
     47  C5'      -20.6960  -56.2570  -22.4490 C.3     4  U4          0.1812
     48  O5'      -19.9780  -55.5200  -21.4630 O.3     4  U4         -0.3114
     49  C4'      -22.0640  -55.6680  -22.7020 C.3     4  U4          0.1773
     50  O4'      -22.8430  -55.6880  -21.4750 O.3     4  U4         -0.3307
     51  C3'      -22.0870  -54.2060  -23.1260 C.3     4  U4          0.1860
     52  O3'      -21.8170  -54.0120  -24.5040 O.3     4  U4         -0.3112
     53  C2'      -23.4820  -53.7690  -22.7090 C.3     4  U4          0.2309
     54  O2'      -24.4460  -54.2730  -23.6250 O.3     4  U4         -0.2156
     55  C1'      -23.6370  -54.5210  -21.3890 C.3     4  U4          0.2420
     56  N1       -23.1810  -53.7240  -20.2160 N.ar    4  U4         -0.2534
     57  C2       -23.9570  -52.6740  -19.7330 C.ar    4  U4          0.3546
     58  O2       -25.0210  -52.3350  -20.2220 O.2     4  U4         -0.2443
     59  N3       -23.4420  -52.0140  -18.6390 N.ar    4  U4         -0.1530
     60  C4       -22.2590  -52.2800  -17.9790 C.ar    4  U4          0.2846
     61  O4       -21.9300  -51.5990  -17.0070 O.2     4  U4         -0.2650
     62  C5       -21.5180  -53.3710  -18.5270 C.ar    4  U4          0.0814
     63  C6       -21.9920  -54.0330  -19.5890 C.ar    4  U4          0.0870
     64  OP1      -17.6860  -56.5250  -21.5520 O.2     4  U4         -0.5172
     65  OP2      -18.5230  -55.3400  -19.4310 O.co2   4  U4         -0.4373
     66  P        -20.7080  -52.9460  -24.9620 P.3     5  C5          0.2141
     67  C5'      -22.7850  -51.3670  -25.2120 C.3     5  C5          0.1812
     68  O5'      -21.4370  -51.5400  -24.8100 O.3     5  C5         -0.3114
     69  C4'      -23.3630  -50.1210  -24.5990 C.3     5  C5          0.1773
     70  O4'      -23.7270  -50.3540  -23.2100 O.3     5  C5         -0.3307
     71  C3'      -22.4200  -48.9380  -24.5240 C.3     5  C5          0.1860
     72  O3'      -22.2780  -48.2740  -25.7620 O.3     5  C5         -0.3112
     73  C2'      -23.0570  -48.0910  -23.4320 C.3     5  C5          0.2309
     74  O2'      -24.2080  -47.4230  -23.9250 O.3     5  C5         -0.2156
     75  C1'      -23.5100  -49.1730  -22.4580 C.3     5  C5          0.2420
     76  N1       -22.4780  -49.4280  -21.4260 N.ar    5  C5         -0.2535
     77  C2       -22.4430  -48.5710  -20.3270 C.ar    5  C5          0.3532
     78  O2       -23.2720  -47.6510  -20.2550 O.2     5  C5         -0.2443
     79  N3       -21.5130  -48.7740  -19.3710 N.ar    5  C5         -0.1739
     80  C4       -20.6420  -49.7720  -19.4830 C.ar    5  C5          0.1759
     81  N4       -19.7490  -49.9300  -18.5100 N.pl3   5  C5         -0.1070
     82  C5       -20.6460  -50.6570  -20.5950 C.ar    5  C5          0.0566
     83  C6       -21.5710  -50.4480  -21.5380 C.ar    5  C5          0.0850
     84  OP1      -20.4210  -53.1660  -26.4030 O.2     5  C5         -0.5172
     85  OP2      -19.6130  -52.9900  -23.9620 O.co2   5  C5         -0.4373
     86  P        -21.0610  -47.2570  -26.0030 P.3     6  G6          0.2141
     87  C5'      -20.4290  -45.2090  -24.5040 C.3     6  G6          0.1812
     88  O5'      -20.8510  -46.5570  -24.5910 O.3     6  G6         -0.3114
     89  C4'      -21.1230  -44.4690  -23.3890 C.3     6  G6          0.1773
     90  O4'      -21.5660  -45.3920  -22.3540 O.3     6  G6         -0.3307
     91  C3'      -20.2530  -43.4680  -22.6490 C.3     6  G6          0.1860
     92  O3'      -20.1670  -42.2230  -23.3120 O.3     6  G6         -0.3112
     93  C2'      -20.9280  -43.3790  -21.2970 C.3     6  G6          0.2309
     94  O2'      -22.1130  -42.6310  -21.4320 O.3     6  G6         -0.2156
     95  C1'      -21.3330  -44.8280  -21.0810 C.3     6  G6          0.2408
     96  N1       -18.1780  -45.4420  -17.1020 N.ar    6  G6         -0.1709
     97  C2       -19.1440  -44.4780  -17.2840 C.ar    6  G6          0.2606
     98  N2       -19.2530  -43.5790  -16.2970 N.pl3   6  G6         -0.0859
     99  N3       -19.9130  -44.3940  -18.3630 N.ar    6  G6         -0.1918
    100  C4       -19.6450  -45.3810  -19.2470 C.ar    6  G6          0.1723
    101  C5       -18.7160  -46.3970  -19.1500 C.ar    6  G6          0.1748
    102  C6       -17.8940  -46.4750  -17.9940 C.ar    6  G6          0.3023
    103  O6       -17.0230  -47.3240  -17.7340 O.2     6  G6         -0.2633
    104  N7       -18.7380  -47.2250  -20.2670 N.ar    6  G6         -0.2173
    105  C8       -19.6690  -46.7100  -21.0100 C.ar    6  G6          0.1817
    106  N9       -20.2540  -45.5990  -20.4540 N.ar    6  G6         -0.2693
    107  OP1      -21.5750  -46.2700  -26.9820 O.2     6  G6         -0.5172
    108  OP2      -19.8200  -48.0120  -26.2930 O.co2   6  G6         -0.4373
    109  P        -18.7280  -41.5500  -23.5030 P.3     7  C7          0.2141
    110  C5'      -19.7450  -40.0400  -21.6230 C.3     7  C7          0.1812
    111  O5'      -18.5910  -40.5770  -22.2530 O.3     7  C7         -0.3114
    112  C4'      -19.3740  -39.4040  -20.3170 C.3     7  C7          0.1773
    113  O4'      -19.4430  -40.3850  -19.2550 O.3     7  C7         -0.3307
    114  C3'      -17.9470  -38.9100  -20.2480 C.3     7  C7          0.1860
    115  O3'      -17.7600  -37.6790  -20.9000 O.3     7  C7         -0.3112
    116  C2'      -17.6900  -38.8700  -18.7510 C.3     7  C7          0.2309
    117  O2'      -18.2960  -37.7380  -18.1470 O.3     7  C7         -0.2156
    118  C1'      -18.4390  -40.1170  -18.2980 C.3     7  C7          0.2420
    119  N1       -17.5450  -41.2920  -18.2080 N.ar    7  C7         -0.2535
    120  C2       -16.6730  -41.3980  -17.1160 C.ar    7  C7          0.3532
    121  O2       -16.6450  -40.5120  -16.2470 O.2     7  C7         -0.2443
    122  N3       -15.8710  -42.4730  -17.0240 N.ar    7  C7         -0.1739
    123  C4       -15.9220  -43.4230  -17.9580 C.ar    7  C7          0.1759
    124  N4       -15.1020  -44.4690  -17.8150 N.pl3   7  C7         -0.1070
    125  C5       -16.8050  -43.3340  -19.0790 C.ar    7  C7          0.0566
    126  C6       -17.5900  -42.2570  -19.1720 C.ar    7  C7          0.0850
    127  OP1      -18.7170  -40.6920  -24.7210 O.2     7  C7         -0.5172
    128  OP2      -17.7840  -42.6820  -23.3020 O.co2   7  C7         -0.4373
    129  P        -16.2970  -37.2290  -21.3760 P.3     8  U8          0.2141
    130  C5'      -16.0020  -35.6720  -19.2750 C.3     8  U8          0.1812
    131  O5'      -15.5610  -36.7820  -20.0400 O.3     8  U8         -0.3114
    132  C4'      -15.1420  -35.5300  -18.0510 C.3     8  U8          0.1773
    133  O4'      -15.2800  -36.7170  -17.2320 O.3     8  U8         -0.3307
    134  C3'      -13.6660  -35.4670  -18.3510 C.3     8  U8          0.1860
    135  O3'      -13.2610  -34.1720  -18.7110 O.3     8  U8         -0.3112
    136  C2'      -13.0230  -36.0100  -17.0770 C.3     8  U8          0.2309
    137  O2'      -12.9460  -35.0210  -16.0570 O.3     8  U8         -0.2156
    138  C1'      -14.0380  -37.0570  -16.6540 C.3     8  U8          0.2420
    139  N1       -13.6870  -38.4320  -17.0750 N.ar    8  U8         -0.2534
    140  C2       -12.9130  -39.1770  -16.2040 C.ar    8  U8          0.3546
    141  O2       -12.4750  -38.7400  -15.1540 O.2     8  U8         -0.2443
    142  N3       -12.6520  -40.4520  -16.6050 N.ar    8  U8         -0.1530
    143  C4       -13.0760  -41.0530  -17.7610 C.ar    8  U8          0.2846
    144  O4       -12.7450  -42.2230  -17.9790 O.2     8  U8         -0.2650
    145  C5       -13.8870  -40.2220  -18.5950 C.ar    8  U8          0.0814
    146  C6       -14.1710  -38.9710  -18.2340 C.ar    8  U8          0.0870
    147  OP1      -16.4530  -36.0470  -22.2790 O.2     8  U8         -0.5172
    148  OP2      -15.5730  -38.4530  -21.7930 O.co2   8  U8         -0.4373
    149  P        -12.3600  -33.9840  -20.0170 P.3     9  G9          0.2141
    150  C5'      -10.1470  -34.2840  -18.6820 C.3     9  G9          0.1812
    151  O5'      -11.0540  -34.8000  -19.6360 O.3     9  G9         -0.3114
    152  C4'       -9.1340  -35.3260  -18.3480 C.3     9  G9          0.1773
    153  O4'       -9.8100  -36.5080  -17.8500 O.3     9  G9         -0.3307
    154  C3'       -8.3230  -35.8440  -19.5170 C.3     9  G9          0.1860
    155  O3'       -7.2760  -34.9590  -19.9360 O.3     9  G9         -0.3112
    156  C2'       -7.8540  -37.1950  -18.9990 C.3     9  G9          0.2309
    157  O2'       -6.7630  -37.0270  -18.1030 O.3     9  G9         -0.2156
    158  C1'       -9.0940  -37.6590  -18.2120 C.3     9  G9          0.2408
    159  N1       -10.0410  -42.3620  -19.8410 N.ar    9  G9         -0.1709
    160  C2        -9.1350  -41.9450  -18.9070 C.ar    9  G9          0.2606
    161  N2        -8.3750  -42.8970  -18.3330 N.pl3   9  G9         -0.0859
    162  N3        -9.0090  -40.6790  -18.5620 N.ar    9  G9         -0.1918
    163  C4        -9.8520  -39.8580  -19.2210 C.ar    9  G9          0.1723
    164  C5       -10.7830  -40.1780  -20.1670 C.ar    9  G9          0.1748
    165  C6       -10.9210  -41.5380  -20.5320 C.ar    9  G9          0.3023
    166  O6       -11.7000  -42.0390  -21.3510 O.2     9  G9         -0.2633
    167  N7       -11.4550  -39.0500  -20.6140 N.ar    9  G9         -0.2173
    168  C8       -10.9190  -38.0770  -19.9380 C.ar    9  G9          0.1817
    169  N9        -9.9520  -38.5010  -19.0620 N.ar    9  G9         -0.2693
    170  OP1      -11.9620  -32.5490  -20.1080 O.3     9  G9         -0.4373
    171  OP2      -13.0080  -34.7230  -21.1350 O.co2   9  G9         -0.5172
    172  P         -7.2050  -34.5170  -21.4890 P.3    10  A10         0.2141
    173  C5'       -6.1500  -35.7410  -23.5200 C.3    10  A10         0.1812
    174  O5'       -6.2850  -35.6360  -22.1190 O.3    10  A10        -0.3114
    175  C4'       -5.2840  -36.9080  -23.8290 C.3    10  A10         0.1773
    176  O4'       -3.9570  -36.6300  -23.3320 O.3    10  A10        -0.3307
    177  C3'       -5.7020  -38.1620  -23.0970 C.3    10  A10         0.1860
    178  O3'       -6.7090  -38.8700  -23.7990 O.3    10  A10        -0.3112
    179  C2'       -4.3870  -38.9240  -22.9500 C.3    10  A10         0.2309
    180  O2'       -4.0390  -39.5500  -24.1750 O.3    10  A10        -0.2156
    181  C1'       -3.4040  -37.7870  -22.7490 C.3    10  A10         0.2408
    182  N1        -0.7530  -39.2370  -18.5340 N.ar   10  A10        -0.2040
    183  C2        -0.9210  -39.8260  -19.7250 C.ar   10  A10         0.2016
    184  N3        -1.6290  -39.4110  -20.7740 N.ar   10  A10        -0.2048
    185  C4        -2.2300  -38.2340  -20.5170 C.ar   10  A10         0.1692
    186  C5        -2.1490  -37.5140  -19.3470 C.ar   10  A10         0.1518
    187  C6        -1.3630  -38.0430  -18.3130 C.ar   10  A10         0.1919
    188  N6        -1.2240  -37.4250  -17.1360 N.pl3  10  A10        -0.1054
    189  N7        -2.8970  -36.3640  -19.4230 N.ar   10  A10        -0.2193
    190  C8        -3.3920  -36.3810  -20.6270 C.ar   10  A10         0.1816
    191  N9        -3.0560  -37.5010  -21.3400 N.ar   10  A10        -0.2693
    192  OP1       -6.4960  -33.2440  -21.6770 O.3    10  A10        -0.4373
    193  OP2       -8.5510  -34.7410  -22.1140 O.co2  10  A10        -0.5172
    194  P         -7.7030  -39.8360  -23.0070 P.3    11  A11         0.2141
    195  C5'       -6.0590  -41.8870  -22.9810 C.3    11  A11         0.1812
    196  O5'       -6.7470  -40.8610  -22.2650 O.3    11  A11        -0.3114
    197  C4'       -5.2160  -42.7090  -22.0390 C.3    11  A11         0.1773
    198  O4'       -4.3700  -41.8080  -21.2950 O.3    11  A11        -0.3307
    199  C3'       -6.0140  -43.4850  -20.9990 C.3    11  A11         0.1860
    200  O3'       -6.1550  -44.8230  -21.4130 O.3    11  A11        -0.3112
    201  C2'       -5.1980  -43.3970  -19.7170 C.3    11  A11         0.2309
    202  O2'       -4.4200  -44.5680  -19.5480 O.3    11  A11        -0.2156
    203  C1'       -4.2600  -42.2150  -19.9610 C.3    11  A11         0.2408
    204  N1        -2.7230  -39.6530  -15.8600 N.ar   11  A11        -0.2040
    205  C2        -2.2720  -40.7740  -16.4430 C.ar   11  A11         0.2016
    206  N3        -2.7320  -41.3870  -17.5360 N.ar   11  A11        -0.2048
    207  C4        -3.7970  -40.7160  -18.0230 C.ar   11  A11         0.1692
    208  C5        -4.3580  -39.5460  -17.5530 C.ar   11  A11         0.1518
    209  C6        -3.7810  -38.9950  -16.4090 C.ar   11  A11         0.1919
    210  N6        -4.2380  -37.8730  -15.8490 N.pl3  11  A11        -0.1054
    211  N7        -5.4370  -39.1640  -18.3410 N.ar   11  A11        -0.2193
    212  C8        -5.5070  -40.0940  -19.2690 C.ar   11  A11         0.1816
    213  N9        -4.5440  -41.0540  -19.1140 N.ar   11  A11        -0.2693
    214  OP1       -8.4620  -40.6460  -23.9900 O.2    11  A11        -0.5172
    215  OP2       -8.3600  -38.9290  -22.0220 O.co2  11  A11        -0.4373
    216  P         -7.5560  -45.5850  -21.3780 P.3    12  C12         0.2141
    217  C5'       -8.2310  -46.3430  -23.7750 C.3    12  C12         0.1812
    218  O5'       -8.1550  -45.2990  -22.8200 O.3    12  C12        -0.3114
    219  C4'       -8.0310  -45.8270  -25.1750 C.3    12  C12         0.1773
    220  O4'       -6.7490  -45.1610  -25.2530 O.3    12  C12        -0.3307
    221  C3'       -7.9640  -46.8840  -26.2680 C.3    12  C12         0.1860
    222  O3'       -9.2410  -47.3150  -26.7080 O.3    12  C12        -0.3112
    223  C2'       -7.1460  -46.2010  -27.3570 C.3    12  C12         0.2309
    224  O2'       -7.9650  -45.3220  -28.1210 O.3    12  C12        -0.2156
    225  C1'       -6.1820  -45.3540  -26.5310 C.3    12  C12         0.2420
    226  N1        -4.8290  -45.9310  -26.3700 N.ar   12  C12        -0.2535
    227  C2        -3.9710  -46.1220  -27.4760 C.ar   12  C12         0.3532
    228  O2        -4.3650  -45.8800  -28.6350 O.2    12  C12        -0.2443
    229  N3        -2.7170  -46.6030  -27.2550 N.ar   12  C12        -0.1739
    230  C4        -2.3100  -46.8550  -26.0080 C.ar   12  C12         0.1759
    231  N4        -1.0810  -47.3190  -25.8350 N.pl3  12  C12        -0.1070
    232  C5        -3.1450  -46.6450  -24.8750 C.ar   12  C12         0.0566
    233  C6        -4.3840  -46.1780  -25.0980 C.ar   12  C12         0.0850
    234  OP1       -8.4390  -44.9420  -20.3660 O.3    12  C12        -0.4373
    235  OP2       -7.2220  -47.0320  -21.3160 O.co2  12  C12        -0.5172
    236  P         -9.3740  -48.7130  -27.4860 P.3    13  C13         0.2141
    237  C5'       -9.2780  -47.6200  -29.8940 C.3    13  C13         0.1812
    238  O5'       -8.6880  -48.4420  -28.8950 O.3    13  C13        -0.3114
    239  C4'       -8.5440  -47.8170  -31.1930 C.3    13  C13         0.1773
    240  O4'       -7.1530  -47.4390  -31.0130 O.3    13  C13        -0.3307
    241  C3'       -8.4890  -49.2660  -31.6570 C.3    13  C13         0.1860
    242  O3'       -9.6290  -49.6360  -32.4120 O.3    13  C13        -0.3112
    243  C2'       -7.1750  -49.3510  -32.4290 C.3    13  C13         0.2309
    244  O2'       -7.3310  -48.9030  -33.7680 O.3    13  C13        -0.2156
    245  C1'       -6.3050  -48.3470  -31.6840 C.3    13  C13         0.2420
    246  N1        -5.3770  -48.9680  -30.7030 N.ar   13  C13        -0.2535
    247  C2        -4.1960  -49.5680  -31.1670 C.ar   13  C13         0.3532
    248  O2        -3.9620  -49.6240  -32.3820 O.2    13  C13        -0.2443
    249  N3        -3.3290  -50.0970  -30.2830 N.ar   13  C13        -0.1739
    250  C4        -3.5880  -50.0400  -28.9820 C.ar   13  C13         0.1759
    251  N4        -2.6810  -50.5750  -28.1650 N.pl3  13  C13        -0.1070
    252  C5        -4.7770  -49.4350  -28.4670 C.ar   13  C13         0.0566
    253  C6        -5.6300  -48.9090  -29.3570 C.ar   13  C13         0.0850
    254  OP1      -10.8020  -49.0350  -27.7420 O.2    13  C13        -0.5172
    255  OP2       -8.4850  -49.6660  -26.7690 O.co2  13  C13        -0.4373
    256  P        -10.1950  -51.1300  -32.3290 P.3    14  C14         0.2141
    257  C5'       -8.7900  -51.5020  -34.5220 C.3    14  C14         0.1812
    258  O5'       -9.1680  -51.9560  -33.2250 O.3    14  C14        -0.3114
    259  C4'       -7.5400  -52.2010  -34.9980 C.3    14  C14         0.1773
    260  O4'       -6.3850  -51.7430  -34.2470 O.3    14  C14        -0.3307
    261  C3'       -7.5490  -53.7070  -34.8210 C.3    14  C14         0.1860
    262  O3'       -8.1960  -54.3570  -35.9030 O.3    14  C14        -0.3112
    263  C2'       -6.0710  -54.0730  -34.6770 C.3    14  C14         0.2309
    264  O2'       -5.4820  -54.4100  -35.9160 O.3    14  C14        -0.2156
    265  C1'       -5.4420  -52.7870  -34.1220 C.3    14  C14         0.2420
    266  N1        -5.0260  -52.9410  -32.7000 N.ar   14  C14        -0.2535
    267  C2        -3.7800  -53.5420  -32.4230 C.ar   14  C14         0.3532
    268  O2        -3.0390  -53.9010  -33.3620 O.2    14  C14        -0.2443
    269  N3        -3.4030  -53.7030  -31.1320 N.ar   14  C14        -0.1739
    270  C4        -4.1970  -53.3060  -30.1470 C.ar   14  C14         0.1759
    271  N4        -3.7780  -53.4830  -28.8960 N.pl3  14  C14        -0.1070
    272  C5        -5.4540  -52.7020  -30.3980 C.ar   14  C14         0.0566
    273  C6        -5.8310  -52.5470  -31.6670 C.ar   14  C14         0.0850
    274  OP1      -11.5200  -51.1630  -32.9980 O.2    14  C14        -0.5172
    275  OP2      -10.0740  -51.5810  -30.9180 O.co2  14  C14        -0.4373
    276  P         -9.3590  -55.4280  -35.6300 P.3    15  G15         0.2141
    277  C5'       -7.8700  -57.2300  -36.7680 C.3    15  G15         0.1812
    278  O5'       -8.5660  -56.8000  -35.6100 O.3    15  G15        -0.3114
    279  C4'       -6.5990  -57.9800  -36.4460 C.3    15  G15         0.1773
    280  O4'       -5.5900  -57.0940  -35.8790 O.3    15  G15        -0.3307
    281  C3'       -6.6730  -59.1000  -35.4250 C.3    15  G15         0.1860
    282  O3'       -7.3680  -60.2580  -35.8590 O.3    15  G15        -0.3112
    283  C2'       -5.1970  -59.3080  -35.1080 C.3    15  G15         0.2309
    284  O2'       -4.5300  -59.9690  -36.1770 O.3    15  G15        -0.2156
    285  C1'       -4.7150  -57.8520  -35.0600 C.3    15  G15         0.2408
    286  N1        -2.0130  -57.6190  -30.8840 N.ar   15  G15        -0.1709
    287  C2        -1.6900  -58.0820  -32.1380 C.ar   15  G15         0.2606
    288  N2        -0.4740  -58.5940  -32.3350 N.pl3  15  G15        -0.0859
    289  N3        -2.5230  -58.0680  -33.1490 N.ar   15  G15        -0.1918
    290  C4        -3.7130  -57.5370  -32.8030 C.ar   15  G15         0.1723
    291  C5        -4.1420  -57.0320  -31.5970 C.ar   15  G15         0.1748
    292  C6        -3.2380  -57.0560  -30.5110 C.ar   15  G15         0.3023
    293  O6        -3.4320  -56.6530  -29.3550 O.2    15  G15        -0.2633
    294  N7        -5.4490  -56.5720  -31.6830 N.ar   15  G15        -0.2173
    295  C8        -5.7780  -56.8120  -32.9250 C.ar   15  G15         0.1817
    296  N9        -4.7570  -57.3680  -33.6660 N.ar   15  G15        -0.2693
    297  OP1      -10.2610  -55.4340  -36.8120 O.2    15  G15        -0.5172
    298  OP2       -9.9310  -55.2080  -34.2770 O.co2  15  G15        -0.4373
    299  P         -8.8380  -60.5530  -35.2800 P.3    16  A16         0.2141
    300  C5'       -8.5170  -62.6310  -33.7100 C.3    16  A16         0.1813
    301  O5'       -8.8450  -62.1180  -34.9970 O.3    16  A16        -0.3114
    302  C4'       -7.0460  -62.9300  -33.6100 C.3    16  A16         0.1801
    303  O4'       -6.3940  -61.8630  -32.8690 O.3    16  A16        -0.3306
    304  C3'       -6.6780  -64.2340  -32.8970 C.3    16  A16         0.2161
    305  O3'       -5.5450  -64.8230  -33.5420 O.3    16  A16        -0.2175
    306  C2'       -6.2800  -63.7520  -31.5040 C.3    16  A16         0.2337
    307  O2'       -5.4030  -64.6150  -30.8140 O.3    16  A16        -0.2155
    308  C1'       -5.6150  -62.4270  -31.8390 C.3    16  A16         0.2409
    309  N1        -2.6420  -61.0490  -27.9640 N.ar   16  A16        -0.2040
    310  C2        -2.5460  -62.0260  -28.8800 C.ar   16  A16         0.2016
    311  N3        -3.3870  -62.3140  -29.8690 N.ar   16  A16        -0.2048
    312  C4        -4.4360  -61.4620  -29.8730 C.ar   16  A16         0.1692
    313  C5        -4.6820  -60.4170  -29.0030 C.ar   16  A16         0.1518
    314  C6        -3.7150  -60.2110  -27.9950 C.ar   16  A16         0.1919
    315  N6        -3.7980  -59.2410  -27.0760 N.pl3  16  A16        -0.1054
    316  N7        -5.8750  -59.7740  -29.3320 N.ar   16  A16        -0.2193
    317  C8        -6.3190  -60.4330  -30.3750 C.ar   16  A16         0.1816
    318  N9        -5.5020  -61.4750  -30.7340 N.ar   16  A16        -0.2693
    319  OP1       -9.8090  -60.2670  -36.3660 O.2    16  A16        -0.5172
    320  OP2       -8.9730  -59.8520  -33.9740 O.co2  16  A16        -0.4373
    321  P          9.8620  -60.9240  -29.6440 P.3    18  A18         0.1280
    322  P         12.5230  -56.2260  -30.4210 P.3    18  A18         0.1280
    323  C5'        7.7190  -62.3310  -30.2710 C.3    18  A18         0.1795
    324  C5'       12.8440  -56.5360  -27.8120 C.3    18  A18         0.1795
    325  O5'        9.1220  -62.3010  -29.9500 O.3    18  A18        -0.3259
    326  O5'       12.1720  -56.9100  -29.0170 O.3    18  A18        -0.3259
    327  C4'        6.9640  -61.3530  -29.4020 C.3    18  A18         0.1772
    328  C4'       12.1530  -55.3740  -27.1490 C.3    18  A18         0.1772
    329  O4'        5.6430  -61.1320  -29.9690 O.3    18  A18        -0.3307
    330  O4'       10.7520  -55.7040  -26.9200 O.3    18  A18        -0.3307
    331  C3'        6.7310  -61.7990  -27.9600 C.3    18  A18         0.1840
    332  C3'       12.6900  -54.9030  -25.7960 C.3    18  A18         0.1860
    333  O3'        6.7320  -60.6790  -27.0820 O.3    18  A18        -0.3279
    334  O3'       12.3520  -53.5140  -25.6850 O.3    18  A18        -0.3112
    335  C2'        5.3500  -62.4400  -28.0270 C.3    18  A18         0.2308
    336  C2'       11.7820  -55.6530  -24.8330 C.3    18  A18         0.2309
    337  O2'        4.6630  -62.4190  -26.7930 O.3    18  A18        -0.2156
    338  O2'       11.7350  -55.1220  -23.5270 O.3    18  A18        -0.2156
    339  C1'        4.6510  -61.5420  -29.0470 C.3    18  A18         0.2408
    340  C1'       10.4520  -55.4870  -25.5530 C.3    18  A18         0.2408
    341  N1         1.6630  -61.4880  -33.2350 N.ar   18  A18        -0.2040
    342  N1         8.6920  -60.2910  -25.5860 N.ar   18  A18        -0.2040
    343  C2         2.6170  -60.6550  -32.8000 C.ar   18  A18         0.2016
    344  C2         9.8130  -59.7650  -26.0760 C.ar   18  A18         0.2016
    345  N3         3.3600  -60.7260  -31.6980 N.ar   18  A18        -0.2048
    346  N3        10.2150  -58.5050  -26.0300 N.ar   18  A18        -0.2048
    347  C4         3.0410  -61.8170  -30.9810 C.ar   18  A18         0.1692
    348  C4         9.3140  -57.7380  -25.3850 C.ar   18  A18         0.1692
    349  C5         2.0840  -62.7650  -31.2970 C.ar   18  A18         0.1518
    350  C5         8.1190  -58.1360  -24.8260 C.ar   18  A18         0.1518
    351  C6         1.3670  -62.5750  -32.4910 C.ar   18  A18         0.1919
    352  C6         7.8090  -59.4980  -24.9400 C.ar   18  A18         0.1919
    353  N6         0.4150  -63.4060  -32.9240 N.pl3  18  A18        -0.1054
    354  N6         6.6920  -60.0370  -24.4490 N.pl3  18  A18        -0.1054
    355  N7         2.0310  -63.7520  -30.3220 N.ar   18  A18        -0.2193
    356  N7         7.4530  -57.0580  -24.2470 N.ar   18  A18        -0.2193
    357  C8         2.9420  -63.3850  -29.4530 C.ar   18  A18         0.1816
    358  C8         8.2450  -56.0410  -24.4650 C.ar   18  A18         0.1816
    359  N9         3.5910  -62.2230  -29.7890 N.ar   18  A18        -0.2693
    360  N9         9.3810  -56.3880  -25.1440 N.ar   18  A18        -0.2693
    361  OP1        9.1350  -59.8420  -30.3560 O.3    18  A18        -0.1955
    362  OP1       11.3440  -56.3130  -31.3290 O.3    18  A18        -0.1955
    363  OP2       11.3150  -61.1120  -29.8840 O.co2  18  A18        -0.7863
    364  OP2       13.8420  -56.7200  -30.8920 O.co2  18  A18        -0.7863
    365  P          5.4910  -59.6690  -27.0730 P.3    19  G19         0.1486
    366  P         13.4370  -52.3770  -25.3640 P.3    19  G19         0.2141
    367  P          5.0630  -59.4510  -27.0550 P.3    19  G19         0.0658
    368  C5'        5.5380  -57.7980  -28.9310 C.3    19  G19         0.0000
    369  C5'       12.1070  -51.0990  -27.2340 C.3    19  G19         0.1812
    370  C5'        5.9050  -58.1710  -29.2030 C.2    19  G19         0.2794
    371  O5'        5.3750  -59.1680  -28.5810 O.2    19  G19        -0.2794
    372  O5'       13.3540  -51.4180  -26.6330 O.3    19  G19        -0.3114
    373  O5'        4.9740  -59.0620  -28.5990 O.3    19  G19         0.0000
    374  C4'        5.3770  -57.5940  -30.4190 C.2    19  G19         0.0476
    375  C4'       11.8840  -51.9020  -28.4910 C.3    19  G19         0.1773
    376  C4'        5.4810  -57.8160  -30.6090 C.3    19  G19         0.2175
    377  O4'        4.2030  -58.3420  -30.8680 O.3    19  G19        -0.2175
    378  O4'       10.9220  -52.9550  -28.2370 O.3    19  G19        -0.3307
    379  O4'        4.1050  -58.2380  -30.8090 O.3    19  G19        -0.2175
    380  C3'        5.0840  -56.1680  -30.8800 C.1    19  G19         0.0000
    381  C3'       11.2900  -51.1660  -29.6760 C.3    19  G19         0.1860
    382  C3'        5.4680  -56.3290  -30.9490 C.2    19  G19         0.2208
    383  O3'        6.1780  -55.2400  -30.9010 O.2    19  G19        -0.3233
    384  O3'       12.2290  -50.3730  -30.3700 O.3    19  G19        -0.3112
    385  O3'        6.7370  -55.8160  -31.3190 O.3    19  G19        -0.1054
    386  C2'        4.3390  -56.4140  -32.1850 C.3    19  G19         0.2306
    387  C2'       10.7310  -52.3070  -30.5130 C.3    19  G19         0.2309
    388  C2'        4.4220  -56.2480  -32.0540 C.1    19  G19         0.0000
    389  O2'        5.2010  -56.9500  -33.1730 O.3    19  G19         0.0000
    390  O2'       11.7720  -52.9600  -31.2180 O.3    19  G19        -0.2156
    391  O2'        4.9520  -56.6940  -33.2930 O.3    19  G19        -0.2133
    392  C1'        3.4300  -57.5390  -31.7360 C.3    19  G19         0.2175
    393  C1'       10.2170  -53.2500  -29.4250 C.3    19  G19         0.2399
    394  C1'        3.4100  -57.2830  -31.5780 C.2    19  G19         0.1314
    395  N1        -0.9520  -54.8730  -31.6690 N.am   19  G19         0.0259
    396  N1         6.3570  -52.1760  -26.1830 N.ar   19  G19        -0.1709
    397  N1         1.9480  -55.3050  -27.0480 N.am   19  G19         0.0143
    398  C2        -0.2000  -55.2550  -32.7470 C.2    19  G19         0.5002
    399  C2         7.7120  -52.1640  -25.9480 C.ar   19  G19         0.2606
    400  C2         3.1810  -55.7930  -27.4100 C.2    19  G19         0.4943
    401  N2        -0.6570  -54.8730  -33.9410 N.pl3  19  G19         0.1303
    402  N2         8.0920  -51.8250  -24.7050 N.pl3  19  G19        -0.0859
    403  N2         4.1420  -55.7570  -26.4750 N.pl3  19  G19         0.1298
    404  N3         0.9210  -55.9500  -32.6590 N.pl3  19  G19        -0.0404
    405  N3         8.6290  -52.4580  -26.8580 N.ar   19  G19        -0.1919
    406  N3         3.4590  -56.2860  -28.6050 N.pl3  19  G19        -0.0724
    407  C4         1.2450  -56.2450  -31.3780 C.2    19  G19         0.2901
    408  C4         8.0800  -52.7680  -28.0490 C.ar   19  G19         0.1713
    409  C4         2.3970  -56.2530  -29.4380 C.3    19  G19         0.2952
    410  C5         0.5520  -55.9140  -30.2320 C.2    19  G19        -0.0258
    411  C5         6.7390  -52.8150  -28.3820 C.ar   19  G19         0.1734
    412  C5         1.1250  -55.7860  -29.1710 C.3    19  G19         0.0307
    413  C6        -0.6490  -55.1690  -30.3440 C.2    19  G19         0.4384
    414  C6         5.7650  -52.4960  -27.3970 C.ar   19  G19         0.3023
    415  C6         0.8360  -55.2610  -27.8860 C.2    19  G19         0.4148
    416  O6        -1.3900  -54.7850  -29.4340 O.2    19  G19        -0.2266
    417  O6         4.5340  -52.4810  -27.5000 O.2    19  G19        -0.2633
    418  O6        -0.2370  -54.8020  -27.4770 O.2    19  G19        -0.2414
    419  N7         1.1900  -56.3970  -29.0980 N.3    19  G19        -0.0848
    420  N7         6.5690  -53.1830  -29.7050 N.ar   19  G19        -0.2349
    421  N7         0.2990  -55.9150  -30.2780 N.am   19  G19        -0.0507
    422  C8         2.2380  -57.0030  -29.5620 C.3    19  G19         0.1919
    423  C8         7.7830  -53.3560  -30.1400 C.ar   19  G19         0.0849
    424  C8         1.0680  -56.4460  -31.1820 C.2    19  G19        -0.0049
    425  N9         2.3330  -56.9680  -30.9350 N.2    19  G19        -0.1486
    426  N9         8.7570  -53.1230  -29.1950 N.ar   19  G19        -0.2833
    427  N9         2.3470  -56.6840  -30.7490 N.2    19  G19        -0.2288
    428  OP1        5.8010  -58.5090  -26.2170 O.3    19  G19        -0.2151
    429  OP1       14.7850  -53.0010  -25.3160 O.2    19  G19        -0.5172
    430  OP1        3.8270  -60.1960  -26.7160 O.3    19  G19         0.0000
    431  OP2        4.2490  -60.4090  -26.7630 O.co2  19  G19        -0.8507
    432  OP2       12.9310  -51.6110  -24.2010 O.co2  19  G19        -0.4373
    433  OP2        5.4120  -58.2470  -26.2620 O.co2  19  G19        -1.0000
    434  P          7.3690  -55.2630  -31.9910 P.3    20  G20         0.3621
    435  P         12.1520  -48.7720  -30.2930 P.3    20  G20         0.2141
    436  C5'        6.5680  -53.1820  -33.4190 C.3    20  G20         0.1820
    437  C5'       10.4680  -47.3240  -31.6480 C.3    20  G20         0.1812
    438  O5'        6.7770  -54.5840  -33.3060 O.3    20  G20        -0.2948
    439  O5'       10.6850  -48.4160  -30.7740 O.3    20  G20        -0.3114
    440  C4'        5.2540  -52.9470  -34.1180 C.3    20  G20         0.1687
    441  C4'       10.6890  -47.7510  -33.0700 C.3    20  G20         0.1771
    442  O4'        4.2390  -53.7260  -33.4540 O.3    20  G20        -0.3315
    443  O4'       10.9040  -49.1950  -33.0860 O.3    20  G20        -0.3325
    444  C3'        4.6840  -51.5320  -34.2220 C.3    20  G20         0.1508
    445  C3'        9.5010  -47.5680  -34.0040 C.3    20  G20         0.1857
    446  O3'        5.1390  -50.8780  -35.4050 O.3    20  G20        -0.2537
    447  O3'        9.3050  -46.2790  -34.5270 O.3    20  G20        -0.3112
    448  C2'        3.1700  -51.7720  -34.2930 C.3    20  G20         0.2223
    449  C2'        9.7490  -48.6480  -35.0220 C.3    20  G20         0.2284
    450  O2'        2.7550  -51.9590  -35.6400 O.3    20  G20        -0.2164
    451  O2'       10.9200  -48.3580  -35.7750 O.3    20  G20        -0.2159
    452  C1'        2.9920  -53.1060  -33.5580 C.3    20  G20         0.2400
    453  C1'       10.0620  -49.7680  -34.0570 C.3    20  G20         0.2297
    454  N1        -1.0500  -51.8030  -30.9110 N.ar   20  G20        -0.1709
    455  N1         4.9770  -50.2410  -34.1560 N.am   20  G20        -0.2014
    456  C2        -0.8350  -51.7650  -32.2730 C.ar   20  G20         0.2606
    457  C2         5.8130  -49.9430  -35.2010 C.3    20  G20         0.2752
    458  N2        -1.8380  -51.3080  -33.0380 N.pl3  20  G20        -0.0859
    459  N2         5.2600  -49.7430  -36.4050 N.4    20  G20        -0.0011
    460  N3         0.2860  -52.1540  -32.8510 N.ar   20  G20        -0.1918
    461  N3         7.1160  -49.8550  -35.0660 N.2    20  G20        -0.1355
    462  C4         1.1720  -52.5690  -31.9330 C.ar   20  G20         0.1723
    463  C4         7.5340  -50.0870  -33.7960 C.2    20  G20        -0.0237
    464  C5         1.0740  -52.6520  -30.5690 C.ar   20  G20         0.1748
    465  C5         6.7780  -50.3770  -32.6880 C.3    20  G20         0.2016
    466  C6        -0.1230  -52.2400  -29.9670 C.ar   20  G20         0.3023
    467  C6         5.3910  -50.4780  -32.8460 C.2    20  G20         0.2612
    468  O6        -0.3820  -52.2730  -28.7680 O.2    20  G20        -0.2633
    469  O6         4.5900  -50.7530  -31.9620 O.2    20  G20        -0.2718
    470  N7         2.2260  -53.1320  -29.9860 N.ar   20  G20        -0.2173
    471  N7         7.5430  -50.5440  -31.5480 N.2    20  G20        -0.2416
    472  C8         2.9980  -53.3290  -31.0110 C.ar   20  G20         0.1817
    473  C8         8.7450  -50.3370  -31.9820 C.2    20  G20         0.1642
    474  N9         2.4200  -52.9880  -32.2070 N.ar   20  G20        -0.2693
    475  N9         8.8260  -50.0850  -33.3240 N.am   20  G20        -0.2623
    476  OP1        7.7140  -56.6750  -32.3190 O.2    20  G20        -0.2635
    477  OP1       13.1160  -48.2260  -31.2740 O.2    20  G20        -0.5172
    478  OP2        8.4130  -54.3350  -31.4920 O.co2  20  G20        -0.6951
    479  OP2       12.2420  -48.3490  -28.8830 O.co2  20  G20        -0.4373
    480  P          6.1200  -49.5960  -35.4260 P.3    21  G21         0.2307
    481  P          8.0340  -45.4570  -34.0110 P.3    21  G21         0.2141
    482  C5'        5.3140  -47.2640  -34.5590 C.3    21  G21         0.1845
    483  C5'        5.5590  -46.1870  -33.3670 C.3    21  G21         0.1517
    484  O5'        5.6150  -48.6250  -34.2720 O.3    21  G21        -0.2203
    485  O5'        6.8450  -46.5380  -33.8990 O.3    21  G21        -0.3140
    486  C4'        3.8380  -47.1120  -34.8040 C.3    21  G21         0.0053
    487  C4'        4.3850  -46.7650  -34.1480 C.3    21  G21         0.0631
    488  O4'        3.1700  -48.2390  -34.2020 O.3    21  G21        -0.1862
    489  O4'        3.8940  -47.9720  -33.4920 O.3    21  G21        -0.0346
    490  C3'        3.1530  -45.8700  -34.2360 C.3    21  G21         0.1815
    491  O3'        3.1610  -44.8400  -35.2120 O.3    21  G21        -0.3114
    492  O3'        3.2250  -44.8620  -35.2380 O.3    21  G21         0.0000
    493  C2'        1.7350  -46.3490  -33.9180 C.3    21  G21         0.2168
    494  C2'        1.9880  -46.8470  -34.4060 C.3    21  G21         0.2089
    495  O2'        0.8730  -46.1600  -35.0310 O.3    21  G21        -0.2175
    496  O2'        1.8350  -47.2080  -35.7740 O.3    21  G21        -0.2182
    497  C1'        1.9200  -47.8640  -33.7010 C.3    21  G21         0.1625
    498  C1'        2.4810  -48.0840  -33.6430 C.3    21  G21         0.2208
    499  N1        -1.1450  -48.0690  -29.6280 N.ar   21  G21        -0.2081
    500  C2        -1.3360  -47.4520  -30.8410 C.ar   21  G21         0.2579
    501  N2        -2.5200  -46.8220  -30.9630 N.pl3  21  G21        -0.0860
    502  N3        -0.4520  -47.4500  -31.8460 N.ar   21  G21        -0.1915
    503  C4         0.6770  -48.1370  -31.5390 C.ar   21  G21         0.1893
    504  C5         0.9280  -48.7790  -30.3260 C.ar   21  G21         0.1261
    505  C6        -0.0170  -48.7760  -29.2660 C.ar   21  G21         0.1213
    506  N7         2.1710  -49.3800  -30.3340 N.pl3  21  G21        -0.1875
    507  C8         2.6410  -49.1010  -31.5090 C.2    21  G21         0.1811
    508  N9         1.7850  -48.3340  -32.3040 N.pl3  21  G21        -0.1057
    509  N9         1.8620  -48.3430  -32.3070 N.2    21  G21        -0.2496
    510  OP1        5.8350  -48.9330  -36.7270 O.3    21  G21        -0.0941
    511  OP1        7.6260  -44.4910  -35.0610 O.2    21  G21        -0.5172
    512  OP2        7.5110  -50.0060  -35.1130 O.co2  21  G21        -0.8640
    513  OP2        8.4830  -44.9920  -32.6680 O.co2  21  G21        -0.4373
    514  P          3.5010  -43.3150  -34.8570 P.3    22  G22         0.2141
    515  C5'        1.0090  -42.5200  -34.7390 C.3    22  G22         0.1812
    516  O5'        2.2110  -42.8420  -34.0500 O.3    22  G22        -0.3114
    517  C4'       -0.2180  -42.6380  -33.8660 C.3    22  G22         0.1773
    518  O4'       -0.2470  -43.9200  -33.1840 O.3    22  G22        -0.3307
    519  C3'       -0.3490  -41.6190  -32.7460 C.3    22  G22         0.1860
    520  O3'       -0.8480  -40.3770  -33.2170 O.3    22  G22        -0.3112
    521  C2'       -1.2930  -42.3200  -31.7770 C.3    22  G22         0.2309
    522  O2'       -2.6280  -42.2390  -32.2550 O.3    22  G22        -0.2156
    523  C1'       -0.8420  -43.7760  -31.9130 C.3    22  G22         0.2408
    524  N1         0.3390  -44.3480  -26.9190 N.ar   22  G22        -0.1709
    525  C2        -0.8150  -43.8420  -27.4710 C.ar   22  G22         0.2606
    526  N2        -1.7550  -43.4500  -26.5900 N.pl3  22  G22        -0.0859
    527  N3        -1.0360  -43.7270  -28.7790 N.ar   22  G22        -0.1918
    528  C4         0.0160  -44.1790  -29.5040 C.ar   22  G22         0.1723
    529  C5         1.2110  -44.7010  -29.0380 C.ar   22  G22         0.1748
    530  C6         1.4290  -44.8170  -27.6450 C.ar   22  G22         0.3023
    531  O6         2.4320  -45.2660  -27.0690 O.2    22  G22        -0.2633
    532  N7         2.0490  -45.0590  -30.0770 N.ar   22  G22        -0.2173
    533  C8         1.3650  -44.7370  -31.1340 C.ar   22  G22         0.1817
    534  N9         0.1350  -44.1920  -30.8810 N.ar   22  G22        -0.2693
    535  OP1        3.5150  -42.5310  -36.1200 O.2    22  G22        -0.5172
    536  OP2        4.6860  -43.2540  -33.9770 O.co2  22  G22        -0.4373
    537  P         -0.0710  -39.0200  -32.8890 P.3    23  C23         0.2141
    538  C5'       -2.2060  -38.7030  -31.4840 C.3    23  C23         0.1812
    539  O5'       -0.8110  -38.5180  -31.5870 O.3    23  C23        -0.3114
    540  C4'       -2.6250  -38.7090  -30.0530 C.3    23  C23         0.1773
    541  O4'       -2.3020  -39.9770  -29.4470 O.3    23  C23        -0.3307
    542  C3'       -1.9090  -37.6980  -29.1930 C.3    23  C23         0.1860
    543  O3'       -2.4900  -36.4270  -29.3170 O.3    23  C23        -0.3112
    544  C2'       -2.0480  -38.2910  -27.8040 C.3    23  C23         0.2309
    545  O2'       -3.3660  -38.0750  -27.2990 O.3    23  C23        -0.2156
    546  C1'       -1.9130  -39.7750  -28.1100 C.3    23  C23         0.2420
    547  N1        -0.5580  -40.3360  -27.9240 N.ar   23  C23        -0.2535
    548  C2        -0.0310  -40.4670  -26.6420 C.ar   23  C23         0.3532
    549  O2        -0.6940  -40.0200  -25.7000 O.2    23  C23        -0.2443
    550  N3         1.1870  -41.0560  -26.4760 N.ar   23  C23        -0.1739
    551  C4         1.8600  -41.5390  -27.5270 C.ar   23  C23         0.1759
    552  N4         3.0550  -42.1190  -27.3220 N.pl3  23  C23        -0.1070
    553  C5         1.3320  -41.4300  -28.8480 C.ar   23  C23         0.0566
    554  C6         0.1350  -40.8390  -28.9960 C.ar   23  C23         0.0850
    555  OP1       -0.3010  -38.0090  -33.9500 O.2    23  C23        -0.5172
    556  OP2        1.3060  -39.4140  -32.5210 O.co2  23  C23        -0.4373
    557  P         -1.5660  -35.1340  -29.2940 P.3    24  G24         0.2141
    558  C5'       -2.1250  -34.9910  -26.7770 C.3    24  G24         0.1812
    559  O5'       -1.1310  -35.0460  -27.7700 O.3    24  G24        -0.3114
    560  C4'       -1.5510  -35.2400  -25.4130 C.3    24  G24         0.1773
    561  O4'       -1.1000  -36.6100  -25.3040 O.3    24  G24        -0.3307
    562  C3'       -0.3280  -34.4470  -25.0120 C.3    24  G24         0.1860
    563  O3'       -0.6060  -33.1080  -24.6650 O.3    24  G24        -0.3112
    564  C2'        0.1800  -35.2680  -23.8460 C.3    24  G24         0.2309
    565  O2'       -0.6950  -35.1230  -22.7490 O.3    24  G24        -0.2156
    566  C1'       -0.0360  -36.6760  -24.3810 C.3    24  G24         0.2408
    567  N1         4.7030  -38.2100  -23.9210 N.ar   24  G24        -0.1709
    568  C2         3.8250  -37.8470  -22.9270 C.ar   24  G24         0.2606
    569  N2         4.3140  -37.9140  -21.6810 N.pl3  24  G24        -0.0859
    570  N3         2.5830  -37.4520  -23.1640 N.ar   24  G24        -0.1918
    571  C4         2.3260  -37.4700  -24.4950 C.ar   24  G24         0.1723
    572  C5         3.1360  -37.8120  -25.5560 C.ar   24  G24         0.1748
    573  C6         4.4530  -38.2220  -25.2830 C.ar   24  G24         0.3023
    574  O6         5.3180  -38.5640  -26.0790 O.2    24  G24        -0.2633
    575  N7         2.4720  -37.6870  -26.7730 N.ar   24  G24        -0.2173
    576  C8         1.2890  -37.2650  -26.4520 C.ar   24  G24         0.1817
    577  N9         1.1510  -37.1320  -25.0960 N.ar   24  G24        -0.2693
    578  OP1       -2.4710  -33.9900  -29.5590 O.3    24  G24        -0.4373
    579  OP2       -0.3720  -35.4240  -30.1330 O.co2  24  G24        -0.5172
    580  P          0.5350  -31.9890  -24.8690 P.3    25  G25         0.2141
    581  C5'        1.0150  -31.9660  -22.3160 C.3    25  G25         0.1812
    582  O5'        1.4770  -32.2240  -23.6190 O.3    25  G25        -0.3114
    583  C4'        2.0220  -32.4060  -21.2930 C.3    25  G25         0.1773
    584  O4'        2.3840  -33.8060  -21.4710 O.3    25  G25        -0.3307
    585  C3'        3.3680  -31.7180  -21.3210 C.3    25  G25         0.1860
    586  O3'        3.3600  -30.3690  -20.8930 O.3    25  G25        -0.3112
    587  C2'        4.1900  -32.6580  -20.4560 C.3    25  G25         0.2309
    588  O2'        3.7850  -32.5720  -19.0970 O.3    25  G25        -0.2156
    589  C1'        3.7010  -34.0030  -20.9820 C.3    25  G25         0.2408
    590  N1         8.2090  -36.0890  -22.1550 N.ar   25  G25        -0.1709
    591  C2         7.7320  -35.6840  -20.9460 C.ar   25  G25         0.2606
    592  N2         8.5290  -35.8620  -19.8880 N.pl3  25  G25        -0.0859
    593  N3         6.5300  -35.1530  -20.7820 N.ar   25  G25        -0.1918
    594  C4         5.8310  -35.0350  -21.9280 C.ar   25  G25         0.1723
    595  C5         6.2220  -35.4130  -23.1820 C.ar   25  G25         0.1748
    596  C6         7.5170  -35.9850  -23.3580 C.ar   25  G25         0.3023
    597  O6         8.0490  -36.3750  -24.4070 O.2    25  G25        -0.2633
    598  N7         5.2180  -35.1380  -24.0980 N.ar   25  G25        -0.2173
    599  C8         4.2630  -34.5930  -23.4060 C.ar   25  G25         0.1817
    600  N9         4.5660  -34.5110  -22.0720 N.ar   25  G25        -0.2693
    601  OP1       -0.0080  -30.6240  -24.7720 O.3    25  G25        -0.4373
    602  OP2        1.3070  -32.3840  -26.0760 O.co2  25  G25        -0.5172
    603  P          4.2410  -29.3160  -21.7160 P.3    26  G26         0.2141
    604  C5'        5.9470  -29.5090  -19.7310 C.3    26  G26         0.1812
    605  O5'        5.7060  -29.5470  -21.1300 O.3    26  G26        -0.3114
    606  C4'        7.2700  -30.1450  -19.3660 C.3    26  G26         0.1773
    607  O4'        7.2950  -31.5400  -19.7810 O.3    26  G26        -0.3307
    608  C3'        8.5190  -29.5720  -20.0180 C.3    26  G26         0.1860
    609  O3'        8.9610  -28.3390  -19.4740 O.3    26  G26        -0.3112
    610  C2'        9.5110  -30.7080  -19.8420 C.3    26  G26         0.2309
    611  O2'        9.9360  -30.7760  -18.4960 O.3    26  G26        -0.2156
    612  C1'        8.6240  -31.9160  -20.1070 C.3    26  G26         0.2408
    613  N1        11.3620  -34.2200  -23.7650 N.ar   26  G26        -0.1709
    614  C2        11.6390  -34.0420  -22.4330 C.ar   26  G26         0.2606
    615  N2        12.7980  -34.5420  -22.0100 N.pl3  26  G26        -0.0859
    616  N3        10.8420  -33.4300  -21.5680 N.ar   26  G26        -0.1918
    617  C4         9.7050  -32.9860  -22.1430 C.ar   26  G26         0.1723
    618  C5         9.3260  -33.1090  -23.4620 C.ar   26  G26         0.1748
    619  C6        10.1980  -33.7650  -24.3820 C.ar   26  G26         0.3023
    620  O6        10.0260  -33.9720  -25.5930 O.2    26  G26        -0.2633
    621  N7         8.0830  -32.5210  -23.6580 N.ar   26  G26        -0.2173
    622  C8         7.7420  -32.0520  -22.4840 C.ar   26  G26         0.1817
    623  N9         8.6830  -32.3060  -21.5240 N.ar   26  G26        -0.2693
    624  OP1        3.8230  -27.9060  -21.4780 O.3    26  G26        -0.4373
    625  OP2        4.2620  -29.8700  -23.0860 O.co2  26  G26        -0.5172
    626  P          9.6010  -27.2310  -20.4560 P.3    27  G27         0.2141
    627  C5'       11.9760  -28.0800  -19.6750 C.3    27  G27         0.1812
    628  O5'       11.0930  -27.7510  -20.7370 O.3    27  G27        -0.3114
    629  C4'       13.0890  -29.0050  -20.1130 C.3    27  G27         0.1773
    630  O4'       12.5720  -30.2380  -20.6740 O.3    27  G27        -0.3307
    631  C3'       14.0370  -28.5020  -21.1860 C.3    27  G27         0.1860
    632  O3'       14.9640  -27.5540  -20.6900 O.3    27  G27        -0.3112
    633  C2'       14.6860  -29.7950  -21.6500 C.3    27  G27         0.2309
    634  O2'       15.6360  -30.2400  -20.6980 O.3    27  G27        -0.2156
    635  C1'       13.4940  -30.7500  -21.6180 C.3    27  G27         0.2408
    636  N1        14.0590  -32.1750  -26.4710 N.ar   27  G27        -0.1709
    637  C2        14.9320  -32.3250  -25.4250 C.ar   27  G27         0.2606
    638  N2        16.0860  -32.9280  -25.7340 N.pl3  27  G27        -0.0859
    639  N3        14.6660  -31.9240  -24.1880 N.ar   27  G27        -0.1918
    640  C4        13.4400  -31.3320  -24.0930 C.ar   27  G27         0.1723
    641  C5        12.5210  -31.1190  -25.0840 C.ar   27  G27         0.1748
    642  C6        12.8150  -31.5640  -26.4000 C.ar   27  G27         0.3023
    643  O6        12.1400  -31.4790  -27.4260 O.2    27  G27        -0.2633
    644  N7        11.3970  -30.4920  -24.5770 N.ar   27  G27        -0.2173
    645  C8        11.6470  -30.3080  -23.3200 C.ar   27  G27         0.1817
    646  N9        12.8620  -30.8070  -22.9530 N.ar   27  G27        -0.2693
    647  OP1        9.6700  -25.9330  -19.7530 O.3    27  G27        -0.4373
    648  OP2        8.8980  -27.2910  -21.7690 O.co2  27  G27        -0.5172
    649  P         15.2730  -26.1860  -21.4760 P.3    28  G28         0.2141
    650  C5'       17.1480  -27.5290  -22.6420 C.3    28  G28         0.1812
    651  O5'       16.0130  -26.6960  -22.7740 O.3    28  G28        -0.3114
    652  C4'       17.5590  -28.0400  -23.9810 C.3    28  G28         0.1773
    653  O4'       16.6630  -29.1100  -24.3950 O.3    28  G28        -0.3307
    654  C3'       17.4600  -27.0260  -25.1010 C.3    28  G28         0.1860
    655  O3'       18.5640  -26.1420  -25.1230 O.3    28  G28        -0.3112
    656  C2'       17.3530  -27.9220  -26.3170 C.3    28  G28         0.2309
    657  O2'       18.6190  -28.5050  -26.5960 O.3    28  G28        -0.2156
    658  C1'       16.4210  -29.0140  -25.7780 C.3    28  G28         0.2408
    659  N1        12.5330  -28.4900  -28.9600 N.ar   28  G28        -0.1709
    660  C2        13.7920  -29.0080  -29.2010 C.ar   28  G28         0.2606
    661  N2        14.0370  -29.4280  -30.4510 N.pl3  28  G28        -0.0859
    662  N3        14.7390  -29.1080  -28.2750 N.ar   28  G28        -0.1918
    663  C4        14.3080  -28.6330  -27.0860 C.ar   28  G28         0.1723
    664  C5        13.0780  -28.1090  -26.7390 C.ar   28  G28         0.1748
    665  C6        12.0900  -28.0140  -27.7320 C.ar   28  G28         0.3023
    666  O6        10.9460  -27.5810  -27.6040 O.2    28  G28        -0.2633
    667  N7        13.0300  -27.7490  -25.3980 N.ar   28  G28        -0.2173
    668  C8        14.2230  -28.0490  -24.9650 C.ar   28  G28         0.1817
    669  N9        15.0310  -28.5980  -25.9370 N.ar   28  G28        -0.2693
    670  OP1       16.3400  -25.4960  -20.6870 O.3    28  G28        -0.4373
    671  OP2       14.0430  -25.4490  -21.8610 O.co2  28  G28        -0.5172
    672  P         18.3860  -24.6110  -25.5800 P.3    29  A29         0.2141
    673  C5'       18.9900  -23.4530  -27.8530 C.3    29  A29         0.1812
    674  O5'       19.0660  -24.5910  -27.0180 O.3    29  A29        -0.3114
    675  C4'       19.9830  -23.5720  -28.9760 C.3    29  A29         0.1773
    676  O4'       19.6570  -24.7320  -29.7780 O.3    29  A29        -0.3307
    677  C3'       20.0200  -22.4180  -29.9650 C.3    29  A29         0.1860
    678  O3'       20.8490  -21.3630  -29.5210 O.3    29  A29        -0.3112
    679  C2'       20.5190  -23.0810  -31.2360 C.3    29  A29         0.2309
    680  O2'       21.9230  -23.2790  -31.1680 O.3    29  A29        -0.2156
    681  C1'       19.8420  -24.4430  -31.1410 C.3    29  A29         0.2408
    682  N1        17.1890  -24.9060  -35.4550 N.ar   29  A29        -0.2040
    683  C2        18.5040  -24.9540  -35.1900 C.ar   29  A29         0.2016
    684  N3        19.1330  -24.8170  -34.0270 N.ar   29  A29        -0.2048
    685  C4        18.2400  -24.6110  -33.0580 C.ar   29  A29         0.1692
    686  C5        16.8580  -24.5390  -33.1590 C.ar   29  A29         0.1518
    687  C6        16.3230  -24.6940  -34.4520 C.ar   29  A29         0.1919
    688  N6        15.0200  -24.6640  -34.7430 N.pl3  29  A29        -0.1054
    689  N7        16.2720  -24.3250  -31.9070 N.ar   29  A29        -0.2193
    690  C8        17.2980  -24.2690  -31.0970 C.ar   29  A29         0.1816
    691  N9        18.5110  -24.4330  -31.7420 N.ar   29  A29        -0.2693
    692  OP1       19.2160  -23.7990  -24.6490 O.3    29  A29        -0.4373
    693  OP2       16.9360  -24.3150  -25.7630 O.co2  29  A29        -0.5172
    694  P         20.3150  -19.8530  -29.5590 P.3    30  C30         0.2141
    695  C5'       21.5020  -19.4510  -31.8660 C.3    30  C30         0.1812
    696  O5'       20.2940  -19.5080  -31.1140 O.3    30  C30        -0.3114
    697  C4'       21.2060  -19.3190  -33.3370 C.3    30  C30         0.1773
    698  O4'       20.5640  -20.5330  -33.7970 O.3    30  C30        -0.3307
    699  C3'       20.2320  -18.2060  -33.7010 C.3    30  C30         0.1860
    700  O3'       20.8860  -16.9640  -33.8850 O.3    30  C30        -0.3112
    701  C2'       19.5600  -18.7240  -34.9650 C.3    30  C30         0.2309
    702  O2'       20.3530  -18.4500  -36.1070 O.3    30  C30        -0.2156
    703  C1'       19.5520  -20.2320  -34.7260 C.3    30  C30         0.2420
    704  N1        18.2730  -20.6830  -34.1570 N.ar   30  C30        -0.2535
    705  C2        17.2140  -20.9480  -35.0260 C.ar   30  C30         0.3532
    706  O2        17.3860  -20.8020  -36.2450 O.2    30  C30        -0.2443
    707  N3        16.0380  -21.3610  -34.5080 N.ar   30  C30        -0.1739
    708  C4        15.9140  -21.4940  -33.1900 C.ar   30  C30         0.1759
    709  N4        14.7330  -21.9060  -32.7220 N.pl3  30  C30        -0.1070
    710  C5        16.9780  -21.2250  -32.2840 C.ar   30  C30         0.0566
    711  C6        18.1380  -20.8300  -32.8060 C.ar   30  C30         0.0850
    712  OP1       21.3840  -19.0130  -28.9580 O.3    30  C30        -0.4373
    713  OP2       18.9230  -19.8190  -29.0120 O.co2  30  C30        -0.5172
    714  P         20.5010  -15.6970  -32.9810 P.3    31  C31         0.2141
    715  C5'       19.2490  -14.8640  -35.1090 C.3    31  C31         0.1812
    716  O5'       19.2360  -15.0800  -33.7100 O.3    31  C31        -0.3114
    717  C4'       17.8610  -14.9840  -35.6610 C.3    31  C31         0.1773
    718  O4'       17.4190  -16.3590  -35.5280 O.3    31  C31        -0.3307
    719  C3'       16.8120  -14.1820  -34.9110 C.3    31  C31         0.1860
    720  O3'       16.7660  -12.8200  -35.2930 O.3    31  C31        -0.3112
    721  C2'       15.5350  -14.9500  -35.2000 C.3    31  C31         0.2309
    722  O2'       15.0400  -14.6430  -36.4950 O.3    31  C31        -0.2156
    723  C1'       16.0490  -16.3920  -35.1870 C.3    31  C31         0.2420
    724  N1        15.9210  -16.9970  -33.8440 N.ar   31  C31        -0.2535
    725  C2        14.6520  -17.3620  -33.4100 C.ar   31  C31         0.3532
    726  O2        13.6960  -17.1760  -34.1710 O.2    31  C31        -0.2443
    727  N3        14.5020  -17.9080  -32.1790 N.ar   31  C31        -0.1739
    728  C4        15.5670  -18.0940  -31.3880 C.ar   31  C31         0.1759
    729  N4        15.3610  -18.6390  -30.1800 N.pl3  31  C31        -0.1070
    730  C5        16.8830  -17.7220  -31.8090 C.ar   31  C31         0.0566
    731  C6        17.0060  -17.1810  -33.0310 C.ar   31  C31         0.0850
    732  OP1       21.6020  -14.7020  -33.1050 O.2    31  C31        -0.5172
    733  OP2       20.0400  -16.1870  -31.6600 O.co2  31  C31        -0.4373
    734  P         16.8940  -11.6750  -34.1750 P.3    32  C32         0.2141
    735  C5'       14.2670  -11.6130  -34.3540 C.3    32  C32         0.1812
    736  O5'       15.4320  -11.6040  -33.5350 O.3    32  C32        -0.3114
    737  C4'       13.0850  -12.2670  -33.6690 C.3    32  C32         0.1773
    738  O4'       13.3610  -13.6700  -33.4170 O.3    32  C32        -0.3307
    739  C3'       12.7190  -11.7340  -32.2920 C.3    32  C32         0.1860
    740  O3'       12.0390  -10.4940  -32.2950 O.3    32  C32        -0.3112
    741  C2'       11.9240  -12.8870  -31.6930 C.3    32  C32         0.2309
    742  O2'       10.6060  -12.9470  -32.2180 O.3    32  C32        -0.2156
    743  C1'       12.7090  -14.0820  -32.2240 C.3    32  C32         0.2420
    744  N1        13.7170  -14.5220  -31.2340 N.ar   32  C32        -0.2535
    745  C2        13.2590  -15.2220  -30.0970 C.ar   32  C32         0.3532
    746  O2        12.0460  -15.4600  -29.9720 O.2    32  C32        -0.2443
    747  N3        14.1590  -15.6280  -29.1680 N.ar   32  C32        -0.1739
    748  C4        15.4550  -15.3470  -29.3310 C.ar   32  C32         0.1759
    749  N4        16.3060  -15.7560  -28.3900 N.pl3  32  C32        -0.1070
    750  C5        15.9370  -14.6370  -30.4680 C.ar   32  C32         0.0566
    751  C6        15.0470  -14.2430  -31.3860 C.ar   32  C32         0.0850
    752  OP1       17.1920  -10.3820  -34.8410 O.2    32  C32        -0.5172
    753  OP2       17.8440  -12.1770  -33.1470 O.co2  32  C32        -0.4373
    754  P         12.1820   -9.5400  -31.0100 P.3    33  A33         0.2141
    755  C5'       10.4800   -9.7930  -29.0270 C.3    33  A33         0.1812
    756  O5'       11.4820  -10.3750  -29.8470 O.3    33  A33        -0.3114
    757  C4'       10.1380  -10.7020  -27.8740 C.3    33  A33         0.1773
    758  O4'       10.7820  -11.9860  -28.0800 O.3    33  A33        -0.3307
    759  C3'       10.6380  -10.2580  -26.5090 C.3    33  A33         0.1860
    760  O3'        9.8050   -9.3020  -25.8870 O.3    33  A33        -0.3112
    761  C2'       10.7310  -11.5670  -25.7460 C.3    33  A33         0.2309
    762  O2'        9.4460  -11.9830  -25.3130 O.3    33  A33        -0.2156
    763  C1'       11.2150  -12.5110  -26.8450 C.3    33  A33         0.2408
    764  N1        15.3360  -14.5410  -24.5910 N.ar   33  A33        -0.2040
    765  C2        14.0230  -14.6280  -24.3270 C.ar   33  A33         0.2016
    766  N3        13.0000  -14.0670  -24.9700 N.ar   33  A33        -0.2048
    767  C4        13.4480  -13.3250  -26.0010 C.ar   33  A33         0.1692
    768  C5        14.7610  -13.1340  -26.3960 C.ar   33  A33         0.1518
    769  C6        15.7440  -13.7900  -25.6370 C.ar   33  A33         0.1919
    770  N6        17.0510  -13.7110  -25.8860 N.pl3  33  A33        -0.1054
    771  N7        14.8340  -12.3090  -27.5120 N.ar   33  A33        -0.2193
    772  C8        13.5700  -12.0220  -27.7490 C.ar   33  A33         0.1816
    773  N9        12.6870  -12.6060  -26.8780 N.ar   33  A33        -0.2693
    774  OP1       11.4010   -8.3000  -31.2420 O.2    33  A33        -0.5172
    775  OP2       13.6260   -9.4580  -30.6720 O.co2  33  A33        -0.4373
    776  P         10.4750   -8.0380  -25.1700 P.3    34  G34         0.2141
    777  C5'       10.3680   -6.6540  -27.4090 C.3    34  G34         0.1813
    778  O5'        9.9730   -6.8060  -26.0460 O.3    34  G34        -0.3114
    779  C4'       10.4620   -5.1990  -27.7910 C.3    34  G34         0.1801
    780  O4'       10.1020   -4.4100  -26.6220 O.3    34  G34        -0.3306
    781  C3'       11.8590   -4.7370  -28.1990 C.3    34  G34         0.2161
    782  O3'       11.7740   -3.6440  -29.1350 O.3    34  G34        -0.2175
    783  C2'       12.4390   -4.2610  -26.8680 C.3    34  G34         0.2337
    784  O2'       13.5150   -3.3540  -26.9840 O.3    34  G34        -0.2155
    785  C1'       11.2100   -3.6250  -26.2090 C.3    34  G34         0.2409
    786  N1        10.5500   -0.9650  -21.8340 N.ar   34  G34        -0.1709
    787  C2        10.4020   -0.5230  -23.1300 C.ar   34  G34         0.2606
    788  N2        10.0360    0.7640  -23.2520 N.pl3  34  G34        -0.0859
    789  N3        10.5940   -1.2960  -24.2040 N.ar   34  G34        -0.1918
    790  C4        10.9580   -2.5650  -23.8760 C.ar   34  G34         0.1723
    791  C5        11.1320   -3.0900  -22.6080 C.ar   34  G34         0.1748
    792  C6        10.9170   -2.2630  -21.4720 C.ar   34  G34         0.3023
    793  O6        11.0240   -2.5590  -20.2740 O.2    34  G34        -0.2633
    794  N7        11.5100   -4.4210  -22.6700 N.ar   34  G34        -0.2173
    795  C8        11.5580   -4.6890  -23.9430 C.ar   34  G34         0.1817
    796  N9        11.2400   -3.6150  -24.7390 N.ar   34  G34        -0.2693
    797  OP1       11.9470   -8.1690  -25.3420 O.2    34  G34        -0.5172
    798  OP2        9.9070   -7.9180  -23.8000 O.co2  34  G34        -0.4373
    799  P         12.5410  -15.0250   -1.7940 P.3    39  G39         0.1280
    800  C5'       11.8870  -16.9480   -3.4620 C.3    39  G39         0.1795
    801  O5'       12.4300  -16.5640   -2.2060 O.3    39  G39        -0.3259
    802  C4'       12.8840  -16.7490   -4.5750 C.3    39  G39         0.1772
    803  O4'       13.9770  -17.6990   -4.4350 O.3    39  G39        -0.3307
    804  C3'       12.3600  -17.0040   -5.9770 C.3    39  G39         0.1860
    805  O3'       11.5910  -15.9340   -6.5040 O.3    39  G39        -0.3112
    806  C2'       13.6350  -17.3290   -6.7480 C.3    39  G39         0.2309
    807  O2'       14.3860  -16.1520   -7.0110 O.3    39  G39        -0.2156
    808  C1'       14.3860  -18.1600   -5.7090 C.3    39  G39         0.2408
    809  N1        14.7500  -22.6010   -8.2930 N.ar   39  G39        -0.1709
    810  C2        15.3290  -21.3870   -8.5760 C.ar   39  G39         0.2606
    811  N2        16.0970  -21.3600   -9.6780 N.pl3  39  G39        -0.0859
    812  N3        15.1840  -20.2890   -7.8390 N.ar   39  G39        -0.1918
    813  C4        14.3860  -20.5090   -6.7710 C.ar   39  G39         0.1723
    814  C5        13.7650  -21.6890   -6.4010 C.ar   39  G39         0.1748
    815  C6        13.9360  -22.8530   -7.1970 C.ar   39  G39         0.3023
    816  O6        13.4610  -23.9830   -7.0150 O.2    39  G39        -0.2633
    817  N7        13.0330  -21.5180   -5.2410 N.ar   39  G39        -0.2173
    818  C8        13.2160  -20.2680   -4.9280 C.ar   39  G39         0.1817
    819  N9        14.0250  -19.5900   -5.8060 N.ar   39  G39        -0.2693
    820  OP1       12.6250  -14.9190   -0.3130 O.3    39  G39        -0.1955
    821  OP2       11.4840  -14.2770   -2.5250 O.co2  39  G39        -0.7863
    822  P         10.0920  -16.2160   -7.0090 P.3    40  G40         0.2141
    823  C5'       11.1440  -16.7570   -9.3250 C.3    40  G40         0.1812
    824  O5'       10.2940  -17.1610   -8.2700 O.3    40  G40        -0.3114
    825  C4'       11.6500  -17.9380  -10.1000 C.3    40  G40         0.1773
    826  O4'       12.2740  -18.8950   -9.2090 O.3    40  G40        -0.3307
    827  C3'       10.5910  -18.7500  -10.8110 C.3    40  G40         0.1860
    828  O3'       10.1550  -18.1360  -12.0060 O.3    40  G40        -0.3112
    829  C2'       11.2920  -20.0860  -11.0100 C.3    40  G40         0.2309
    830  O2'       12.2320  -20.0190  -12.0770 O.3    40  G40        -0.2156
    831  C1'       12.0560  -20.2050   -9.6900 C.3    40  G40         0.2408
    832  N1        10.2430  -24.7160   -8.3450 N.ar   40  G40        -0.1709
    833  C2        11.0100  -24.3590   -9.4160 C.ar   40  G40         0.2606
    834  N2        11.3440  -25.3280  -10.2690 N.pl3  40  G40        -0.0859
    835  N3        11.4110  -23.1380   -9.6580 N.ar   40  G40        -0.1918
    836  C4        10.9890  -22.2790   -8.7180 C.ar   40  G40         0.1723
    837  C5        10.2190  -22.5200   -7.6080 C.ar   40  G40         0.1748
    838  C6         9.7770  -23.8480   -7.3640 C.ar   40  G40         0.3023
    839  O6         9.0710  -24.2750   -6.4410 O.2    40  G40        -0.2633
    840  N7        10.0090  -21.3400   -6.8980 N.ar   40  G40        -0.2173
    841  C8        10.6500  -20.4240   -7.5740 C.ar   40  G40         0.1817
    842  N9        11.2650  -20.9350   -8.6860 N.ar   40  G40        -0.2693
    843  OP1        9.5240  -14.9340   -7.4990 O.2    40  G40        -0.5172
    844  OP2        9.3850  -17.0060   -5.9670 O.co2  40  G40        -0.4373
    845  P          8.5890  -18.0470  -12.3350 P.3    41  G41         0.2141
    846  C5'        7.8800  -20.2460  -13.4680 C.3    41  G41         0.1812
    847  O5'        8.1190  -19.5560  -12.2590 O.3    41  G41        -0.3114
    848  C4'        8.5640  -21.5770  -13.5170 C.3    41  G41         0.1773
    849  O4'        9.0770  -21.9440  -12.2150 O.3    41  G41        -0.3307
    850  C3'        7.6640  -22.7290  -13.8730 C.3    41  G41         0.1860
    851  O3'        7.3780  -22.7850  -15.2430 O.3    41  G41        -0.3112
    852  C2'        8.4480  -23.9160  -13.3600 C.3    41  G41         0.2309
    853  O2'        9.5390  -24.1660  -14.2240 O.3    41  G41        -0.2156
    854  C1'        8.9940  -23.3490  -12.0550 C.3    41  G41         0.2408
    855  N1         6.4710  -26.8380   -9.2280 N.ar   41  G41        -0.1709
    856  C2         7.2510  -27.0200  -10.3320 C.ar   41  G41         0.2606
    857  N2         7.3660  -28.2840  -10.7410 N.pl3  41  G41        -0.0859
    858  N3         7.8650  -26.0490  -10.9850 N.ar   41  G41        -0.1918
    859  C4         7.6400  -24.8420  -10.4550 C.ar   41  G41         0.1723
    860  C5         6.8690  -24.5530   -9.3530 C.ar   41  G41         0.1748
    861  C6         6.2130  -25.6000   -8.6570 C.ar   41  G41         0.3023
    862  O6         5.4860  -25.5180   -7.6630 O.2    41  G41        -0.2633
    863  N7         6.8700  -23.1920   -9.1080 N.ar   41  G41        -0.2173
    864  C8         7.6190  -22.6940  -10.0540 C.ar   41  G41         0.1817
    865  N9         8.1020  -23.6350  -10.9150 N.ar   41  G41        -0.2693
    866  OP1        8.5080  -17.6610  -13.7670 O.2    41  G41        -0.5172
    867  OP2        7.8750  -17.2590  -11.3010 O.co2  41  G41        -0.4373
    868  P          5.8550  -22.8630  -15.7020 P.3    42  G42         0.2141
    869  C5'        6.7120  -25.2790  -16.2250 C.3    42  G42         0.1812
    870  O5'        5.6340  -24.4090  -15.9650 O.3    42  G42        -0.3114
    871  C4'        6.3130  -26.7160  -16.0070 C.3    42  G42         0.1773
    872  O4'        6.6530  -27.1240  -14.6530 O.3    42  G42        -0.3307
    873  C3'        4.8330  -27.0180  -16.1020 C.3    42  G42         0.1860
    874  O3'        4.3390  -27.0720  -17.4240 O.3    42  G42        -0.3112
    875  C2'        4.7340  -28.3240  -15.3330 C.3    42  G42         0.2309
    876  O2'        5.2750  -29.3890  -16.1010 O.3    42  G42        -0.2156
    877  C1'        5.6940  -28.0410  -14.1790 C.3    42  G42         0.2408
    878  N1         2.7410  -28.8860  -10.1490 N.ar   42  G42        -0.1709
    879  C2         3.1900  -29.7560  -11.1120 C.ar   42  G42         0.2606
    880  N2         2.8230  -31.0350  -10.9980 N.pl3  42  G42        -0.0859
    881  N3         3.9510  -29.4070  -12.1200 N.ar   42  G42        -0.1918
    882  C4         4.2370  -28.0950  -12.0950 C.ar   42  G42         0.1723
    883  C5         3.8380  -27.1370  -11.1870 C.ar   42  G42         0.1748
    884  C6         3.0150  -27.5230  -10.0970 C.ar   42  G42         0.3023
    885  O6         2.5510  -26.8120   -9.1900 O.2    42  G42        -0.2633
    886  N7         4.3490  -25.8930  -11.5240 N.ar   42  G42        -0.2173
    887  C8         5.0390  -26.1260  -12.6080 C.ar   42  G42         0.1817
    888  N9         5.0150  -27.4400  -13.0110 N.ar   42  G42        -0.2693
    889  OP1        5.6600  -22.0910  -16.9550 O.2    42  G42        -0.5172
    890  OP2        5.0460  -22.4980  -14.5160 O.co2  42  G42        -0.4373
    891  P          2.7720  -26.8020  -17.7240 P.3    43  C43         0.2141
    892  C5'        2.3990  -29.3760  -17.8560 C.3    43  C43         0.1812
    893  O5'        2.0890  -28.1370  -17.2400 O.3    43  C43        -0.3114
    894  C4'        1.6230  -30.4590  -17.1670 C.3    43  C43         0.1773
    895  O4'        1.9580  -30.4390  -15.7600 O.3    43  C43        -0.3307
    896  C3'        0.1230  -30.2440  -17.2030 C.3    43  C43         0.1860
    897  O3'       -0.4700  -30.7490  -18.3840 O.3    43  C43        -0.3112
    898  C2'       -0.3700  -30.8960  -15.9160 C.3    43  C43         0.2309
    899  O2'       -0.5860  -32.2890  -16.0730 O.3    43  C43        -0.2156
    900  C1'        0.8140  -30.6760  -14.9760 C.3    43  C43         0.2420
    901  N1         0.6160  -29.5310  -14.0540 N.ar   43  C43        -0.2535
    902  C2         0.0750  -29.8650  -12.8310 C.ar   43  C43         0.3532
    903  O2        -0.1530  -31.0680  -12.6790 O.2    43  C43        -0.2443
    904  N3        -0.1360  -28.9220  -11.8830 N.ar   43  C43        -0.1739
    905  C4         0.1770  -27.6690  -12.1680 C.ar   43  C43         0.1759
    906  N4        -0.0510  -26.7730  -11.2340 N.pl3  43  C43        -0.1070
    907  C5         0.7370  -27.2700  -13.4140 C.ar   43  C43         0.0566
    908  C6         0.9540  -28.2300  -14.3340 C.ar   43  C43         0.0850
    909  OP1        2.5690  -26.7690  -19.2020 O.2    43  C43        -0.5172
    910  OP2        2.2770  -25.6990  -16.8560 O.co2  43  C43        -0.4373
    911  P         -1.5520  -29.8540  -19.1550 P.3    44  G44         0.2141
    912  C5'       -3.3410  -30.9990  -17.6400 C.3    44  G44         0.1812
    913  O5'       -2.7850  -29.8110  -18.1580 O.3    44  G44        -0.3114
    914  C4'       -4.2830  -30.6760  -16.5290 C.3    44  G44         0.1773
    915  O4'       -3.5630  -30.3790  -15.3010 O.3    44  G44        -0.3307
    916  C3'       -5.1360  -29.4530  -16.7580 C.3    44  G44         0.1860
    917  O3'       -6.2020  -29.7400  -17.6350 O.3    44  G44        -0.3112
    918  C2'       -5.5740  -29.1130  -15.3390 C.3    44  G44         0.2309
    919  O2'       -6.6110  -29.9890  -14.9150 O.3    44  G44        -0.2156
    920  C1'       -4.2890  -29.4310  -14.5500 C.3    44  G44         0.2408
    921  N1        -3.2380  -25.3820  -11.7100 N.ar   44  G44        -0.1709
    922  C2        -4.0660  -26.4340  -11.4370 C.ar   44  G44         0.2606
    923  N2        -4.6860  -26.3620  -10.2570 N.pl3  44  G44        -0.0859
    924  N3        -4.2520  -27.4590  -12.2510 N.ar   44  G44        -0.1918
    925  C4        -3.5280  -27.3160  -13.3810 C.ar   44  G44         0.1723
    926  C5        -2.6870  -26.2990  -13.7510 C.ar   44  G44         0.1748
    927  C6        -2.4940  -25.2210  -12.8630 C.ar   44  G44         0.3023
    928  O6        -1.7820  -24.2190  -12.9940 O.2    44  G44        -0.2633
    929  N7        -2.1370  -26.5250  -14.9970 N.ar   44  G44        -0.2173
    930  C8        -2.6440  -27.6640  -15.3600 C.ar   44  G44         0.1817
    931  N9        -3.4830  -28.2040  -14.4180 N.ar   44  G44        -0.2693
    932  OP1       -1.9790  -30.5660  -20.3860 O.2    44  G44        -0.5172
    933  OP2       -1.0470  -28.4540  -19.2150 O.co2  44  G44        -0.4373
    934  P         -6.7250  -28.6530  -18.6800 P.3    45  A45         0.2141
    935  C5'       -7.9900  -26.4100  -18.3380 C.3    45  A45         0.1812
    936  O5'       -7.5480  -27.6330  -17.7880 O.3    45  A45        -0.3114
    937  C4'       -8.9110  -25.6970  -17.3910 C.3    45  A45         0.1773
    938  O4'      -10.1150  -26.4730  -17.2220 O.3    45  A45        -0.3307
    939  C3'       -8.3750  -25.5170  -15.9920 C.3    45  A45         0.1860
    940  O3'       -7.6020  -24.3420  -15.9040 O.3    45  A45        -0.3112
    941  C2'       -9.6360  -25.4440  -15.1430 C.3    45  A45         0.2309
    942  O2'      -10.1650  -24.1260  -15.1940 O.3    45  A45        -0.2156
    943  C1'      -10.5780  -26.3710  -15.9010 C.3    45  A45         0.2408
    944  N1       -12.4400  -29.4020  -12.1330 N.ar   45  A45        -0.2040
    945  C2       -12.4450  -28.0800  -12.2870 C.ar   45  A45         0.2016
    946  N3       -11.9370  -27.3630  -13.2790 N.ar   45  A45        -0.2048
    947  C4       -11.3550  -28.1430  -14.2080 C.ar   45  A45         0.1692
    948  C5       -11.2590  -29.5150  -14.1850 C.ar   45  A45         0.1518
    949  C6       -11.8530  -30.1590  -13.0850 C.ar   45  A45         0.1919
    950  N6       -11.8580  -31.4800  -12.9050 N.pl3  45  A45        -0.1054
    951  N7       -10.5750  -29.9830  -15.3060 N.ar   45  A45        -0.2193
    952  C8       -10.2870  -28.9020  -15.9850 C.ar   45  A45         0.1816
    953  N9       -10.7070  -27.7440  -15.3610 N.ar   45  A45        -0.2693
    954  OP1       -7.6260  -29.4090  -19.5930 O.2    45  A45        -0.5172
    955  OP2       -5.6220  -27.8060  -19.1910 O.co2  45  A45        -0.4373
    956  P         -6.2740  -24.3040  -15.0180 P.3    46  A46         0.2141
    957  C5'       -7.4520  -23.3060  -12.8570 C.3    46  A46         0.1812
    958  O5'       -6.7590  -24.3700  -13.4970 O.3    46  A46        -0.3114
    959  C4'       -8.2270  -23.8590  -11.6970 C.3    46  A46         0.1773
    960  O4'       -8.9470  -25.0140  -12.1610 O.3    46  A46        -0.3307
    961  C3'       -7.4050  -24.3770  -10.5180 C.3    46  A46         0.1860
    962  O3'       -7.1740  -23.3680   -9.5590 O.3    46  A46        -0.3112
    963  C2'       -8.2690  -25.4870   -9.9240 C.3    46  A46         0.2309
    964  O2'       -9.1700  -24.9470   -8.9710 O.3    46  A46        -0.2156
    965  C1'       -9.0870  -25.9550  -11.1190 C.3    46  A46         0.2408
    966  N1        -9.7640  -31.0240  -10.5710 N.ar   46  A46        -0.2040
    967  C2       -10.2220  -29.9900   -9.8500 C.ar   46  A46         0.2016
    968  N3        -9.9890  -28.6930  -10.0390 N.ar   46  A46        -0.2048
    969  C4        -9.2030  -28.4870  -11.1110 C.ar   46  A46         0.1692
    970  C5        -8.6910  -29.4430  -11.9540 C.ar   46  A46         0.1518
    971  C6        -8.9820  -30.7640  -11.6550 C.ar   46  A46         0.1919
    972  N6        -8.5170  -31.7580  -12.3970 N.pl3  46  A46        -0.1054
    973  N7        -7.9300  -28.8840  -12.9590 N.ar   46  A46        -0.2193
    974  C8        -8.0010  -27.6010  -12.7290 C.ar   46  A46         0.1816
    975  N9        -8.7500  -27.2980  -11.6170 N.ar   46  A46        -0.2693
    976  OP1       -5.6980  -22.9650  -15.3020 O.2    46  A46        -0.5172
    977  OP2       -5.5620  -25.5830  -15.2830 O.co2  46  A46        -0.4373
    978  P         -5.7200  -22.7520   -9.3230 P.3    47  U47         0.2141
    979  C5'       -4.9660  -20.4300  -10.2020 C.3    47  U47         0.1812
    980  O5'       -5.6410  -21.6420  -10.4460 O.3    47  U47        -0.3114
    981  C4'       -5.6440  -19.2990  -10.9160 C.3    47  U47         0.1773
    982  O4'       -6.8890  -19.7500  -11.5170 O.3    47  U47        -0.3307
    983  C3'       -6.0600  -18.1460  -10.0300 C.3    47  U47         0.1860
    984  O3'       -4.9850  -17.2840   -9.7420 O.3    47  U47        -0.3112
    985  C2'       -7.1750  -17.5000  -10.8350 C.3    47  U47         0.2309
    986  O2'       -6.6470  -16.7370  -11.9100 O.3    47  U47        -0.2156
    987  C1'       -7.8640  -18.7290  -11.4150 C.3    47  U47         0.2420
    988  N1        -8.9800  -19.2010  -10.5520 N.ar   47  U47        -0.2534
    989  C2       -10.1110  -18.3970  -10.4560 C.ar   47  U47         0.3546
    990  O2       -10.2500  -17.3300  -11.0270 O.2    47  U47        -0.2443
    991  N3       -11.1080  -18.8890   -9.6550 N.ar   47  U47        -0.1530
    992  C4       -11.1020  -20.0690   -8.9520 C.ar   47  U47         0.2846
    993  O4       -12.0940  -20.3480   -8.2840 O.2    47  U47        -0.2650
    994  C5        -9.9040  -20.8490   -9.0910 C.ar   47  U47         0.0814
    995  C6        -8.9110  -20.3980   -9.8620 C.ar   47  U47         0.0870
    996  OP1       -4.6920  -23.7950   -9.5940 O.2    47  U47        -0.5172
    997  OP2       -5.7510  -22.0660   -8.0090 O.co2  47  U47        -0.4373
    998  P         -4.3650  -17.2410   -8.2680 P.3    48  C48         0.2141
    999  C5'       -4.8930  -14.7170   -8.5200 C.3    48  C48         0.1812
   1000  O5'       -4.9250  -15.8700   -7.7010 O.3    48  C48        -0.3114
   1001  C4'       -6.2570  -14.1020   -8.6540 C.3    48  C48         0.1773
   1002  O4'       -7.2140  -15.0850   -9.1230 O.3    48  C48        -0.3307
   1003  C3'       -6.8670  -13.5830   -7.3690 C.3    48  C48         0.1860
   1004  O3'       -6.3410  -12.3180   -7.0120 O.3    48  C48        -0.3112
   1005  C2'       -8.3580  -13.5680   -7.6940 C.3    48  C48         0.2309
   1006  O2'       -8.7000  -12.4260   -8.4690 O.3    48  C48        -0.2156
   1007  C1'       -8.4900  -14.8110   -8.5770 C.3    48  C48         0.2420
   1008  N1        -8.9740  -15.9940   -7.8210 N.ar   48  C48        -0.2535
   1009  C2       -10.3240  -16.0610   -7.4690 C.ar   48  C48         0.3532
   1010  O2       -11.0780  -15.1380   -7.7900 O.2    48  C48        -0.2443
   1011  N3       -10.7840  -17.1250   -6.7810 N.ar   48  C48        -0.1739
   1012  C4        -9.9600  -18.1110   -6.4460 C.ar   48  C48         0.1759
   1013  N4       -10.4640  -19.1450   -5.7730 N.pl3  48  C48        -0.1070
   1014  C5        -8.5810  -18.0830   -6.7960 C.ar   48  C48         0.0566
   1015  C6        -8.1380  -17.0170   -7.4750 C.ar   48  C48         0.0850
   1016  OP1       -2.9000  -17.1230   -8.4640 O.2    48  C48        -0.5172
   1017  OP2       -4.8870  -18.3380   -7.4230 O.co2  48  C48        -0.4373
   1018  P         -6.2940  -11.8580   -5.4750 P.3    49  U49         0.2141
   1019  C5'       -8.6380  -10.7350   -5.8740 C.3    49  U49         0.1812
   1020  O5'       -7.8310  -11.6510   -5.1370 O.3    49  U49        -0.3114
   1021  C4'       -9.8330  -10.3230   -5.0620 C.3    49  U49         0.1773
   1022  O4'      -10.8180  -11.4020   -5.0810 O.3    49  U49        -0.3307
   1023  C3'       -9.4920  -10.0840   -3.5930 C.3    49  U49         0.1860
   1024  O3'      -10.3200   -9.0700   -3.0350 O.3    49  U49        -0.3112
   1025  C2'       -9.8350  -11.4200   -2.9630 C.3    49  U49         0.2309
   1026  O2'      -10.0380  -11.3820   -1.5690 O.3    49  U49        -0.2156
   1027  C1'      -11.0820  -11.8090   -3.7540 C.3    49  U49         0.2420
   1028  N1       -11.3430  -13.2510   -3.7180 N.ar   49  U49        -0.2534
   1029  C2       -12.6400  -13.6910   -3.6540 C.ar   49  U49         0.3546
   1030  O2       -13.5890  -12.9300   -3.7040 O.2    49  U49        -0.2443
   1031  N3       -12.7640  -15.0530   -3.5680 N.ar   49  U49        -0.1530
   1032  C4       -11.7440  -15.9730   -3.5080 C.ar   49  U49         0.2846
   1033  O4       -11.9890  -17.1660   -3.4270 O.2    49  U49        -0.2650
   1034  C5       -10.4380  -15.4290   -3.5490 C.ar   49  U49         0.0814
   1035  C6       -10.2860  -14.1150   -3.6420 C.ar   49  U49         0.0870
   1036  OP1       -5.6390  -10.5250   -5.4000 O.2    49  U49        -0.5172
   1037  OP2       -5.7620  -12.9660   -4.6310 O.co2  49  U49        -0.4373
   1038  P         -9.9860   -8.5070   -1.5710 P.3    50  C50         0.2141
   1039  C5'      -12.4570   -8.1080   -0.8050 C.3    50  C50         0.1812
   1040  O5'      -11.2760   -8.8940   -0.7120 O.3    50  C50        -0.3114
   1041  C4'      -13.6970   -8.8420   -0.3500 C.3    50  C50         0.1773
   1042  O4'      -13.9530  -10.0150   -1.1730 O.3    50  C50        -0.3307
   1043  C3'      -13.6930   -9.3950    1.0610 C.3    50  C50         0.1860
   1044  O3'      -13.8650   -8.3940    2.0540 O.3    50  C50        -0.3112
   1045  C2'      -14.8280  -10.4160    0.9950 C.3    50  C50         0.2309
   1046  O2'      -16.1000   -9.7830    1.0070 O.3    50  C50        -0.2156
   1047  C1'      -14.6250  -10.9950   -0.4000 C.3    50  C50         0.2420
   1048  N1       -13.8270  -12.2370   -0.3370 N.ar   50  C50        -0.2535
   1049  C2       -14.4960  -13.4500   -0.1830 C.ar   50  C50         0.3532
   1050  O2       -15.7270  -13.4490   -0.1280 O.2    50  C50        -0.2443
   1051  N3       -13.7950  -14.6020   -0.1100 N.ar   50  C50        -0.1739
   1052  C4       -12.4620  -14.5700   -0.1750 C.ar   50  C50         0.1759
   1053  N4       -11.7850  -15.7130   -0.0980 N.pl3  50  C50        -0.1070
   1054  C5       -11.7530  -13.3520   -0.3210 C.ar   50  C50         0.0566
   1055  C6       -12.4720  -12.2250   -0.3900 C.ar   50  C50         0.0850
   1056  OP1       -9.9400   -7.0290   -1.6780 O.2    50  C50        -0.5172
   1057  OP2       -8.8010   -9.2500   -1.0440 O.co2  50  C50        -0.4373
   1058  P        -13.1700   -8.5310    3.5020 P.3    51  U51         0.2141
   1059  C5'      -15.5260   -9.3760    4.3330 C.3    51  U51         0.1812
   1060  O5'      -14.1140   -9.5320    4.3060 O.3    51  U51        -0.3114
   1061  C4'      -16.1950  -10.6590    4.7630 C.3    51  U51         0.1773
   1062  O4'      -16.0190  -11.6630    3.7340 O.3    51  U51        -0.3307
   1063  C3'      -15.6320  -11.3090    6.0180 C.3    51  U51         0.1860
   1064  O3'      -16.1540  -10.7440    7.2070 O.3    51  U51        -0.3112
   1065  C2'      -15.9870  -12.7790    5.8340 C.3    51  U51         0.2309
   1066  O2'      -17.3320  -13.0330    6.2100 O.3    51  U51        -0.2156
   1067  C1'      -15.8760  -12.9380    4.3190 C.3    51  U51         0.2420
   1068  N1       -14.5740  -13.4880    3.9110 N.ar   51  U51        -0.2534
   1069  C2       -14.4160  -14.8440    4.0420 C.ar   51  U51         0.3546
   1070  O2       -15.3020  -15.5560    4.4800 O.2    51  U51        -0.2443
   1071  N3       -13.1830  -15.3110    3.6420 N.ar   51  U51        -0.1530
   1072  C4       -12.1410  -14.5530    3.1380 C.ar   51  U51         0.2846
   1073  O4       -11.0990  -15.1080    2.8190 O.2    51  U51        -0.2650
   1074  C5       -12.3910  -13.1510    3.0350 C.ar   51  U51         0.0814
   1075  C6       -13.5770  -12.6780    3.4160 C.ar   51  U51         0.0870
   1076  OP1      -13.2390   -7.2060    4.1730 O.3    51  U51        -0.4373
   1077  OP2      -11.8770   -9.2510    3.3500 O.co2  51  U51        -0.5172
   1078  P        -15.2970  -10.7770    8.5620 P.3    52  U52         0.2141
   1079  C5'      -16.8560  -12.7490    9.2690 C.3    52  U52         0.1812
   1080  O5'      -15.5450  -12.2380    9.1330 O.3    52  U52        -0.3114
   1081  C4'      -16.8260  -14.2250    9.5490 C.3    52  U52         0.1773
   1082  O4'      -16.4040  -14.9500    8.3690 O.3    52  U52        -0.3307
   1083  C3'      -15.8540  -14.6740   10.6210 C.3    52  U52         0.1860
   1084  O3'      -16.3560  -14.4660   11.9260 O.3    52  U52        -0.3112
   1085  C2'      -15.6500  -16.1380   10.2780 C.3    52  U52         0.2309
   1086  O2'      -16.7490  -16.9090   10.7240 O.3    52  U52        -0.2156
   1087  C1'      -15.6900  -16.1010    8.7520 C.3    52  U52         0.2420
   1088  N1       -14.3430  -16.0310    8.1500 N.ar   52  U52        -0.2534
   1089  C2       -13.5290  -17.1410    8.2330 C.ar   52  U52         0.3546
   1090  O2       -13.8550  -18.1700    8.8020 O.2    52  U52        -0.2443
   1091  N3       -12.3060  -16.9950    7.6270 N.ar   52  U52        -0.1530
   1092  C4       -11.8400  -15.8770    6.9580 C.ar   52  U52         0.2846
   1093  O4       -10.7140  -15.8890    6.4570 O.2    52  U52        -0.2650
   1094  C5       -12.7530  -14.7770    6.9140 C.ar   52  U52         0.0814
   1095  C6       -13.9450  -14.8960    7.4940 C.ar   52  U52         0.0870
   1096  OP1      -15.8870   -9.7880    9.5040 O.3    52  U52        -0.4373
   1097  OP2      -13.8510  -10.7280    8.1990 O.co2  52  U52        -0.5172
   1098  P        -15.3700  -14.0630   13.1250 P.3    53  C53         0.2141
   1099  C5'      -15.5970  -16.5510   13.9030 C.3    53  C53         0.1812
   1100  O5'      -14.7510  -15.4610   13.5710 O.3    53  C53        -0.3114
   1101  C4'      -14.8270  -17.8380   14.0220 C.3    53  C53         0.1773
   1102  O4'      -14.4040  -18.2900   12.7100 O.3    53  C53        -0.3307
   1103  C3'      -13.5330  -17.7560   14.8020 C.3    53  C53         0.1860
   1104  O3'      -13.7240  -17.7730   16.1930 O.3    53  C53        -0.3112
   1105  C2'      -12.7630  -18.9530   14.2770 C.3    53  C53         0.2309
   1106  O2'      -13.2900  -20.1470   14.8350 O.3    53  C53        -0.2156
   1107  C1'      -13.1370  -18.9060   12.8030 C.3    53  C53         0.2420
   1108  N1       -12.1850  -18.0930   12.0210 N.ar   53  C53        -0.2535
   1109  C2       -11.0400  -18.7070   11.4860 C.ar   53  C53         0.3532
   1110  O2       -10.8340  -19.9180   11.6870 O.2    53  C53        -0.2443
   1111  N3       -10.1850  -17.9590   10.7470 N.ar   53  C53        -0.1739
   1112  C4       -10.4370  -16.6580   10.5470 C.ar   53  C53         0.1759
   1113  N4        -9.5630  -15.9580    9.8170 N.pl3  53  C53        -0.1070
   1114  C5       -11.5920  -16.0090   11.0810 C.ar   53  C53         0.0566
   1115  C6       -12.4340  -16.7620   11.7970 C.ar   53  C53         0.0850
   1116  OP1      -16.1720  -13.5200   14.2460 O.3    53  C53        -0.4373
   1117  OP2      -14.2850  -13.2320   12.5560 O.co2  53  C53        -0.5172
   1118  P        -12.8350  -16.8050   17.1070 P.3    54  C54         0.2141
   1119  C5'      -11.3680  -18.9420   17.4480 C.3    54  C54         0.1812
   1120  O5'      -11.4300  -17.5550   17.1550 O.3    54  C54        -0.3114
   1121  C4'       -9.9670  -19.4750   17.3240 C.3    54  C54         0.1773
   1122  O4'       -9.6210  -19.6540   15.9300 O.3    54  C54        -0.3307
   1123  C3'       -8.8620  -18.5840   17.8640 C.3    54  C54         0.1860
   1124  O3'       -8.7450  -18.6570   19.2750 O.3    54  C54        -0.3112
   1125  C2'       -7.6340  -19.0900   17.1180 C.3    54  C54         0.2309
   1126  O2'       -7.1360  -20.2700   17.7300 O.3    54  C54        -0.2156
   1127  C1'       -8.2320  -19.4580   15.7540 C.3    54  C54         0.2420
   1128  N1        -8.0180  -18.4060   14.7310 N.ar   54  C54        -0.2535
   1129  C2        -6.8190  -18.3930   14.0060 C.ar   54  C54         0.3532
   1130  O2        -5.9470  -19.2530   14.2360 O.2    54  C54        -0.2443
   1131  N3        -6.6300  -17.4320   13.0720 N.ar   54  C54        -0.1739
   1132  C4        -7.5650  -16.5110   12.8450 C.ar   54  C54         0.1759
   1133  N4        -7.3140  -15.5830   11.9170 N.pl3  54  C54        -0.1070
   1134  C5        -8.7920  -16.5020   13.5680 C.ar   54  C54         0.0566
   1135  C6        -8.9730  -17.4570   14.4880 C.ar   54  C54         0.0850
   1136  OP1      -13.4300  -16.7770   18.4720 O.3    54  C54        -0.4373
   1137  OP2      -12.6490  -15.5330   16.3580 O.co2  54  C54        -0.5172
   1138  P         -8.0180  -17.4820   20.0850 P.3    55  G55         0.2141
   1139  C5'       -6.5630  -15.5700   18.9990 C.3    55  G55         0.1812
   1140  O5'       -7.7460  -16.3550   18.9860 O.3    55  G55        -0.3114
   1141  C4'       -5.3650  -16.3770   18.5560 C.3    55  G55         0.1773
   1142  O4'       -5.4610  -16.7130   17.1430 O.3    55  G55        -0.3307
   1143  C3'       -4.0000  -15.7180   18.6860 C.3    55  G55         0.1860
   1144  O3'       -3.4780  -15.7710   20.0050 O.3    55  G55        -0.3112
   1145  C2'       -3.1600  -16.5380   17.7230 C.3    55  G55         0.2309
   1146  O2'       -2.7520  -17.7480   18.3390 O.3    55  G55        -0.2156
   1147  C1'       -4.1660  -16.8600   16.6080 C.3    55  G55         0.2408
   1148  N1        -5.8210  -12.8430   13.8870 N.ar   55  G55        -0.1709
   1149  C2        -6.4210  -13.4460   14.9730 C.ar   55  G55         0.2606
   1150  N2        -7.5850  -12.9290   15.4040 N.pl3  55  G55        -0.0859
   1151  N3        -5.9130  -14.4920   15.5990 N.ar   55  G55        -0.1918
   1152  C4        -4.7420  -14.8860   15.0610 C.ar   55  G55         0.1723
   1153  C5        -4.0580  -14.3580   13.9760 C.ar   55  G55         0.1748
   1154  C6        -4.6080  -13.2410   13.3090 C.ar   55  G55         0.3023
   1155  O6        -4.1180  -12.6500   12.3340 O.2    55  G55        -0.2633
   1156  N7        -2.8770  -15.0400   13.7050 N.ar   55  G55        -0.2173
   1157  C8        -2.8760  -15.9670   14.6210 C.ar   55  G55         0.1817
   1158  N9        -3.9790  -15.9510   15.4610 N.ar   55  G55        -0.2693
   1159  OP1       -6.7380  -18.0820   20.5350 O.2    55  G55        -0.5172
   1160  OP2       -8.9570  -16.9460   21.1000 O.co2  55  G55        -0.4373
   1161  P         -3.6370  -14.5550   21.0500 P.3    56  A56         0.2141
   1162  C5'       -3.5390  -11.9480   20.8280 C.3    56  A56         0.1812
   1163  O5'       -3.4170  -13.2230   20.2070 O.3    56  A56        -0.3114
   1164  C4'       -2.5490  -10.9630   20.2600 C.3    56  A56         0.1773
   1165  O4'       -1.2750  -11.0850   20.9460 O.3    56  A56        -0.3307
   1166  C3'       -2.2280  -11.1670   18.7860 C.3    56  A56         0.1860
   1167  O3'       -3.1670  -10.4990   17.9610 O.3    56  A56        -0.3112
   1168  C2'       -0.7950  -10.6520   18.6570 C.3    56  A56         0.2309
   1169  O2'       -0.7680   -9.2410   18.5000 O.3    56  A56        -0.2156
   1170  C1'       -0.2100  -11.0060   20.0260 C.3    56  A56         0.2408
   1171  N1         4.0670  -13.7510   18.9450 N.ar   56  A56        -0.2040
   1172  C2         3.7630  -12.4620   18.7450 C.ar   56  A56         0.2016
   1173  N3         2.6490  -11.7960   19.0470 N.ar   56  A56        -0.2048
   1174  C4         1.7480  -12.6170   19.6130 C.ar   56  A56         0.1692
   1175  C5         1.9140  -13.9660   19.8810 C.ar   56  A56         0.1518
   1176  C6         3.1420  -14.5480   19.5250 C.ar   56  A56         0.1919
   1177  N6         3.4270  -15.8370   19.7270 N.pl3  56  A56        -0.1054
   1178  N7         0.7810  -14.5010   20.4710 N.ar   56  A56        -0.2193
   1179  C8        -0.0300  -13.4790   20.5490 C.ar   56  A56         0.1816
   1180  N9         0.4790  -12.3100   20.0420 N.ar   56  A56        -0.2693
   1181  OP1       -2.5040  -14.6610   21.9970 O.3    56  A56        -0.4373
   1182  OP2       -5.0200  -14.5600   21.5850 O.co2  56  A56        -0.5172
   1183  P         -3.0270  -10.5090   16.3640 P.3    57  A57         0.2141
   1184  C5'       -1.6260  -12.0950   14.8390 C.3    57  A57         0.1812
   1185  O5'       -2.3420  -11.9070   16.0460 O.3    57  A57        -0.3114
   1186  C4'       -0.3110  -11.3580   14.8690 C.3    57  A57         0.1773
   1187  O4'        0.4730  -11.7920   16.0070 O.3    57  A57        -0.3307
   1188  C3'        0.5970  -11.5670   13.6700 C.3    57  A57         0.1860
   1189  O3'        0.2570  -10.6890   12.6090 O.3    57  A57        -0.3112
   1190  C2'        1.9770  -11.3030   14.2420 C.3    57  A57         0.2309
   1191  O2'        2.1940   -9.9030   14.3090 O.3    57  A57        -0.2156
   1192  C1'        1.8320  -11.8460   15.6660 C.3    57  A57         0.2408
   1193  N1         0.6350  -16.6720   17.1080 N.ar   57  A57        -0.2040
   1194  C2        -0.0730  -15.5460   17.0390 C.ar   57  A57         0.2016
   1195  N3         0.2990  -14.3360   16.6530 N.ar   57  A57        -0.2048
   1196  C4         1.5850  -14.3170   16.2940 C.ar   57  A57         0.1692
   1197  C5         2.4490  -15.3950   16.3200 C.ar   57  A57         0.1518
   1198  C6         1.9240  -16.6260   16.7500 C.ar   57  A57         0.1919
   1199  N6         2.6150  -17.7600   16.8280 N.pl3  57  A57        -0.1054
   1200  N7         3.7170  -15.0210   15.8910 N.ar   57  A57        -0.2193
   1201  C8         3.5820  -13.7410   15.6270 C.ar   57  A57         0.1816
   1202  N9         2.3120  -13.2390   15.8410 N.ar   57  A57        -0.2693
   1203  OP1       -2.1540   -9.3540   16.0360 O.3    57  A57        -0.4373
   1204  OP2       -4.3640  -10.5650   15.7400 O.co2  57  A57        -0.5172
   1205  P          0.7760  -10.9470   11.1160 P.3    58  A58         0.2141
   1206  C5'        3.1990  -11.2700   10.1810 C.3    58  A58         0.1812
   1207  O5'        2.3580  -10.9930   11.2830 O.3    58  A58        -0.3114
   1208  C4'        3.8640  -12.6140   10.3130 C.3    58  A58         0.1773
   1209  O4'        3.7020  -13.1500   11.6520 O.3    58  A58        -0.3307
   1210  C3'        3.3070  -13.7150    9.4400 C.3    58  A58         0.1860
   1211  O3'        3.6640  -13.5930    8.0780 O.3    58  A58        -0.3112
   1212  C2'        3.8450  -14.9650   10.1270 C.3    58  A58         0.2309
   1213  O2'        5.2300  -15.1330    9.8600 O.3    58  A58        -0.2156
   1214  C1'        3.7040  -14.5680   11.5910 C.3    58  A58         0.2408
   1215  N1         1.7120  -18.6870   13.8690 N.ar   58  A58        -0.2040
   1216  C2         2.9100  -18.4300   13.3310 C.ar   58  A58         0.2016
   1217  N3         3.3460  -17.3190   12.7430 N.ar   58  A58        -0.2048
   1218  C4         2.3830  -16.3790   12.7320 C.ar   58  A58         0.1692
   1219  C5         1.1060  -16.4870   13.2430 C.ar   58  A58         0.1518
   1220  C6         0.7720  -17.7200   13.8420 C.ar   58  A58         0.1919
   1221  N6        -0.4160  -18.0020   14.3830 N.pl3  58  A58        -0.1054
   1222  N7         0.4040  -15.3050   13.0470 N.ar   58  A58        -0.2193
   1223  C8         1.2590  -14.5300   12.4310 C.ar   58  A58         0.1816
   1224  N9         2.4800  -15.1120   12.2150 N.ar   58  A58        -0.2693
   1225  OP1        0.4430   -9.7340   10.3260 O.2    58  A58        -0.5172
   1226  OP2        0.3200  -12.2920   10.6740 O.co2  58  A58        -0.4373
   1227  P          2.7710  -14.3400    6.9800 P.3    59  G59         0.2141
   1228  C5'        2.1440  -16.9030    6.9290 C.3    59  G59         0.1812
   1229  O5'        3.0830  -15.8860    7.2450 O.3    59  G59        -0.3114
   1230  C4'        1.9850  -17.8960    8.0540 C.3    59  G59         0.1773
   1231  O4'        1.7050  -17.1810    9.2810 O.3    59  G59        -0.3307
   1232  C3'        0.8150  -18.8560    7.9020 C.3    59  G59         0.1860
   1233  O3'        1.1200  -19.9860    7.1070 O.3    59  G59        -0.3112
   1234  C2'        0.4530  -19.1920    9.3400 C.3    59  G59         0.2309
   1235  O2'        1.3200  -20.1810    9.8720 O.3    59  G59        -0.2156
   1236  C1'        0.7230  -17.8610   10.0320 C.3    59  G59         0.2408
   1237  N1        -4.1120  -17.3180   11.5640 N.ar   59  G59        -0.1709
   1238  C2        -3.2570  -18.3770   11.7800 C.ar   59  G59         0.2606
   1239  N2        -3.7350  -19.4200   12.4850 N.pl3  59  G59        -0.0859
   1240  N3        -2.0160  -18.4100   11.3310 N.ar   59  G59        -0.1918
   1241  C4        -1.6940  -17.2860   10.6480 C.ar   59  G59         0.1723
   1242  C5        -2.4740  -16.1770   10.3830 C.ar   59  G59         0.1748
   1243  C6        -3.8030  -16.1520   10.8600 C.ar   59  G59         0.3023
   1244  O6        -4.6380  -15.2510   10.7130 O.2    59  G59        -0.2633
   1245  N7        -1.7800  -15.2280    9.6460 N.ar   59  G59        -0.2173
   1246  C8        -0.6060  -15.7670    9.4760 C.ar   59  G59         0.1817
   1247  N9        -0.4820  -17.0100   10.0550 N.ar   59  G59        -0.2693
   1248  OP1        3.2540  -13.9490    5.6270 O.2    59  G59        -0.5172
   1249  OP2        1.3610  -14.0750    7.3680 O.co2  59  G59        -0.4373
   1250  P          0.0190  -20.5670    6.0920 P.3    60  G60         0.2141
   1251  C5'       -0.4780  -22.4000    7.9250 C.3    60  G60         0.1812
   1252  O5'       -0.9620  -21.3930    7.0430 O.3    60  G60        -0.3114
   1253  C4'       -1.5560  -22.8730    8.8730 C.3    60  G60         0.1773
   1254  O4'       -1.8810  -21.8170    9.8190 O.3    60  G60        -0.3307
   1255  C3'       -2.9000  -23.2250    8.2430 C.3    60  G60         0.1860
   1256  O3'       -2.9410  -24.5000    7.6270 O.3    60  G60        -0.3112
   1257  C2'       -3.8640  -23.0660    9.4120 C.3    60  G60         0.2309
   1258  O2'       -3.8080  -24.1780   10.2970 O.3    60  G60        -0.2156
   1259  C1'       -3.2680  -21.8430   10.1090 C.3    60  G60         0.2408
   1260  N1        -7.4600  -19.0570   10.2320 N.ar   60  G60        -0.1709
   1261  C2        -7.1530  -20.2330   10.8740 C.ar   60  G60         0.2606
   1262  N2        -8.1070  -20.7360   11.6740 N.pl3  60  G60        -0.0859
   1263  N3        -5.9870  -20.8610   10.7440 N.ar   60  G60        -0.1918
   1264  C4        -5.1510  -20.2050    9.9120 C.ar   60  G60         0.1723
   1265  C5        -5.3460  -19.0290    9.2220 C.ar   60  G60         0.1748
   1266  C6        -6.6000  -18.3740    9.3720 C.ar   60  G60         0.3023
   1267  O6        -6.9840  -17.3210    8.8550 O.2    60  G60        -0.2633
   1268  N7        -4.2240  -18.7060    8.4610 N.ar   60  G60        -0.2173
   1269  C8        -3.3820  -19.6770    8.7100 C.ar   60  G60         0.1817
   1270  N9        -3.8860  -20.6070    9.5960 N.ar   60  G60        -0.2693
   1271  OP1        0.6390  -21.5210    5.1390 O.2    60  G60        -0.5172
   1272  OP2       -0.6900  -19.3870    5.5330 O.co2  60  G60        -0.4373
   1273  P         -3.8210  -24.7120    6.3010 P.3    61  A61         0.2141
   1274  C5'       -5.6580  -25.8820    7.7580 C.3    61  A61         0.1812
   1275  O5'       -5.3100  -24.8440    6.8530 O.3    61  A61        -0.3114
   1276  C4'       -6.9850  -25.6250    8.4340 C.3    61  A61         0.1773
   1277  O4'       -6.9350  -24.4000    9.2240 O.3    61  A61        -0.3307
   1278  C3'       -8.1940  -25.4020    7.5350 C.3    61  A61         0.1860
   1279  O3'       -8.7120  -26.5660    6.9250 O.3    61  A61        -0.3112
   1280  C2'       -9.1600  -24.7290    8.4890 C.3    61  A61         0.2309
   1281  O2'       -9.6400  -25.6650    9.4440 O.3    61  A61        -0.2156
   1282  C1'       -8.2080  -23.7730    9.1990 C.3    61  A61         0.2408
   1283  N1       -10.7560  -19.5560    7.9490 N.ar   61  A61        -0.2040
   1284  C2       -11.0420  -20.6030    8.7340 C.ar   61  A61         0.2016
   1285  N3       -10.2990  -21.6700    9.0060 N.ar   61  A61        -0.2048
   1286  C4        -9.1220  -21.6070    8.3580 C.ar   61  A61         0.1692
   1287  C5        -8.6700  -20.6090    7.5140 C.ar   61  A61         0.1518
   1288  C6        -9.5600  -19.5300    7.3080 C.ar   61  A61         0.1919
   1289  N6        -9.3040  -18.4760    6.5300 N.pl3  61  A61        -0.1054
   1290  N7        -7.3910  -20.9060    7.0350 N.ar   61  A61        -0.2193
   1291  C8        -7.1140  -22.0610    7.5950 C.ar   61  A61         0.1816
   1292  N9        -8.1130  -22.5240    8.4240 N.ar   61  A61        -0.2693
   1293  OP1       -3.4270  -26.0040    5.6860 O.3    61  A61        -0.4373
   1294  OP2       -3.7380  -23.4660    5.4970 O.co2  61  A61        -0.5172
   1295  P         -9.6560  -26.4010    5.6410 P.3    62  A62         0.2141
   1296  C5'      -12.2150  -25.8960    5.4670 C.3    62  A62         0.1812
   1297  O5'      -11.0960  -26.2010    6.2830 O.3    62  A62        -0.3114
   1298  C4'      -13.1760  -24.9850    6.1780 C.3    62  A62         0.1773
   1299  O4'      -12.4530  -23.9010    6.8270 O.3    62  A62        -0.3307
   1300  C3'      -14.1850  -24.2730    5.2940 C.3    62  A62         0.1860
   1301  O3'      -15.2770  -25.0900    4.9070 O.3    62  A62        -0.3112
   1302  C2'      -14.5710  -23.0730    6.1490 C.3    62  A62         0.2309
   1303  O2'      -15.4580  -23.4530    7.1910 O.3    62  A62        -0.2156
   1304  C1'      -13.2180  -22.7140    6.7690 C.3    62  A62         0.2408
   1305  N1       -13.3330  -17.9870    4.6730 N.ar   62  A62        -0.2040
   1306  C2       -14.2000  -18.6620    5.4370 C.ar   62  A62         0.2016
   1307  N3       -14.1020  -19.8880    5.9500 N.ar   62  A62        -0.2048
   1308  C4       -12.9360  -20.4690    5.6000 C.ar   62  A62         0.1692
   1309  C5       -11.9360  -19.9050    4.8180 C.ar   62  A62         0.1518
   1310  C6       -12.1680  -18.5900    4.3420 C.ar   62  A62         0.1919
   1311  N6       -11.3210  -17.8990    3.5850 N.pl3  62  A62        -0.1054
   1312  N7       -10.8760  -20.7960    4.6830 N.ar   62  A62        -0.2193
   1313  C8       -11.2540  -21.8570    5.3610 C.ar   62  A62         0.1816
   1314  N9       -12.4920  -21.7290    5.9430 N.ar   62  A62        -0.2693
   1315  OP1       -9.6510  -27.6700    4.8760 O.2    62  A62        -0.5172
   1316  OP2       -9.2870  -25.1390    4.9450 O.co2  62  A62        -0.4373
   1317  P        -15.7730  -25.0780    3.3800 P.3    63  G63         0.2141
   1318  C5'      -17.8200  -23.6510    4.1380 C.3    63  G63         0.1812
   1319  O5'      -16.6660  -23.7660    3.3100 O.3    63  G63        -0.3114
   1320  C4'      -18.4040  -22.2710    4.0740 C.3    63  G63         0.1773
   1321  O4'      -17.4180  -21.3240    4.5590 O.3    63  G63        -0.3307
   1322  C3'      -18.7530  -21.7670    2.6800 C.3    63  G63         0.1860
   1323  O3'      -20.0140  -22.2310    2.2290 O.3    63  G63        -0.3112
   1324  C2'      -18.6610  -20.2550    2.8440 C.3    63  G63         0.2309
   1325  O2'      -19.8130  -19.7370    3.4950 O.3    63  G63        -0.2156
   1326  C1'      -17.4770  -20.1350    3.8030 C.3    63  G63         0.2408
   1327  N1       -14.5430  -17.0270    1.0780 N.ar   63  G63        -0.1709
   1328  C2       -15.7570  -16.7940    1.6520 C.ar   63  G63         0.2606
   1329  N2       -16.2530  -15.5670    1.4700 N.pl3  63  G63        -0.0859
   1330  N3       -16.4260  -17.6860    2.3530 N.ar   63  G63        -0.1918
   1331  C4       -15.7730  -18.8590    2.4210 C.ar   63  G63         0.1723
   1332  C5       -14.5610  -19.1890    1.8910 C.ar   63  G63         0.1748
   1333  C6       -13.8520  -18.2130    1.1620 C.ar   63  G63         0.3023
   1334  O6       -12.7560  -18.2950    0.6210 O.2    63  G63        -0.2633
   1335  N7       -14.2320  -20.4920    2.2040 N.ar   63  G63        -0.2173
   1336  C8       -15.2410  -20.9320    2.8990 C.ar   63  G63         0.1817
   1337  N9       -16.2050  -19.9840    3.0730 N.ar   63  G63        -0.2693
   1338  OP1      -16.6550  -26.2550    3.2060 O.3    63  G63        -0.4373
   1339  OP2      -14.6310  -24.9230    2.4500 O.co2  63  G63        -0.5172
   1340  P        -20.2720  -22.5940    0.6780 P.3    64  A64         0.2141
   1341  C5'      -21.4700  -20.2900    0.7370 C.3    64  A64         0.1812
   1342  O5'      -20.6740  -21.2110    0.0280 O.3    64  A64        -0.3114
   1343  C4'      -21.2050  -18.9200    0.2130 C.3    64  A64         0.1773
   1344  O4'      -19.8880  -18.4830    0.6450 O.3    64  A64        -0.3307
   1345  C3'      -21.1340  -18.8390   -1.2940 C.3    64  A64         0.1860
   1346  O3'      -22.4270  -18.8090   -1.8750 O.3    64  A64        -0.3112
   1347  C2'      -20.2980  -17.5820   -1.5110 C.3    64  A64         0.2309
   1348  O2'      -21.1080  -16.4310   -1.2870 O.3    64  A64        -0.2156
   1349  C1'      -19.2970  -17.6840   -0.3510 C.3    64  A64         0.2408
   1350  N1       -14.6210  -17.0150   -2.3610 N.ar   64  A64        -0.2040
   1351  C2       -15.6430  -16.1780   -2.1650 C.ar   64  A64         0.2016
   1352  N3       -16.8310  -16.4230   -1.6410 N.ar   64  A64        -0.2048
   1353  C4       -16.9340  -17.7050   -1.2830 C.ar   64  A64         0.1692
   1354  C5       -15.9810  -18.6880   -1.4170 C.ar   64  A64         0.1518
   1355  C6       -14.7600  -18.3060   -1.9880 C.ar   64  A64         0.1919
   1356  N6       -13.7470  -19.1530   -2.1740 N.pl3  64  A64        -0.1054
   1357  N7       -16.4360  -19.9030   -0.9380 N.ar   64  A64        -0.2193
   1358  C8       -17.6450  -19.6190   -0.5270 C.ar   64  A64         0.1816
   1359  N9       -18.0180  -18.3120   -0.7190 N.ar   64  A64        -0.2693
   1360  OP1      -21.4930  -23.4320    0.6290 O.3    64  A64        -0.4373
   1361  OP2      -19.0310  -23.0470    0.0060 O.co2  64  A64        -0.5172
   1362  P        -22.6500  -19.0850   -3.4460 P.3    65  G65         0.2141
   1363  C5'      -21.5120  -17.7090   -5.3980 C.3    65  G65         0.1812
   1364  O5'      -22.1370  -17.7370   -4.1320 O.3    65  G65        -0.3114
   1365  C4'      -20.6420  -16.4850   -5.5200 C.3    65  G65         0.1773
   1366  O4'      -19.6090  -16.5090   -4.4970 O.3    65  G65        -0.3307
   1367  C3'      -19.8790  -16.3600   -6.8280 C.3    65  G65         0.1860
   1368  O3'      -20.6790  -15.7830   -7.8490 O.3    65  G65        -0.3112
   1369  C2'      -18.6610  -15.5190   -6.4460 C.3    65  G65         0.2309
   1370  O2'      -18.9520  -14.1330   -6.4550 O.3    65  G65        -0.2156
   1371  C1'      -18.4050  -15.9650   -5.0060 C.3    65  G65         0.2408
   1372  N1       -13.5780  -17.0510   -5.9980 N.ar   65  G65        -0.1709
   1373  C2       -14.2560  -15.8640   -6.1440 C.ar   65  G65         0.2606
   1374  N2       -13.5510  -14.8360   -6.6320 N.pl3  65  G65        -0.0859
   1375  N3       -15.5320  -15.6970   -5.8310 N.ar   65  G65        -0.1918
   1376  C4       -16.0800  -16.8420   -5.3690 C.ar   65  G65         0.1723
   1377  C5       -15.4960  -18.0780   -5.1810 C.ar   65  G65         0.1748
   1378  C6       -14.1210  -18.2370   -5.5100 C.ar   65  G65         0.3023
   1379  O6       -13.4320  -19.2620   -5.4170 O.2    65  G65        -0.2633
   1380  N7       -16.4070  -18.9970   -4.6770 N.ar   65  G65        -0.2173
   1381  C8       -17.5050  -18.3120   -4.5810 C.ar   65  G65         0.1817
   1382  N9       -17.3690  -17.0050   -4.9700 N.ar   65  G65        -0.2693
   1383  OP1      -24.1230  -19.0790   -3.6270 O.3    65  G65        -0.4373
   1384  OP2      -21.9040  -20.2720   -3.8980 O.co2  65  G65        -0.5172
   1385  P        -20.7790  -16.4590   -9.3040 P.3    66  U66         0.2141
   1386  C5'      -18.9520  -14.7200  -10.0210 C.3    66  U66         0.1812
   1387  O5'      -19.3990  -16.0680   -9.9960 O.3    66  U66        -0.3114
   1388  C4'      -17.4890  -14.6550  -10.3580 C.3    66  U66         0.1773
   1389  O4'      -16.7130  -15.0660   -9.2020 O.3    66  U66        -0.3307
   1390  C3'      -17.0470  -15.6020  -11.4610 C.3    66  U66         0.1860
   1391  O3'      -17.2800  -15.0880  -12.7570 O.3    66  U66        -0.3112
   1392  C2'      -15.5770  -15.8350  -11.1420 C.3    66  U66         0.2309
   1393  O2'      -14.7890  -14.7390  -11.5970 O.3    66  U66        -0.2156
   1394  C1'      -15.6050  -15.8400   -9.6090 C.3    66  U66         0.2420
   1395  N1       -15.7640  -17.2110   -9.0640 N.ar   66  U66        -0.2534
   1396  C2       -14.6120  -17.9170   -8.8150 C.ar   66  U66         0.3546
   1397  O2       -13.5220  -17.4290   -9.0320 O.2    66  U66        -0.2443
   1398  N3       -14.7830  -19.1880   -8.3220 N.ar   66  U66        -0.1530
   1399  C4       -15.9900  -19.8100   -8.0530 C.ar   66  U66         0.2846
   1400  O4       -16.0130  -20.9620   -7.6110 O.2    66  U66        -0.2650
   1401  C5       -17.1370  -19.0090   -8.3350 C.ar   66  U66         0.0814
   1402  C6       -16.9910  -17.7750   -8.8180 C.ar   66  U66         0.0870
   1403  OP1      -21.8430  -15.7370  -10.0360 O.2    66  U66        -0.5172
   1404  OP2      -20.8760  -17.9340   -9.1410 O.co2  66  U66        -0.4373
   1405  P        -17.1630  -16.0570  -14.0280 P.3    67  A67         0.2141
   1406  C5'      -14.9710  -14.9340  -14.8920 C.3    67  A67         0.1812
   1407  O5'      -15.6040  -16.0650  -14.3200 O.3    67  A67        -0.3114
   1408  C4'      -13.5520  -15.2570  -15.2780 C.3    67  A67         0.1773
   1409  O4'      -12.8060  -15.6230  -14.0880 O.3    67  A67        -0.3307
   1410  C3'      -13.3570  -16.4410  -16.2190 C.3    67  A67         0.1860
   1411  O3'      -13.5300  -16.1040  -17.5870 O.3    67  A67        -0.3112
   1412  C2'      -11.9390  -16.8680  -15.9090 C.3    67  A67         0.2309
   1413  O2'      -11.0290  -15.9900  -16.5570 O.3    67  A67        -0.2156
   1414  C1'      -11.8800  -16.6380  -14.3950 C.3    67  A67         0.2408
   1415  N1       -10.4050  -21.3020  -12.8030 N.ar   67  A67        -0.2040
   1416  C2        -9.8020  -20.3610  -13.5280 C.ar   67  A67         0.2016
   1417  N3       -10.2390  -19.1630  -13.8940 N.ar   67  A67        -0.2048
   1418  C4       -11.4810  -18.9620  -13.4420 C.ar   67  A67         0.1692
   1419  C5       -12.2480  -19.8410  -12.6980 C.ar   67  A67         0.1518
   1420  C6       -11.6600  -21.0770  -12.3630 C.ar   67  A67         0.1919
   1421  N6       -12.2620  -22.0330  -11.6480 N.pl3  67  A67        -0.1054
   1422  N7       -13.4920  -19.2890  -12.4330 N.ar   67  A67        -0.2193
   1423  C8       -13.4530  -18.1130  -13.0130 C.ar   67  A67         0.1816
   1424  N9       -12.2610  -17.8490  -13.6410 N.ar   67  A67        -0.2693
   1425  OP1      -17.8190  -15.3850  -15.1710 O.2    67  A67        -0.5172
   1426  OP2      -17.5880  -17.4290  -13.6450 O.co2  67  A67        -0.4373
   1427  P        -14.3960  -17.0450  -18.5620 P.3    68  G68         0.2141
   1428  C5'      -12.4210  -18.7290  -18.7970 C.3    68  G68         0.1812
   1429  O5'      -13.7530  -18.4860  -18.3750 O.3    68  G68        -0.3114
   1430  C4'      -11.8410  -19.9620  -18.1640 C.3    68  G68         0.1773
   1431  O4'      -11.9200  -19.8690  -16.7140 O.3    68  G68        -0.3307
   1432  C3'      -12.5480  -21.2640  -18.4720 C.3    68  G68         0.1860
   1433  O3'      -12.2760  -21.7640  -19.7630 O.3    68  G68        -0.3112
   1434  C2'      -12.0700  -22.1480  -17.3320 C.3    68  G68         0.2309
   1435  O2'      -10.7120  -22.5280  -17.5160 O.3    68  G68        -0.2156
   1436  C1'      -12.1490  -21.1550  -16.1710 C.3    68  G68         0.2408
   1437  N1       -15.5210  -23.8560  -13.5570 N.ar   68  G68        -0.1709
   1438  C2       -14.2120  -24.1470  -13.8560 C.ar   68  G68         0.2606
   1439  N2       -13.7620  -25.3220  -13.4070 N.pl3  68  G68        -0.0859
   1440  N3       -13.4170  -23.3470  -14.5480 N.ar   68  G68        -0.1918
   1441  C4       -14.0590  -22.2170  -14.9150 C.ar   68  G68         0.1723
   1442  C5       -15.3550  -21.8350  -14.6690 C.ar   68  G68         0.1748
   1443  C6       -16.1950  -22.7040  -13.9260 C.ar   68  G68         0.3023
   1444  O6       -17.3730  -22.5580  -13.5870 O.2    68  G68        -0.2633
   1445  N7       -15.6060  -20.5900  -15.2290 N.ar   68  G68        -0.2173
   1446  C8       -14.4880  -20.2390  -15.7960 C.ar   68  G68         0.1817
   1447  N9       -13.5100  -21.1770  -15.6200 N.ar   68  G68        -0.2693
   1448  OP1      -14.0900  -16.5700  -19.9270 O.2    68  G68        -0.5172
   1449  OP2      -15.8120  -17.1270  -18.1100 O.co2  68  G68        -0.4373
   1450  P        -13.4660  -22.3720  -20.6590 P.3    69  G69         0.2141
   1451  C5'      -13.0490  -24.8400  -20.0740 C.3    69  G69         0.1812
   1452  O5'      -13.8670  -23.7060  -19.9040 O.3    69  G69        -0.3114
   1453  C4'      -13.2120  -25.8430  -18.9740 C.3    69  G69         0.1773
   1454  O4'      -13.4100  -25.2200  -17.6730 O.3    69  G69        -0.3307
   1455  C3'      -14.3910  -26.7680  -19.1060 C.3    69  G69         0.1860
   1456  O3'      -14.1760  -27.7500  -20.0880 O.3    69  G69        -0.3112
   1457  C2'      -14.4800  -27.3310  -17.7040 C.3    69  G69         0.2309
   1458  O2'      -13.4090  -28.2300  -17.4880 O.3    69  G69        -0.2156
   1459  C1'      -14.2220  -26.0670  -16.8800 C.3    69  G69         0.2408
   1460  N1       -18.9100  -26.2470  -14.7700 N.ar   69  G69        -0.1709
   1461  C2       -17.9200  -27.1840  -14.7190 C.ar   69  G69         0.2606
   1462  N2       -18.2610  -28.2830  -14.0410 N.pl3  69  G69        -0.0859
   1463  N3       -16.7090  -27.0460  -15.2870 N.ar   69  G69        -0.1918
   1464  C4       -16.5850  -25.8560  -15.9290 C.ar   69  G69         0.1723
   1465  C5       -17.5310  -24.8480  -16.0150 C.ar   69  G69         0.1748
   1466  C6       -18.8130  -25.0190  -15.3940 C.ar   69  G69         0.3023
   1467  O6       -19.7810  -24.2340  -15.3480 O.2    69  G69        -0.2633
   1468  N7       -17.0220  -23.7740  -16.7490 N.ar   69  G69        -0.2173
   1469  C8       -15.8160  -24.1370  -17.0980 C.ar   69  G69         0.1817
   1470  N9       -15.4970  -25.3800  -16.6340 N.ar   69  G69        -0.2693
   1471  OP1      -12.8520  -22.8150  -21.9370 O.2    69  G69        -0.5172
   1472  OP2      -14.6490  -21.4850  -20.6540 O.co2  69  G69        -0.4373
   1473  P        -15.3610  -28.1770  -21.0650 P.3    70  G70         0.2141
   1474  C5'      -15.3090  -30.4300  -19.7770 C.3    70  G70         0.1812
   1475  O5'      -16.0580  -29.3230  -20.2290 O.3    70  G70        -0.3114
   1476  C4'      -16.1500  -31.2910  -18.8770 C.3    70  G70         0.1773
   1477  O4'      -16.4230  -30.5890  -17.6300 O.3    70  G70        -0.3307
   1478  C3'      -17.5370  -31.6320  -19.3940 C.3    70  G70         0.1860
   1479  O3'      -17.5510  -32.6600  -20.3670 O.3    70  G70        -0.3112
   1480  C2'      -18.2460  -32.0100  -18.1120 C.3    70  G70         0.2309
   1481  O2'      -17.7730  -33.2720  -17.6730 O.3    70  G70        -0.2156
   1482  C1'      -17.7060  -30.9400  -17.1630 C.3    70  G70         0.2408
   1483  N1       -22.1750  -29.0840  -15.7400 N.ar   70  G70        -0.1709
   1484  C2       -21.6190  -30.3170  -15.5650 C.ar   70  G70         0.2606
   1485  N2       -22.3210  -31.2360  -14.9250 N.pl3  70  G70        -0.0859
   1486  N3       -20.4230  -30.6610  -15.9910 N.ar   70  G70        -0.1918
   1487  C4       -19.8040  -29.6490  -16.6310 C.ar   70  G70         0.1723
   1488  C5       -20.2540  -28.3750  -16.8660 C.ar   70  G70         0.1748
   1489  C6       -21.5640  -28.0200  -16.3960 C.ar   70  G70         0.3023
   1490  O6       -22.1630  -26.9310  -16.5050 O.2    70  G70        -0.2633
   1491  N7       -19.2950  -27.6500  -17.5610 N.ar   70  G70        -0.2173
   1492  C8       -18.3120  -28.4930  -17.7240 C.ar   70  G70         0.1817
   1493  N9       -18.5580  -29.7310  -17.1760 N.ar   70  G70        -0.2693
   1494  OP1      -14.9130  -28.8510  -22.3050 O.2    70  G70        -0.5172
   1495  OP2      -16.1910  -26.9490  -21.1830 O.co2  70  G70        -0.4373
   1496  P        -18.7070  -32.7020  -21.4850 P.3    71  U71         0.2141
   1497  C5'      -19.8630  -34.7050  -20.2110 C.3    71  U71         0.1812
   1498  O5'      -19.9350  -33.3840  -20.7360 O.3    71  U71        -0.3114
   1499  C4'      -21.0890  -35.0070  -19.3820 C.3    71  U71         0.1773
   1500  O4'      -21.1990  -34.0180  -18.3240 O.3    71  U71        -0.3307
   1501  C3'      -22.4160  -34.9240  -20.1240 C.3    71  U71         0.1860
   1502  O3'      -22.7670  -36.1390  -20.7510 O.3    71  U71        -0.3112
   1503  C2'      -23.3990  -34.5110  -19.0450 C.3    71  U71         0.2309
   1504  O2'      -23.8130  -35.6280  -18.2930 O.3    71  U71        -0.2156
   1505  C1'      -22.5390  -33.6350  -18.1490 C.3    71  U71         0.2420
   1506  N1       -22.6630  -32.2000  -18.4770 N.ar   71  U71        -0.2534
   1507  C2       -23.7790  -31.5480  -17.9980 C.ar   71  U71         0.3546
   1508  O2       -24.6590  -32.1150  -17.3640 O.2    71  U71        -0.2443
   1509  N3       -23.8330  -30.2120  -18.3060 N.ar   71  U71        -0.1530
   1510  C4       -22.9220  -29.4940  -19.0240 C.ar   71  U71         0.2846
   1511  O4       -23.1300  -28.3040  -19.2120 O.2    71  U71        -0.2650
   1512  C5       -21.7980  -30.2390  -19.4720 C.ar   71  U71         0.0814
   1513  C6       -21.7010  -31.5350  -19.1900 C.ar   71  U71         0.0870
   1514  OP1      -18.3120  -33.6450  -22.5650 O.2    71  U71        -0.5172
   1515  OP2      -19.0520  -31.2840  -21.7920 O.co2  71  U71        -0.4373
   1516  P        -23.5200  -36.1170  -22.1670 P.3    72  U72         0.2141
   1517  C5'      -25.8590  -36.5230  -21.0340 C.3    72  U72         0.1812
   1518  O5'      -25.0110  -35.6860  -21.8120 O.3    72  U72        -0.3114
   1519  C4'      -27.0060  -35.7360  -20.4650 C.3    72  U72         0.1773
   1520  O4'      -26.4810  -34.6180  -19.7190 O.3    72  U72        -0.3307
   1521  C3'      -27.9370  -35.0980  -21.4800 C.3    72  U72         0.1860
   1522  O3'      -28.9280  -35.9980  -21.9300 O.3    72  U72        -0.3112
   1523  C2'      -28.5170  -33.9170  -20.7200 C.3    72  U72         0.2309
   1524  O2'      -29.5980  -34.3270  -19.9010 O.3    72  U72        -0.2156
   1525  C1'      -27.3540  -33.5220  -19.8170 C.3    72  U72         0.2420
   1526  N1       -26.6160  -32.3600  -20.3340 N.ar   72  U72        -0.2534
   1527  C2       -27.2570  -31.1520  -20.1870 C.ar   72  U72         0.3546
   1528  O2       -28.3540  -31.0160  -19.6860 O.2    72  U72        -0.2443
   1529  N3       -26.5710  -30.0870  -20.6640 N.ar   72  U72        -0.1530
   1530  C4       -25.3490  -30.1060  -21.2630 C.ar   72  U72         0.2846
   1531  O4       -24.8970  -29.0390  -21.6210 O.2    72  U72        -0.2650
   1532  C5       -24.7520  -31.3930  -21.3830 C.ar   72  U72         0.0814
   1533  C6       -25.3880  -32.4720  -20.9270 C.ar   72  U72         0.0870
   1534  OP1      -23.5240  -37.5230  -22.6410 O.3    72  U72        -0.4373
   1535  OP2      -22.9760  -35.0260  -23.0160 O.co2  72  U72        -0.5172
   1536  P        -28.8540  -36.5940  -23.4120 P.3    73  A73         0.2141
   1537  C5'      -26.5420  -36.9660  -24.5420 C.3    73  A73         0.1812
   1538  O5'      -27.4230  -37.2740  -23.4790 O.3    73  A73        -0.3114
   1539  C4'      -26.3680  -38.1410  -25.4630 C.3    73  A73         0.1773
   1540  O4'      -25.6630  -39.2090  -24.7690 O.3    73  A73        -0.3307
   1541  C3'      -27.6510  -38.7660  -26.0000 C.3    73  A73         0.1860
   1542  O3'      -27.3420  -39.2830  -27.2870 O.3    73  A73        -0.3112
   1543  C2'      -27.8570  -39.9420  -25.0500 C.3    73  A73         0.2309
   1544  O2'      -28.6880  -40.9670  -25.5530 O.3    73  A73        -0.2156
   1545  C1'      -26.4160  -40.4000  -24.8630 C.3    73  A73         0.2408
   1546  N1       -24.8290  -44.9990  -23.2990 N.ar   73  A73        -0.2040
   1547  C2       -25.0670  -44.4800  -24.5110 C.ar   73  A73         0.2016
   1548  N3       -25.4890  -43.2630  -24.8340 N.ar   73  A73        -0.2048
   1549  C4       -25.6700  -42.5150  -23.7300 C.ar   73  A73         0.1692
   1550  C5       -25.4720  -42.9080  -22.4140 C.ar   73  A73         0.1518
   1551  C6       -25.0230  -44.2310  -22.2060 C.ar   73  A73         0.1919
   1552  N6       -24.7790  -44.7790  -21.0150 N.pl3  73  A73        -0.1054
   1553  N7       -25.7770  -41.8570  -21.5560 N.ar   73  A73        -0.2193
   1554  C8       -26.1420  -40.8730  -22.3500 C.ar   73  A73         0.1816
   1555  N9       -26.1230  -41.2150  -23.6820 N.ar   73  A73        -0.2693
   1556  OP1      -28.7960  -35.4480  -24.3550 O.2    73  A73        -0.5172
   1557  OP2      -29.8650  -37.6820  -23.5210 O.co2  73  A73        -0.4373
   1558  P        -28.2650  -38.9940  -28.5700 P.3    74  C74         0.2141
   1559  C5'      -26.3370  -40.5350  -29.3060 C.3    74  C74         0.1812
   1560  O5'      -27.4530  -39.7530  -29.6940 O.3    74  C74        -0.3114
   1561  C4'      -25.2800  -40.5500  -30.3700 C.3    74  C74         0.1773
   1562  O4'      -25.8910  -40.8340  -31.6540 O.3    74  C74        -0.3307
   1563  C3'      -24.5340  -39.2490  -30.6030 C.3    74  C74         0.1860
   1564  O3'      -23.5110  -39.0350  -29.6510 O.3    74  C74        -0.3112
   1565  C2'      -24.0160  -39.4340  -32.0220 C.3    74  C74         0.2309
   1566  O2'      -22.8870  -40.2920  -32.0210 O.3    74  C74        -0.2156
   1567  C1'      -25.1810  -40.1750  -32.6760 C.3    74  C74         0.2420
   1568  N1       -26.0930  -39.2380  -33.3540 N.ar   74  C74        -0.2535
   1569  C2       -25.9060  -38.9940  -34.7140 C.ar   74  C74         0.3532
   1570  O2       -25.0040  -39.5750  -35.3380 O.2    74  C74        -0.2443
   1571  N3       -26.7330  -38.1240  -35.3220 N.ar   74  C74        -0.1739
   1572  C4       -27.6890  -37.5160  -34.6310 C.ar   74  C74         0.1759
   1573  N4       -28.4690  -36.6680  -35.2880 N.pl3  74  C74        -0.1070
   1574  C5       -27.8950  -37.7360  -33.2450 C.ar   74  C74         0.0566
   1575  C6       -27.0800  -38.6020  -32.6520 C.ar   74  C74         0.0850
   1576  OP1      -28.2580  -37.5420  -28.8880 O.2    74  C74        -0.5172
   1577  OP2      -29.5500  -39.7190  -28.4000 O.co2  74  C74        -0.4373
   1578  P        -22.8230  -37.5980  -29.4810 P.3    75  U75         0.2141
   1579  C5'      -20.9810  -37.9110  -31.3330 C.3    75  U75         0.1812
   1580  O5'      -22.1750  -37.2850  -30.9000 O.3    75  U75        -0.3114
   1581  C4'      -20.3220  -37.0920  -32.4070 C.3    75  U75         0.1773
   1582  O4'      -21.0920  -37.1810  -33.6270 O.3    75  U75        -0.3307
   1583  C3'      -20.2570  -35.6090  -32.1180 C.3    75  U75         0.1860
   1584  O3'      -19.1670  -35.2740  -31.2820 O.3    75  U75        -0.3112
   1585  C2'      -20.1970  -34.9920  -33.5090 C.3    75  U75         0.2309
   1586  O2'      -18.8870  -35.0580  -34.0470 O.3    75  U75        -0.2156
   1587  C1'      -21.0880  -35.9420  -34.2970 C.3    75  U75         0.2420
   1588  N1       -22.4790  -35.4640  -34.3540 N.ar   75  U75        -0.2534
   1589  C2       -22.8000  -34.4890  -35.2740 C.ar   75  U75         0.3546
   1590  O2       -21.9840  -33.9940  -36.0340 O.2    75  U75        -0.2443
   1591  N3       -24.1280  -34.1260  -35.2480 N.ar   75  U75        -0.1530
   1592  C4       -25.1190  -34.6330  -34.4170 C.ar   75  U75         0.2846
   1593  O4       -26.2630  -34.2030  -34.5150 O.2    75  U75        -0.2650
   1594  C5       -24.7080  -35.6420  -33.4940 C.ar   75  U75         0.0814
   1595  C6       -23.4290  -36.0060  -33.5060 C.ar   75  U75         0.0870
   1596  OP1      -21.7280  -37.7410  -28.4830 O.3    75  U75        -0.4373
   1597  OP2      -23.8910  -36.5920  -29.2900 O.co2  75  U75        -0.5172
   1598  P        -19.1730  -33.8840  -30.4980 P.3    76  C76         0.2141
   1599  C5'      -17.8210  -32.6380  -32.3090 C.3    76  C76         0.1812
   1600  O5'      -19.0600  -32.8310  -31.6700 O.3    76  C76        -0.3114
   1601  C4'      -17.9170  -31.5030  -33.2620 C.3    76  C76         0.1773
   1602  O4'      -18.9270  -31.8240  -34.2460 O.3    76  C76        -0.3307
   1603  C3'      -18.4220  -30.2170  -32.6530 C.3    76  C76         0.1860
   1604  O3'      -17.4480  -29.4890  -31.9340 O.3    76  C76        -0.3112
   1605  C2'      -18.9690  -29.4930  -33.8600 C.3    76  C76         0.2309
   1606  O2'      -17.8950  -29.0040  -34.6420 O.3    76  C76        -0.2156
   1607  C1'      -19.6140  -30.6530  -34.6110 C.3    76  C76         0.2420
   1608  N1       -21.0520  -30.8280  -34.2830 N.ar   76  C76        -0.2535
   1609  C2       -21.9650  -30.1340  -35.0750 C.ar   76  C76         0.3532
   1610  O2       -21.5210  -29.4130  -35.9780 O.2    76  C76        -0.2443
   1611  N3       -23.2900  -30.2760  -34.8540 N.ar   76  C76        -0.1739
   1612  C4       -23.7250  -31.0640  -33.8710 C.ar   76  C76         0.1759
   1613  N4       -25.0500  -31.1630  -33.6930 N.pl3  76  C76        -0.1070
   1614  C5       -22.8150  -31.7770  -33.0350 C.ar   76  C76         0.0566
   1615  C6       -21.5060  -31.6420  -33.2780 C.ar   76  C76         0.0850
   1616  OP1      -17.9030  -33.7950  -29.7140 O.3    76  C76        -0.4373
   1617  OP2      -20.4830  -33.6800  -29.8160 O.co2  76  C76        -0.5172
   1618  P        -17.9480  -28.3530  -30.9230 P.3    77  C77         0.2141
   1619  C5'      -17.9280  -26.3310  -32.5950 C.3    77  C77         0.1812
   1620  O5'      -18.6600  -27.2890  -31.8600 O.3    77  C77        -0.3114
   1621  C4'      -18.8690  -25.3620  -33.2400 C.3    77  C77         0.1773
   1622  O4'      -19.8190  -26.0820  -34.0650 O.3    77  C77        -0.3307
   1623  C3'      -19.7470  -24.5820  -32.2780 C.3    77  C77         0.1860
   1624  O3'      -19.0810  -23.4660  -31.7350 O.3    77  C77        -0.3112
   1625  C2'      -20.9190  -24.1940  -33.1470 C.3    77  C77         0.2309
   1626  O2'      -20.5530  -23.1060  -33.9720 O.3    77  C77        -0.2156
   1627  C1'      -21.0720  -25.4400  -34.0180 C.3    77  C77         0.2420
   1628  N1       -22.0840  -26.3750  -33.4650 N.ar   77  C77        -0.2535
   1629  C2       -23.4300  -26.1110  -33.7910 C.ar   77  C77         0.3532
   1630  O2       -23.6920  -25.1400  -34.5200 O.2    77  C77        -0.2443
   1631  N3       -24.4010  -26.9250  -33.3180 N.ar   77  C77        -0.1739
   1632  C4       -24.0770  -27.9510  -32.5340 C.ar   77  C77         0.1759
   1633  N4       -25.0740  -28.7180  -32.0850 N.pl3  77  C77        -0.1070
   1634  C5       -22.7190  -28.2430  -32.1820 C.ar   77  C77         0.0566
   1635  C6       -21.7630  -27.4380  -32.6580 C.ar   77  C77         0.0850
   1636  OP1      -16.8260  -27.6420  -30.2710 O.2    77  C77        -0.5172
   1637  OP2      -19.0040  -29.0300  -30.1220 O.co2  77  C77        -0.4373
   1638  P        -19.3960  -22.9730  -30.2510 P.3    78  U78         0.2141
   1639  C5'      -20.9290  -21.1070  -31.2940 C.3    78  U78         0.1812
   1640  O5'      -20.7900  -22.2120  -30.4160 O.3    78  U78        -0.3114
   1641  C4'      -22.3800  -20.7730  -31.5830 C.3    78  U78         0.1773
   1642  O4'      -23.0400  -21.8540  -32.2960 O.3    78  U78        -0.3307
   1643  C3'      -23.2890  -20.5340  -30.3960 C.3    78  U78         0.1860
   1644  O3'      -23.1210  -19.2770  -29.7980 O.3    78  U78        -0.3112
   1645  C2'      -24.6640  -20.7120  -31.0070 C.3    78  U78         0.2309
   1646  O2'      -25.0220  -19.5820  -31.7810 O.3    78  U78        -0.2156
   1647  C1'      -24.4100  -21.8700  -31.9610 C.3    78  U78         0.2420
   1648  N1       -24.7360  -23.1570  -31.3210 N.ar   78  U78        -0.2534
   1649  C2       -26.0620  -23.5700  -31.4540 C.ar   78  U78         0.3546
   1650  O2       -26.8930  -22.9370  -32.0400 O.2    78  U78        -0.2443
   1651  N3       -26.3850  -24.7590  -30.8840 N.ar   78  U78        -0.1530
   1652  C4       -25.4800  -25.5330  -30.1840 C.ar   78  U78         0.2846
   1653  O4       -25.8810  -26.5850  -29.7040 O.2    78  U78        -0.2650
   1654  C5       -24.1310  -25.0280  -30.0800 C.ar   78  U78         0.0814
   1655  C6       -23.7940  -23.8710  -30.6310 C.ar   78  U78         0.0870
   1656  OP1      -18.3530  -21.9840  -29.8860 O.2    78  U78        -0.5172
   1657  OP2      -19.5610  -24.1770  -29.3980 O.co2  78  U78        -0.4373
   1658  P        -22.9700  -19.2290  -28.2080 P.3    79  U79         0.2141
   1659  C5'      -25.4780  -18.6520  -27.8820 C.3    79  U79         0.1812
   1660  O5'      -24.4410  -19.5940  -27.7000 O.3    79  U79        -0.3114
   1661  C4'      -26.8480  -19.1980  -27.5710 C.3    79  U79         0.1773
   1662  O4'      -27.1640  -20.3580  -28.3820 O.3    79  U79        -0.3307
   1663  C3'      -27.1120  -19.6900  -26.1650 C.3    79  U79         0.1860
   1664  O3'      -27.2010  -18.6520  -25.2120 O.3    79  U79        -0.3112
   1665  C2'      -28.4070  -20.4620  -26.3610 C.3    79  U79         0.2309
   1666  O2'      -29.4900  -19.5610  -26.5360 O.3    79  U79        -0.2156
   1667  C1'      -28.1330  -21.1400  -27.7050 C.3    79  U79         0.2420
   1668  N1       -27.6120  -22.5050  -27.5020 N.ar   79  U79        -0.2534
   1669  C2       -28.5670  -23.4970  -27.3360 C.ar   79  U79         0.3546
   1670  O2       -29.7690  -23.2790  -27.3810 O.2    79  U79        -0.2443
   1671  N3       -28.0640  -24.7560  -27.1250 N.ar   79  U79        -0.1530
   1672  C4       -26.7340  -25.1020  -27.0550 C.ar   79  U79         0.2846
   1673  O4       -26.4350  -26.2820  -26.8580 O.2    79  U79        -0.2650
   1674  C5       -25.8230  -24.0080  -27.2240 C.ar   79  U79         0.0814
   1675  C6       -26.2710  -22.7680  -27.4350 C.ar   79  U79         0.0870
   1676  OP1      -22.7630  -17.8020  -27.8830 O.2    79  U79        -0.5172
   1677  OP2      -21.9770  -20.2610  -27.7730 O.co2  79  U79        -0.4373
   1678  P        -26.9470  -18.9670  -23.6570 P.3    80  C80         0.2141
   1679  C5'      -29.5350  -18.7790  -23.4070 C.3    80  C80         0.1812
   1680  O5'      -28.3490  -19.5210  -23.1580 O.3    80  C80        -0.3114
   1681  C4'      -30.7860  -19.5770  -23.1370 C.3    80  C80         0.1773
   1682  O4'      -30.9100  -20.7000  -24.0530 O.3    80  C80        -0.3307
   1683  C3'      -30.8920  -20.2080  -21.7650 C.3    80  C80         0.1860
   1684  O3'      -31.2710  -19.2570  -20.7840 O.3    80  C80        -0.3112
   1685  C2'      -31.9330  -21.2980  -21.9920 C.3    80  C80         0.2309
   1686  O2'      -33.2390  -20.7380  -21.9950 O.3    80  C80        -0.2156
   1687  C1'      -31.5940  -21.7610  -23.4160 C.3    80  C80         0.2420
   1688  N1       -30.7420  -22.9830  -23.4280 N.ar   80  C80        -0.2535
   1689  C2       -31.3140  -24.2780  -23.4220 C.ar   80  C80         0.3532
   1690  O2       -32.5400  -24.4460  -23.4190 O.2    80  C80        -0.2443
   1691  N3       -30.5150  -25.3670  -23.4060 N.ar   80  C80        -0.1739
   1692  C4       -29.1920  -25.2250  -23.4320 C.ar   80  C80         0.1759
   1693  N4       -28.4400  -26.3320  -23.4340 N.pl3  80  C80        -0.1070
   1694  C5       -28.5810  -23.9340  -23.4460 C.ar   80  C80         0.0566
   1695  C6       -29.3790  -22.8600  -23.4380 C.ar   80  C80         0.0850
   1696  OP1      -26.6710  -17.6560  -23.0150 O.3    80  C80        -0.4373
   1697  OP2      -26.0000  -20.0990  -23.5030 O.co2  80  C80        -0.5172
   1698  P        -30.6460  -19.2890  -19.3040 P.3    81  G81         0.2141
   1699  C5'      -31.3580  -21.6200  -18.4780 C.3    81  G81         0.1812
   1700  O5'      -31.6520  -20.2410  -18.5380 O.3    81  G81        -0.3114
   1701  C4'      -32.5870  -22.4850  -18.4400 C.3    81  G81         0.1773
   1702  O4'      -32.7030  -23.2000  -19.7060 O.3    81  G81        -0.3307
   1703  C3'      -32.4880  -23.5770  -17.3860 C.3    81  G81         0.1860
   1704  O3'      -32.9550  -23.1590  -16.1110 O.3    81  G81        -0.3112
   1705  C2'      -33.2260  -24.7470  -18.0200 C.3    81  G81         0.2309
   1706  O2'      -34.6230  -24.5410  -17.9380 O.3    81  G81        -0.2156
   1707  C1'      -32.7980  -24.5850  -19.4750 C.3    81  G81         0.2408
   1708  N1       -29.4640  -28.5890  -19.6620 N.ar   81  G81        -0.1709
   1709  C2       -30.8120  -28.6200  -19.3760 C.ar   81  G81         0.2606
   1710  N2       -31.3150  -29.8370  -19.1180 N.pl3  81  G81        -0.0859
   1711  N3       -31.6080  -27.5520  -19.3660 N.ar   81  G81        -0.1918
   1712  C4       -30.9320  -26.4170  -19.6480 C.ar   81  G81         0.1723
   1713  C5       -29.5810  -26.2910  -19.9310 C.ar   81  G81         0.1748
   1714  C6       -28.7510  -27.4410  -19.9620 C.ar   81  G81         0.3023
   1715  O6       -27.5460  -27.5090  -20.2160 O.2    81  G81        -0.2633
   1716  N7       -29.2340  -24.9740  -20.1660 N.ar   81  G81        -0.2173
   1717  C8       -30.3560  -24.3410  -20.0330 C.ar   81  G81         0.1817
   1718  N9       -31.4380  -25.1300  -19.7100 N.ar   81  G81        -0.2693
   1719  OP1      -30.7090  -17.9100  -18.7560 O.3    81  G81        -0.4373
   1720  OP2      -29.3550  -20.0210  -19.2510 O.co2  81  G81        -0.5172
   1721  P        -31.9020  -22.9580  -14.9070 P.3    82  A82         0.2141
   1722  C5'      -32.7640  -25.3170  -14.3360 C.3    82  A82         0.1812
   1723  O5'      -31.6490  -24.4460  -14.4190 O.3    82  A82        -0.3114
   1724  C4'      -32.3640  -26.7620  -14.2870 C.3    82  A82         0.1773
   1725  O4'      -31.9770  -27.2310  -15.6080 O.3    82  A82        -0.3307
   1726  C3'      -31.1650  -27.0920  -13.4230 C.3    82  A82         0.1860
   1727  O3'      -31.4680  -27.1100  -12.0420 O.3    82  A82        -0.3112
   1728  C2'      -30.7600  -28.4350  -13.9910 C.3    82  A82         0.2309
   1729  O2'      -31.7250  -29.4170  -13.6330 O.3    82  A82        -0.2156
   1730  C1'      -30.9170  -28.1510  -15.4840 C.3    82  A82         0.2408
   1731  N1       -26.2140  -28.8240  -17.5310 N.ar   82  A82        -0.2040
   1732  C2       -27.1450  -29.6920  -17.1140 C.ar   82  A82         0.2016
   1733  N3       -28.3480  -29.4570  -16.5910 N.ar   82  A82        -0.2048
   1734  C4       -28.5730  -28.1370  -16.5070 C.ar   82  A82         0.1692
   1735  C5       -27.7170  -27.1260  -16.8940 C.ar   82  A82         0.1518
   1736  C6       -26.4750  -27.5050  -17.4300 C.ar   82  A82         0.1919
   1737  N6       -25.5540  -26.6350  -17.8410 N.pl3  82  A82        -0.1054
   1738  N7       -28.2800  -25.8860  -16.6620 N.ar   82  A82        -0.2193
   1739  C8       -29.4460  -26.1660  -16.1510 C.ar   82  A82         0.1816
   1740  N9       -29.6990  -27.5130  -16.0330 N.ar   82  A82        -0.2693
   1741  OP1      -32.6480  -22.2390  -13.8470 O.3    82  A82        -0.4373
   1742  OP2      -30.5910  -22.4380  -15.3710 O.co2  82  A82        -0.5172
   1743  P        -30.4650  -26.4600  -10.9660 P.3    83  C83         0.2141
   1744  C5'      -30.0110  -28.9590  -10.3520 C.3    83  C83         0.1812
   1745  O5'      -29.4880  -27.6650  -10.6090 O.3    83  C83        -0.3114
   1746  C4'      -29.0070  -30.0410  -10.6470 C.3    83  C83         0.1773
   1747  O4'      -28.7330  -30.0960  -12.0700 O.3    83  C83        -0.3307
   1748  C3'      -27.6350  -29.8550  -10.0310 C.3    83  C83         0.1860
   1749  O3'      -27.5820  -30.1750   -8.6550 O.3    83  C83        -0.3112
   1750  C2'      -26.7590  -30.7310  -10.9150 C.3    83  C83         0.2309
   1751  O2'      -26.9430  -32.1080  -10.6160 O.3    83  C83        -0.2156
   1752  C1'      -27.3820  -30.4710  -12.2820 C.3    83  C83         0.2420
   1753  N1       -26.6820  -29.3960  -13.0250 N.ar   83  C83        -0.2535
   1754  C2       -25.4400  -29.6810  -13.6360 C.ar   83  C83         0.3532
   1755  O2       -24.9290  -30.8110  -13.5480 O.2    83  C83        -0.2443
   1756  N3       -24.7940  -28.7110  -14.3080 N.ar   83  C83        -0.1739
   1757  C4       -25.3240  -27.5030  -14.4030 C.ar   83  C83         0.1759
   1758  N4       -24.6280  -26.6050  -15.0920 N.pl3  83  C83        -0.1070
   1759  C5       -26.5850  -27.1700  -13.8040 C.ar   83  C83         0.0566
   1760  C6       -27.2220  -28.1400  -13.1230 C.ar   83  C83         0.0850
   1761  OP1      -31.2550  -26.1590   -9.7510 O.3    83  C83        -0.4373
   1762  OP2      -29.7040  -25.3610  -11.6080 O.co2  83  C83        -0.5172
   1763  P        -26.6320  -29.2990   -7.7180 P.3    84  C84         0.2141
   1764  C5'      -24.0420  -29.4070   -8.0300 C.3    84  C84         0.1812
   1765  O5'      -25.2540  -30.0810   -7.7510 O.3    84  C84        -0.3114
   1766  C4'      -23.1660  -30.2700   -8.8800 C.3    84  C84         0.1773
   1767  O4'      -23.5510  -30.1260  -10.2750 O.3    84  C84        -0.3307
   1768  C3'      -21.6830  -29.9320   -8.8730 C.3    84  C84         0.1860
   1769  O3'      -21.0040  -30.4460   -7.7420 O.3    84  C84        -0.3112
   1770  C2'      -21.2190  -30.5420  -10.1810 C.3    84  C84         0.2309
   1771  O2'      -21.1480  -31.9550  -10.0630 O.3    84  C84        -0.2156
   1772  C1'      -22.3990  -30.1960  -11.0930 C.3    84  C84         0.2420
   1773  N1       -22.2210  -28.8700  -11.7090 N.ar   84  C84        -0.2535
   1774  C2       -21.1210  -28.6390  -12.5480 C.ar   84  C84         0.3532
   1775  O2       -20.3300  -29.5340  -12.7980 O.2    84  C84        -0.2443
   1776  N3       -20.9560  -27.4300  -13.1040 N.ar   84  C84        -0.1739
   1777  C4       -21.8460  -26.4660  -12.8270 C.ar   84  C84         0.1759
   1778  N4       -21.6280  -25.2880  -13.3950 N.pl3  84  C84        -0.1070
   1779  C5       -22.9930  -26.6560  -11.9800 C.ar   84  C84         0.0566
   1780  C6       -23.1340  -27.8750  -11.4440 C.ar   84  C84         0.0850
   1781  OP1      -27.0970  -29.3230   -6.3210 O.3    84  C84        -0.4373
   1782  OP2      -26.3760  -28.0330   -8.4590 O.co2  84  C84        -0.5172
   1783  P        -20.0700  -29.4890   -6.8530 P.3    85  C85         0.2141
   1784  C5'      -17.9930  -30.6000   -7.9230 C.3    85  C85         0.1812
   1785  O5'      -18.7240  -29.4150   -7.6800 O.3    85  C85        -0.3114
   1786  C4'      -16.8660  -30.3510   -8.8690 C.3    85  C85         0.1773
   1787  O4'      -17.3740  -29.9680  -10.1700 O.3    85  C85        -0.3307
   1788  C3'      -15.9140  -29.2280   -8.5120 C.3    85  C85         0.1860
   1789  O3'      -14.9830  -29.6110   -7.5260 O.3    85  C85        -0.3112
   1790  C2'      -15.2540  -28.9540   -9.8440 C.3    85  C85         0.2309
   1791  O2'      -14.3130  -29.9810  -10.1110 O.3    85  C85        -0.2156
   1792  C1'      -16.4400  -29.1180  -10.7980 C.3    85  C85         0.2420
   1793  N1       -17.1140  -27.8390  -11.0750 N.ar   85  C85        -0.2535
   1794  C2       -16.4220  -26.8670  -11.7720 C.ar   85  C85         0.3532
   1795  O2       -15.2610  -27.0990  -12.1310 O.2    85  C85        -0.2443
   1796  N3       -17.0450  -25.7040  -12.0380 N.ar   85  C85        -0.1739
   1797  C4       -18.2680  -25.4890  -11.6150 C.ar   85  C85         0.1759
   1798  N4       -18.8060  -24.3200  -11.9030 N.pl3  85  C85        -0.1070
   1799  C5       -18.9890  -26.4670  -10.8970 C.ar   85  C85         0.0566
   1800  C6       -18.3860  -27.6270  -10.6470 C.ar   85  C85         0.0850
   1801  OP1      -19.7160  -30.1850   -5.5910 O.3    85  C85        -0.4373
   1802  OP2      -20.6780  -28.1410   -6.8480 O.co2  85  C85        -0.5172
   1803  P        -14.6010  -28.5990   -6.3470 P.3    86  G86         0.2141
   1804  C5'      -12.5710  -27.4650   -7.5800 C.3    86  G86         0.1812
   1805  O5'      -13.8980  -27.3730   -7.0840 O.3    86  G86        -0.3114
   1806  C4'      -12.2780  -26.3150   -8.4940 C.3    86  G86         0.1773
   1807  O4'      -13.3030  -26.2720   -9.5170 O.3    86  G86        -0.3307
   1808  C3'      -12.3370  -24.9340   -7.8580 C.3    86  G86         0.1860
   1809  O3'      -11.1400  -24.5710   -7.1780 O.3    86  G86        -0.3112
   1810  C2'      -12.6710  -24.0390   -9.0510 C.3    86  G86         0.2309
   1811  O2'      -11.5310  -23.8040   -9.8600 O.3    86  G86        -0.2156
   1812  C1'      -13.6180  -24.9340   -9.8370 C.3    86  G86         0.2408
   1813  N1       -17.4890  -21.6690  -10.1890 N.ar   86  G86        -0.1709
   1814  C2       -16.2500  -21.5790  -10.7500 C.ar   86  G86         0.2606
   1815  N2       -16.0490  -20.4620  -11.4750 N.pl3  86  G86        -0.0859
   1816  N3       -15.3060  -22.5010  -10.5970 N.ar   86  G86        -0.1918
   1817  C4       -15.7350  -23.5310   -9.8150 C.ar   86  G86         0.1723
   1818  C5       -16.9680  -23.6940   -9.2070 C.ar   86  G86         0.1748
   1819  C6       -17.9630  -22.6940   -9.3880 C.ar   86  G86         0.3023
   1820  O6       -19.1390  -22.6380   -8.9550 O.2    86  G86        -0.2633
   1821  N7       -17.0050  -24.8910   -8.4980 N.ar   86  G86        -0.2173
   1822  C8       -15.8250  -25.4330   -8.6600 C.ar   86  G86         0.1817
   1823  N9       -15.0120  -24.6650   -9.4620 N.ar   86  G86        -0.2693
   1824  OP1      -13.6250  -29.3460   -5.5120 O.3    86  G86        -0.4373
   1825  OP2      -15.8230  -28.0210   -5.7410 O.co2  86  G86        -0.5172
   1826  P        -11.0020  -24.7150   -5.5790 P.3    87  A87         0.2141
   1827  C5'       -9.5160  -26.8800   -5.2220 C.3    87  A87         0.1812
   1828  O5'      -10.8120  -26.2880   -5.3250 O.3    87  A87        -0.3114
   1829  C4'       -9.5810  -28.3800   -5.0270 C.3    87  A87         0.1773
   1830  O4'       -9.7220  -29.0440   -6.3080 O.3    87  A87        -0.3307
   1831  C3'       -8.3510  -29.0530   -4.4330 C.3    87  A87         0.1860
   1832  O3'       -8.2080  -28.8880   -3.0310 O.3    87  A87        -0.3112
   1833  C2'       -8.5370  -30.5100   -4.8510 C.3    87  A87         0.2309
   1834  O2'       -9.4170  -31.1960   -3.9810 O.3    87  A87        -0.2156
   1835  C1'       -9.2230  -30.3670   -6.2060 C.3    87  A87         0.2408
   1836  N1        -5.8210  -28.9960   -9.8760 N.ar   87  A87        -0.2040
   1837  C2        -6.4870  -28.2750   -8.9620 C.ar   87  A87         0.2016
   1838  N3        -7.3520  -28.6520   -8.0360 N.ar   87  A87        -0.2048
   1839  C4        -7.5110  -29.9650   -8.1060 C.ar   87  A87         0.1692
   1840  C5        -6.9080  -30.8500   -8.9880 C.ar   87  A87         0.1518
   1841  C6        -6.0160  -30.3310   -9.9130 C.ar   87  A87         0.1919
   1842  N6        -5.3900  -31.1000  -10.8040 N.pl3  87  A87        -0.1054
   1843  N7        -7.3080  -32.1490   -8.7920 N.ar   87  A87        -0.2193
   1844  C8        -8.1400  -32.0130   -7.7940 C.ar   87  A87         0.1816
   1845  N9        -8.3310  -30.7260   -7.3340 N.ar   87  A87        -0.2693
   1846  OP1      -12.2560  -24.2690   -4.9360 O.3    87  A87        -0.4373
   1847  OP2       -9.7580  -24.0100   -5.1870 O.co2  87  A87        -0.5172
   1848  P         -6.7660  -28.5610   -2.4100 P.3    88  G88         0.2141
   1849  C5'       -5.6750  -30.9390   -2.6430 C.3    88  G88         0.1812
   1850  O5'       -5.7790  -29.6020   -3.1110 O.3    88  G88        -0.3114
   1851  C4'       -5.2380  -31.8870   -3.7350 C.3    88  G88         0.1773
   1852  O4'       -5.6830  -31.4170   -5.0340 O.3    88  G88        -0.3307
   1853  C3'       -3.7440  -32.0540   -3.9160 C.3    88  G88         0.1860
   1854  O3'       -3.1650  -32.8900   -2.9450 O.3    88  G88        -0.3112
   1855  C2'       -3.6490  -32.5900   -5.3340 C.3    88  G88         0.2309
   1856  O2'       -4.0120  -33.9610   -5.3870 O.3    88  G88        -0.2156
   1857  C1'       -4.7380  -31.7710   -6.0180 C.3    88  G88         0.2408
   1858  N1        -1.8000  -29.8720   -9.6230 N.ar   88  G88        -0.1709
   1859  C2        -2.1430  -31.1790   -9.3510 C.ar   88  G88         0.2606
   1860  N2        -1.6270  -32.0990  -10.1710 N.pl3  88  G88        -0.0859
   1861  N3        -2.9350  -31.5470   -8.3550 N.ar   88  G88        -0.1918
   1862  C4        -3.3570  -30.4770   -7.6470 C.ar   88  G88         0.1723
   1863  C5        -3.0830  -29.1350   -7.8140 C.ar   88  G88         0.1748
   1864  C6        -2.2340  -28.7670   -8.8920 C.ar   88  G88         0.3023
   1865  O6        -1.8520  -27.6430   -9.2150 O.2    88  G88        -0.2633
   1866  N7        -3.7360  -28.3590   -6.8480 N.ar   88  G88        -0.2173
   1867  C8        -4.3820  -29.2350   -6.1250 C.ar   88  G88         0.1817
   1868  N9        -4.1860  -30.5290   -6.5690 N.ar   88  G88        -0.2693
   1869  OP1       -6.8060  -28.8760   -0.9620 O.3    88  G88        -0.4373
   1870  OP2       -6.4070  -27.1980   -2.8730 O.co2  88  G88        -0.5172
   1871  P         -1.7920  -32.4330   -2.2670 P.3    89  C89         0.2141
   1872  C5'       -0.9790  -34.3900   -3.7680 C.3    89  C89         0.1812
   1873  O5'       -0.7030  -33.1220   -3.1960 O.3    89  C89        -0.3114
   1874  C4'       -0.2610  -34.5760   -5.0760 C.3    89  C89         0.1773
   1875  O4'       -0.8290  -33.7310   -6.1130 O.3    89  C89        -0.3307
   1876  C3'        1.2010  -34.1990   -5.0880 C.3    89  C89         0.1860
   1877  O3'        2.0310  -35.1440   -4.4470 O.3    89  C89        -0.3112
   1878  C2'        1.4640  -34.0530   -6.5720 C.3    89  C89         0.2309
   1879  O2'        1.5060  -35.3230   -7.1940 O.3    89  C89        -0.2156
   1880  C1'        0.1860  -33.3620   -7.0180 C.3    89  C89         0.2420
   1881  N1         0.3440  -31.9030   -6.9870 N.ar   89  C89        -0.2535
   1882  C2         1.0470  -31.3470   -8.0440 C.ar   89  C89         0.3532
   1883  O2         1.4670  -32.1190   -8.9140 O.2    89  C89        -0.2443
   1884  N3         1.2320  -30.0110   -8.0740 N.ar   89  C89        -0.1739
   1885  C4         0.7470  -29.2620   -7.0860 C.ar   89  C89         0.1759
   1886  N4         0.9460  -27.9540   -7.1410 N.pl3  89  C89        -0.1070
   1887  C5         0.0280  -29.8130   -5.9910 C.ar   89  C89         0.0566
   1888  C6        -0.1520  -31.1370   -5.9770 C.ar   89  C89         0.0850
   1889  OP1       -1.6800  -33.0650   -0.9240 O.3    89  C89        -0.4373
   1890  OP2       -1.7310  -30.9530   -2.4460 O.co2  89  C89        -0.5172
   1891  P          3.4330  -34.6630   -3.8390 P.3    90  C90         0.2141
   1892  C5'        4.7450  -35.3490   -5.9830 C.3    90  C90         0.1812
   1893  O5'        4.2880  -34.3110   -5.1360 O.3    90  C90        -0.3114
   1894  C4'        5.3990  -34.8100   -7.2230 C.3    90  C90         0.1773
   1895  O4'        4.5470  -33.8130   -7.8360 O.3    90  C90        -0.3307
   1896  C3'        6.7310  -34.0900   -7.0480 C.3    90  C90         0.1860
   1897  O3'        7.8260  -34.9800   -6.8900 O.3    90  C90        -0.3112
   1898  C2'        6.8070  -33.2760   -8.3240 C.3    90  C90         0.2309
   1899  O2'        7.1280  -34.1420   -9.4000 O.3    90  C90        -0.2156
   1900  C1'        5.3450  -32.8460   -8.4840 C.3    90  C90         0.2420
   1901  N1         5.0580  -31.5290   -7.8720 N.ar   90  C90        -0.2535
   1902  C2         5.5050  -30.3660   -8.4990 C.ar   90  C90         0.3532
   1903  O2         6.1390  -30.4620   -9.5470 O.2    90  C90        -0.2443
   1904  N3         5.2310  -29.1590   -7.9580 N.ar   90  C90        -0.1739
   1905  C4         4.5320  -29.0860   -6.8240 C.ar   90  C90         0.1759
   1906  N4         4.2870  -27.8720   -6.3220 N.pl3  90  C90        -0.1070
   1907  C5         4.0600  -30.2550   -6.1590 C.ar   90  C90         0.0566
   1908  C6         4.3400  -31.4420   -6.7120 C.ar   90  C90         0.0850
   1909  OP1        4.0400  -35.8540   -3.2060 O.2    90  C90        -0.5172
   1910  OP2        3.2590  -33.4150   -3.0520 O.co2  90  C90        -0.4373
   1911  P          9.2230  -34.4910   -6.2560 P.3    91  C91         0.2141
   1912  C5'       10.2080  -34.0430   -8.6410 C.3    91  C91         0.1812
   1913  O5'        9.8610  -33.5400   -7.3600 O.3    91  C91        -0.3114
   1914  C4'       10.8750  -32.9790   -9.4760 C.3    91  C91         0.1773
   1915  O4'        9.9560  -31.8880   -9.7360 O.3    91  C91        -0.3307
   1916  C3'       12.0820  -32.3150   -8.8340 C.3    91  C91         0.1860
   1917  O3'       13.2540  -33.0710   -9.0420 O.3    91  C91        -0.3112
   1918  C2'       12.1410  -30.9620   -9.5150 C.3    91  C91         0.2309
   1919  O2'       12.8040  -31.0870  -10.7560 O.3    91  C91        -0.2156
   1920  C1'       10.6610  -30.6690   -9.7780 C.3    91  C91         0.2420
   1921  N1        10.0650  -29.7340   -8.8030 N.ar   91  C91        -0.2535
   1922  C2        10.3620  -28.3830   -8.9580 C.ar   91  C91         0.3532
   1923  O2        11.1130  -28.0480   -9.8790 O.2    91  C91        -0.2443
   1924  N3         9.8380  -27.4840   -8.1080 N.ar   91  C91        -0.1739
   1925  C4         9.0270  -27.9000   -7.1430 C.ar   91  C91         0.1759
   1926  N4         8.5110  -26.9740   -6.3470 N.pl3  91  C91        -0.1070
   1927  C5         8.7030  -29.2760   -6.9540 C.ar   91  C91         0.0566
   1928  C6         9.2420  -30.1610   -7.8010 C.ar   91  C91         0.0850
   1929  OP1       10.1050  -35.6780   -6.2430 O.2    91  C91        -0.5172
   1930  OP2        8.9580  -33.7090   -5.0180 O.co2  91  C91        -0.4373
   1931  P         14.2830  -33.3270   -7.8400 P.3    92  G92         0.2141
   1932  C5'       15.4150  -31.0700   -8.5570 C.3    92  G92         0.1812
   1933  O5'       14.8470  -31.8730   -7.5230 O.3    92  G92        -0.3114
   1934  C4'       15.6240  -29.6430   -8.1080 C.3    92  G92         0.1773
   1935  O4'       14.3380  -29.0750   -7.7270 O.3    92  G92        -0.3307
   1936  C3'       16.5460  -29.4890   -6.8950 C.3    92  G92         0.1860
   1937  O3'       17.3470  -28.3100   -7.0010 O.3    92  G92        -0.3112
   1938  C2'       15.5640  -29.3590   -5.7300 C.3    92  G92         0.2309
   1939  O2'       16.0440  -28.6580   -4.5990 O.3    92  G92        -0.2156
   1940  C1'       14.3820  -28.6420   -6.3750 C.3    92  G92         0.2408
   1941  N1        10.1580  -27.1040   -3.9710 N.ar   92  G92        -0.1709
   1942  C2        11.1510  -26.3420   -4.5540 C.ar   92  G92         0.2606
   1943  N2        11.0090  -25.0080   -4.4770 N.pl3  92  G92        -0.0859
   1944  N3        12.2120  -26.8400   -5.1670 N.ar   92  G92        -0.1918
   1945  C4        12.1930  -28.1840   -5.1490 C.ar   92  G92         0.1723
   1946  C5        11.2600  -29.0400   -4.5960 C.ar   92  G92         0.1748
   1947  C6        10.1270  -28.4980   -3.9450 C.ar   92  G92         0.3023
   1948  O6         9.2020  -29.1170   -3.4020 O.2    92  G92        -0.2633
   1949  N7        11.6140  -30.3670   -4.7830 N.ar   92  G92        -0.2173
   1950  C8        12.7340  -30.2930   -5.4340 C.ar   92  G92         0.1817
   1951  N9        13.1320  -29.0060   -5.7060 N.ar   92  G92        -0.2693
   1952  OP1       15.3710  -34.1360   -8.4450 O.2    92  G92        -0.5172
   1953  OP2       13.5680  -33.8620   -6.6470 O.co2  92  G92        -0.4373
   1954  P         18.8930  -28.4030   -7.4420 P.3    93  U93         0.2141
   1955  C5'       18.4970  -26.4380   -9.0890 C.3    93  U93         0.1812
   1956  O5'       19.1990  -26.9400   -7.9670 O.3    93  U93        -0.3114
   1957  C4'       18.4440  -24.9350   -9.0960 C.3    93  U93         0.1773
   1958  O4'       17.3930  -24.4530   -8.2140 O.3    93  U93        -0.3307
   1959  C3'       19.7240  -24.2230   -8.6660 C.3    93  U93         0.1860
   1960  O3'       19.8870  -23.0660   -9.4670 O.3    93  U93        -0.3112
   1961  C2'       19.4000  -23.7620   -7.2550 C.3    93  U93         0.2309
   1962  O2'       20.1530  -22.6440   -6.8270 O.3    93  U93        -0.2156
   1963  C1'       17.9170  -23.4390   -7.3900 C.3    93  U93         0.2420
   1964  N1        17.1720  -23.4200   -6.1290 N.ar   93  U93        -0.2534
   1965  C2        17.1740  -22.2250   -5.4480 C.ar   93  U93         0.3546
   1966  O2        17.7620  -21.2440   -5.8570 O.2    93  U93        -0.2443
   1967  N3        16.4790  -22.2270   -4.2660 N.ar   93  U93        -0.1530
   1968  C4        15.7800  -23.2850   -3.7270 C.ar   93  U93         0.2846
   1969  O4        15.1950  -23.1140   -2.6600 O.2    93  U93        -0.2650
   1970  C5        15.8070  -24.4920   -4.5000 C.ar   93  U93         0.0814
   1971  C6        16.4890  -24.5140   -5.6520 C.ar   93  U93         0.0870
   1972  OP1       19.0320  -29.2720   -8.6300 O.2    93  U93        -0.5172
   1973  OP2       19.7470  -28.6800   -6.2710 O.co2  93  U93        -0.4373
   1974  P         21.0910  -22.9870  -10.5150 P.3    94  C94         0.2141
   1975  C5'       19.6530  -23.1130  -12.6680 C.3    94  C94         0.1812
   1976  O5'       20.5330  -23.7720  -11.7800 O.3    94  C94        -0.3114
   1977  C4'       18.8250  -24.0620  -13.4900 C.3    94  C94         0.1773
   1978  O4'       18.3090  -25.1420  -12.6790 O.3    94  C94        -0.3307
   1979  C3'       17.6000  -23.4160  -14.1160 C.3    94  C94         0.1860
   1980  O3'       17.9380  -22.7710  -15.3320 O.3    94  C94        -0.3112
   1981  C2'       16.5980  -24.5700  -14.2640 C.3    94  C94         0.2309
   1982  O2'       16.7650  -25.2430  -15.5040 O.3    94  C94        -0.2156
   1983  C1'       17.0160  -25.5150  -13.1270 C.3    94  C94         0.2420
   1984  N1        16.1130  -25.5730  -11.9470 N.ar   94  C94        -0.2535
   1985  C2        15.4530  -24.4840  -11.3530 C.ar   94  C94         0.3532
   1986  O2        15.5430  -23.3420  -11.8130 O.2    94  C94        -0.2443
   1987  N3        14.7010  -24.6960  -10.2380 N.ar   94  C94        -0.1739
   1988  C4        14.5750  -25.9210   -9.7090 C.ar   94  C94         0.1759
   1989  N4        13.8140  -26.0910   -8.6220 N.pl3  94  C94        -0.1070
   1990  C5        15.2380  -27.0370  -10.2910 C.ar   94  C94         0.0566
   1991  C6        15.9790  -26.8130  -11.3820 C.ar   94  C94         0.0850
   1992  OP1       22.2370  -23.7360   -9.9440 O.3    94  C94        -0.4373
   1993  OP2       21.2250  -21.5620  -10.9090 O.co2  94  C94        -0.5172
   1994  P         17.2640  -21.3730  -15.7160 P.3    95  A95         0.2141
   1995  C5'       16.4800  -22.9540  -17.6210 C.3    95  A95         0.1812
   1996  O5'       16.2050  -21.8180  -16.8100 O.3    95  A95        -0.3114
   1997  C4'       15.2230  -23.6050  -18.1420 C.3    95  A95         0.1773
   1998  O4'       14.8190  -24.6930  -17.2670 O.3    95  A95        -0.3307
   1999  C3'       14.0050  -22.6860  -18.2930 C.3    95  A95         0.1860
   2000  O3'       13.3590  -22.9480  -19.5300 O.3    95  A95        -0.3112
   2001  C2'       13.0900  -23.1140  -17.1440 C.3    95  A95         0.2309
   2002  O2'       11.7130  -22.9470  -17.3980 O.3    95  A95        -0.2156
   2003  C1'       13.4350  -24.5890  -16.9950 C.3    95  A95         0.2408
   2004  N1        12.8540  -28.8180  -14.1190 N.ar   95  A95        -0.2040
   2005  C2        13.1090  -28.6250  -15.4190 C.ar   95  A95         0.2016
   2006  N3        13.2500  -27.4910  -16.1040 N.ar   95  A95        -0.2048
   2007  C4        13.1020  -26.4310  -15.2970 C.ar   95  A95         0.1692
   2008  C5        12.8440  -26.4540  -13.9400 C.ar   95  A95         0.1518
   2009  C6        12.7150  -27.7270  -13.3350 C.ar   95  A95         0.1919
   2010  N6        12.4580  -27.9270  -12.0400 N.pl3  95  A95        -0.1054
   2011  N7        12.7550  -25.1550  -13.4490 N.ar   95  A95        -0.2193
   2012  C8        12.9580  -24.3970  -14.5040 C.ar   95  A95         0.1816
   2013  N9        13.1750  -25.1120  -15.6530 N.ar   95  A95        -0.2693
   2014  OP1       18.2830  -20.5080  -16.3620 O.2    95  A95        -0.5172
   2015  OP2       16.5420  -20.8710  -14.5160 O.co2  95  A95        -0.4373
   2016  P         13.7170  -22.0630  -20.8190 P.3    96  G96         0.2141
   2017  C5'       11.3620  -21.0170  -20.3460 C.3    96  G96         0.1812
   2018  O5'       12.7260  -20.8240  -20.6990 O.3    96  G96        -0.3114
   2019  C4'       10.4380  -20.1640  -21.1860 C.3    96  G96         0.1773
   2020  O4'       11.0150  -18.8390  -21.3530 O.3    96  G96        -0.3307
   2021  C3'       10.1840  -20.6430  -22.6110 C.3    96  G96         0.1860
   2022  O3'        9.1820  -21.6460  -22.6940 O.3    96  G96        -0.3112
   2023  C2'        9.8170  -19.3540  -23.3310 C.3    96  G96         0.2309
   2024  O2'        8.4880  -18.9810  -23.0250 O.3    96  G96        -0.2156
   2025  C1'       10.7540  -18.3580  -22.6540 C.3    96  G96         0.2408
   2026  N1        13.2490  -16.7480  -26.7730 N.ar   96  G96        -0.1709
   2027  C2        11.9280  -16.6110  -26.4530 C.ar   96  G96         0.2606
   2028  N2        11.2020  -15.9550  -27.3590 N.pl3  96  G96        -0.0859
   2029  N3        11.3630  -17.0640  -25.3470 N.ar   96  G96        -0.1918
   2030  C4        12.2780  -17.6870  -24.5770 C.ar   96  G96         0.1723
   2031  C5        13.6270  -17.8810  -24.8090 C.ar   96  G96         0.1748
   2032  C6        14.2070  -17.3870  -26.0010 C.ar   96  G96         0.3023
   2033  O6        15.3860  -17.4590  -26.3860 O.2    96  G96        -0.2633
   2034  N7        14.2140  -18.5740  -23.7620 N.ar   96  G96        -0.2173
   2035  C8        13.2330  -18.7870  -22.9290 C.ar   96  G96         0.1817
   2036  N9        12.0400  -18.2680  -23.3600 N.ar   96  G96        -0.2693
   2037  OP1       13.3500  -22.8770  -22.0050 O.2    96  G96        -0.5172
   2038  OP2       15.0990  -21.5430  -20.7000 O.co2  96  G96        -0.4373
   2039  P          9.4710  -23.0210  -23.4820 P.3    97  C97         0.2141
   2040  C5'        8.0440  -21.8550  -25.3460 C.3    97  C97         0.1812
   2041  O5'        9.1600  -22.6540  -24.9920 O.3    97  C97        -0.3114
   2042  C4'        8.3200  -21.1550  -26.6470 C.3    97  C97         0.1773
   2043  O4'        9.3690  -20.1830  -26.4320 O.3    97  C97        -0.3307
   2044  C3'        8.8600  -22.0580  -27.7490 C.3    97  C97         0.1860
   2045  O3'        7.8420  -22.7270  -28.4730 O.3    97  C97        -0.3112
   2046  C2'        9.7010  -21.1150  -28.5980 C.3    97  C97         0.2309
   2047  O2'        8.9050  -20.4050  -29.5310 O.3    97  C97        -0.2156
   2048  C1'       10.2290  -20.1410  -27.5450 C.3    97  C97         0.2420
   2049  N1        11.5750  -20.5240  -27.0960 N.ar   97  C97        -0.2535
   2050  C2        12.5930  -20.1470  -27.9400 C.ar   97  C97         0.3532
   2051  O2        12.2650  -19.5320  -28.9610 O.2    97  C97        -0.2443
   2052  N3        13.8620  -20.4520  -27.6210 N.ar   97  C97        -0.1739
   2053  C4        14.1090  -21.1150  -26.4940 C.ar   97  C97         0.1759
   2054  N4        15.3870  -21.3920  -26.2140 N.pl3  97  C97        -0.1070
   2055  C5        13.0660  -21.5180  -25.6060 C.ar   97  C97         0.0566
   2056  C6        11.8090  -21.2070  -25.9390 C.ar   97  C97         0.0850
   2057  OP1        8.4740  -24.0560  -23.1210 O.3    97  C97        -0.4373
   2058  OP2       10.9210  -23.3130  -23.3780 O.co2  97  C97        -0.5172
   2059  P          7.8240  -24.3310  -28.5260 P.3    98  U98         0.2141
   2060  C5'        9.2450  -24.1280  -30.7370 C.3    98  U98         0.1812
   2061  O5'        9.0630  -24.6980  -29.4540 O.3    98  U98        -0.3114
   2062  C4'       10.7040  -24.0870  -31.0760 C.3    98  U98         0.1773
   2063  O4'       11.4030  -23.3800  -30.0330 O.3    98  U98        -0.3307
   2064  C3'       11.4130  -25.4280  -31.1580 C.3    98  U98         0.1860
   2065  O3'       11.2300  -26.0310  -32.4260 O.3    98  U98        -0.3112
   2066  C2'       12.8750  -25.0690  -30.8660 C.3    98  U98         0.2309
   2067  O2'       13.5590  -24.6470  -32.0490 O.3    98  U98        -0.2156
   2068  C1'       12.7250  -23.8690  -29.9210 C.3    98  U98         0.2420
   2069  N1        12.9960  -24.1950  -28.5010 N.ar   98  U98        -0.2534
   2070  C2        14.3260  -24.2140  -28.1140 C.ar   98  U98         0.3546
   2071  O2        15.2340  -24.0070  -28.9030 O.2    98  U98        -0.2443
   2072  N3        14.5490  -24.4980  -26.7810 N.ar   98  U98        -0.1530
   2073  C4        13.5850  -24.7340  -25.8270 C.ar   98  U98         0.2846
   2074  O4        13.9400  -24.9720  -24.6790 O.2    98  U98        -0.2650
   2075  C5        12.2320  -24.6830  -26.3080 C.ar   98  U98         0.0814
   2076  C6        11.9820  -24.4170  -27.5910 C.ar   98  U98         0.0870
   2077  OP1        6.5940  -24.7950  -29.2060 O.2    98  U98        -0.5172
   2078  OP2        8.1600  -24.8380  -27.1710 O.co2  98  U98        -0.4373
   2079  P         10.9200  -27.5970  -32.5640 P.3    99  A99         0.2141
   2080  C5'       11.9710  -27.5520  -34.9740 C.3    99  A99         0.1812
   2081  O5'       11.9550  -28.1080  -33.6630 O.3    99  A99        -0.3114
   2082  C4'       13.0610  -28.1620  -35.8130 C.3    99  A99         0.1773
   2083  O4'       14.2550  -27.3450  -35.6900 O.3    99  A99        -0.3307
   2084  C3'       13.4980  -29.5650  -35.4000 C.3    99  A99         0.1860
   2085  O3'       12.7290  -30.6050  -36.0050 O.3    99  A99        -0.3112
   2086  C2'       14.9620  -29.6020  -35.8030 C.3    99  A99         0.2309
   2087  O2'       15.0700  -29.8920  -37.1820 O.3    99  A99        -0.2156
   2088  C1'       15.3940  -28.1570  -35.5600 C.3    99  A99         0.2408
   2089  N1        19.4470  -28.2480  -32.3180 N.ar   99  A99        -0.2040
   2090  C2        19.3570  -28.4780  -33.6460 C.ar   99  A99         0.2016
   2091  N3        18.2980  -28.4420  -34.4640 N.ar   99  A99        -0.2048
   2092  C4        17.2020  -28.1200  -33.7500 C.ar   99  A99         0.1692
   2093  C5        17.1440  -27.8620  -32.3890 C.ar   99  A99         0.1518
   2094  C6        18.3310  -27.9190  -31.6560 C.ar   99  A99         0.1919
   2095  N6        18.3700  -27.6830  -30.3460 N.pl3  99  A99        -0.1054
   2096  N7        15.8690  -27.5510  -31.9780 N.ar   99  A99        -0.2193
   2097  C8        15.1770  -27.6410  -33.0830 C.ar   99  A99         0.1816
   2098  N9        15.9140  -27.9730  -34.1920 N.ar   99  A99        -0.2693
   2099  OP1        9.5520  -27.6660  -33.1460 O.2    99  A99        -0.5172
   2100  OP2       11.2600  -28.2780  -31.2850 O.co2  99  A99        -0.4373
   2101  P         12.7780  -32.1030  -35.3950 P.3   100  A100        0.2141
   2102  C5'       15.0060  -32.9120  -36.5040 C.3   100  A100        0.1812
   2103  O5'       14.3300  -32.4530  -35.3520 O.3   100  A100       -0.3114
   2104  C4'       16.4340  -33.2090  -36.1680 C.3   100  A100        0.1773
   2105  O4'       17.0540  -32.0190  -35.6240 O.3   100  A100       -0.3307
   2106  C3'       16.6450  -34.2460  -35.0860 C.3   100  A100        0.1860
   2107  O3'       16.5220  -35.5630  -35.5680 O.3   100  A100       -0.3112
   2108  C2'       18.0370  -33.9070  -34.5900 C.3   100  A100        0.2309
   2109  O2'       19.0320  -34.3760  -35.5000 O.3   100  A100       -0.2156
   2110  C1'       17.9860  -32.3810  -34.6340 C.3   100  A100        0.2408
   2111  N1        19.5460  -31.1720  -29.9610 N.ar  100  A100       -0.2040
   2112  C2        20.1650  -31.6800  -31.0250 C.ar  100  A100        0.2016
   2113  N3        19.6630  -31.9660  -32.2170 N.ar  100  A100       -0.2048
   2114  C4        18.3520  -31.6720  -32.2610 C.ar  100  A100        0.1692
   2115  C5        17.5650  -31.1500  -31.2550 C.ar  100  A100        0.1518
   2116  C6        18.2260  -30.9010  -30.0370 C.ar  100  A100        0.1919
   2117  N6        17.6660  -30.3950  -28.9540 N.pl3 100  A100       -0.1054
   2118  N7        16.2590  -30.9810  -31.7060 N.ar  100  A100       -0.2193
   2119  C8        16.2810  -31.4040  -32.9480 C.ar  100  A100        0.1816
   2120  N9        17.5290  -31.8320  -33.3450 N.ar  100  A100       -0.2693
   2121  OP1       12.1590  -33.0890  -36.3160 O.2   100  A100       -0.5172
   2122  OP2       12.3270  -32.0200  -33.9880 O.co2 100  A100       -0.4373
   2123  P         15.7660  -36.6670  -34.6920 P.3   101  C101        0.2141
   2124  C5'       17.7710  -37.1580  -33.0940 C.3   101  C101        0.1812
   2125  O5'       16.4780  -36.5980  -33.2730 O.3   101  C101       -0.3114
   2126  C4'       18.4320  -36.6420  -31.8420 C.3   101  C101        0.1773
   2127  O4'       18.2550  -35.2050  -31.7310 O.3   101  C101       -0.3307
   2128  C3'       17.8650  -37.1710  -30.5460 C.3   101  C101        0.1860
   2129  O3'       18.3700  -38.4380  -30.2240 O.3   101  C101       -0.3112
   2130  C2'       18.2670  -36.1050  -29.5500 C.3   101  C101        0.2309
   2131  O2'       19.6470  -36.2290  -29.2380 O.3   101  C101       -0.2156
   2132  C1'       18.0690  -34.8480  -30.3810 C.3   101  C101        0.2420
   2133  N1        16.7040  -34.3240  -30.2530 N.ar  101  C101       -0.2535
   2134  C2        16.2660  -33.8090  -29.0310 C.ar  101  C101        0.3532
   2135  O2        17.0330  -33.8080  -28.0600 O.2   101  C101       -0.2443
   2136  N3        15.0070  -33.3280  -28.9440 N.ar  101  C101       -0.1739
   2137  C4        14.2200  -33.3500  -30.0170 C.ar  101  C101        0.1759
   2138  N4        12.9820  -32.8690  -29.8920 N.pl3 101  C101       -0.1070
   2139  C5        14.6400  -33.8680  -31.2690 C.ar  101  C101        0.0566
   2140  C6        15.8790  -34.3400  -31.3450 C.ar  101  C101        0.0850
   2141  OP1       16.1180  -37.9900  -35.2750 O.2   101  C101       -0.5172
   2142  OP2       14.3450  -36.2450  -34.5830 O.co2 101  C101       -0.4373
   2143  P         17.4310  -39.4320  -29.4080 P.3   102  C102        0.2141
   2144  C5'       18.6020  -38.5950  -27.2220 C.3   102  C102        0.1812
   2145  O5'       17.4030  -38.8040  -27.9490 O.3   102  C102       -0.3114
   2146  C4'       18.2810  -37.9440  -25.9140 C.3   102  C102        0.1773
   2147  O4'       17.7410  -36.6240  -26.1560 O.3   102  C102       -0.3307
   2148  C3'       17.1750  -38.6320  -25.1530 C.3   102  C102        0.1860
   2149  O3'       17.6220  -39.7600  -24.4430 O.3   102  C102       -0.3112
   2150  C2'       16.6400  -37.5260  -24.2710 C.3   102  C102        0.2309
   2151  O2'       17.5070  -37.3080  -23.1730 O.3   102  C102       -0.2156
   2152  C1'       16.7460  -36.3360  -25.2000 C.3   102  C102        0.2420
   2153  N1        15.4790  -36.0780  -25.8870 N.ar  102  C102       -0.2535
   2154  C2        14.4820  -35.4250  -25.1430 C.ar  102  C102        0.3532
   2155  O2        14.7350  -35.1090  -23.9670 O.2   102  C102       -0.2443
   2156  N3        13.2850  -35.1410  -25.7140 N.ar  102  C102       -0.1739
   2157  C4        13.0850  -35.4990  -26.9800 C.ar  102  C102        0.1759
   2158  N4        11.9050  -35.2050  -27.5300 N.pl3 102  C102       -0.1070
   2159  C5        14.0800  -36.1790  -27.7460 C.ar  102  C102        0.0566
   2160  C6        15.2650  -36.4570  -27.1720 C.ar  102  C102        0.0850
   2161  OP1       18.1060  -40.7580  -29.3060 O.3   102  C102       -0.4373
   2162  OP2       16.0900  -39.2380  -30.0300 O.co2 102  C102       -0.5172
   2163  P         16.6240  -40.9950  -24.2740 P.3   103  U103        0.2141
   2164  C5'       16.1250  -39.8270  -21.9780 C.3   103  U103        0.1812
   2165  O5'       15.6360  -40.4780  -23.1410 O.3   103  U103       -0.3114
   2166  C4'       14.9910  -39.2120  -21.2110 C.3   103  U103        0.1773
   2167  O4'       14.5010  -38.0220  -21.8820 O.3   103  U103       -0.3307
   2168  C3'       13.7660  -40.0900  -21.1200 C.3   103  U103        0.1860
   2169  O3'       13.9030  -41.1120  -20.1690 O.3   103  U103       -0.3112
   2170  C2'       12.6670  -39.0900  -20.8280 C.3   103  U103        0.2309
   2171  O2'       12.7300  -38.6590  -19.4740 O.3   103  U103       -0.2156
   2172  C1'       13.0980  -37.9380  -21.7350 C.3   103  U103        0.2420
   2173  N1        12.4820  -38.0370  -23.0790 N.ar  103  U103       -0.2534
   2174  C2        11.2060  -37.5180  -23.2050 C.ar  103  U103        0.3546
   2175  O2        10.6480  -37.0130  -22.2650 O.2   103  U103       -0.2443
   2176  N3        10.6460  -37.6040  -24.4530 N.ar  103  U103       -0.1530
   2177  C4        11.2450  -38.1700  -25.5660 C.ar  103  U103        0.2846
   2178  O4        10.6330  -38.1890  -26.6340 O.2   103  U103       -0.2650
   2179  C5        12.5620  -38.6910  -25.3600 C.ar  103  U103        0.0814
   2180  C6        13.1280  -38.6110  -24.1510 C.ar  103  U103        0.0870
   2181  OP1       17.3880  -42.1700  -23.7650 O.3   103  U103       -0.4373
   2182  OP2       15.8560  -41.0880  -25.5520 O.co2 103  U103       -0.5172
   2183  P         12.7860  -42.2420  -20.0850 P.3   104  C104        0.2141
   2184  C5'       10.6050  -42.1550  -18.6640 C.3   104  C104        0.1812
   2185  O5'       11.8910  -41.6630  -18.9190 O.3   104  C104       -0.3114
   2186  C4'        9.7520  -41.0420  -18.1540 C.3   104  C104        0.1773
   2187  O4'        9.9630  -39.8620  -18.9750 O.3   104  C104       -0.3307
   2188  C3'        8.2660  -41.3050  -18.2510 C.3   104  C104        0.1860
   2189  O3'        7.8160  -42.0600  -17.1590 O.3   104  C104       -0.3112
   2190  C2'        7.6900  -39.9100  -18.3500 C.3   104  C104        0.2309
   2191  O2'        7.7560  -39.2680  -17.0890 O.3   104  C104       -0.2156
   2192  C1'        8.7250  -39.2490  -19.2520 C.3   104  C104        0.2420
   2193  N1         8.4550  -39.4810  -20.6850 N.ar  104  C104       -0.2535
   2194  C2         7.3440  -38.9100  -21.2660 C.ar  104  C104        0.3532
   2195  O2         6.5840  -38.2400  -20.5490 O.2   104  C104       -0.2443
   2196  N3         7.1160  -39.1160  -22.5790 N.ar  104  C104       -0.1739
   2197  C4         7.9440  -39.8480  -23.3140 C.ar  104  C104        0.1759
   2198  N4         7.6430  -40.0040  -24.6050 N.pl3 104  C104       -0.1070
   2199  C5         9.1130  -40.4470  -22.7480 C.ar  104  C104        0.0566
   2200  C6         9.3160  -40.2320  -21.4430 C.ar  104  C104        0.0850
   2201  OP1       13.4220  -43.4800  -19.5620 O.3   104  C104       -0.4373
   2202  OP2       12.0210  -42.2700  -21.3670 O.co2 104  C104       -0.5172
   2203  P          7.1830  -43.5090  -17.4110 P.3   105  G105        0.2141
   2204  C5'        5.2670  -42.1260  -16.3980 C.3   105  G105        0.1812
   2205  O5'        5.6400  -43.1870  -17.2590 O.3   105  G105       -0.3114
   2206  C4'        3.9740  -41.5260  -16.8190 C.3   105  G105        0.1773
   2207  O4'        4.1820  -40.5200  -17.8490 O.3   105  G105       -0.3307
   2208  C3'        2.9980  -42.5010  -17.4400 C.3   105  G105        0.1860
   2209  O3'        2.3450  -43.2760  -16.4550 O.3   105  G105       -0.3112
   2210  C2'        2.0800  -41.5700  -18.2150 C.3   105  G105        0.2309
   2211  O2'        1.1940  -40.9120  -17.3240 O.3   105  G105       -0.2156
   2212  C1'        3.0960  -40.5420  -18.7490 C.3   105  G105        0.2408
   2213  N1         2.1590  -40.8810  -23.7410 N.ar  105  G105       -0.1709
   2214  C2         1.3700  -40.3730  -22.7450 C.ar  105  G105        0.2606
   2215  N2         0.1770  -39.8990  -23.1200 N.pl3 105  G105       -0.0859
   2216  N3         1.7270  -40.3360  -21.4730 N.ar  105  G105       -0.1918
   2217  C4         2.9590  -40.8540  -21.2730 C.ar  105  G105        0.1723
   2218  C5         3.8290  -41.3710  -22.2050 C.ar  105  G105        0.1748
   2219  C6         3.4330  -41.4080  -23.5650 C.ar  105  G105        0.3023
   2220  O6         4.0530  -41.8330  -24.5450 O.2   105  G105       -0.2633
   2221  N7         4.9950  -41.7830  -21.5880 N.ar  105  G105       -0.2173
   2222  C8         4.8230  -41.5240  -20.3200 C.ar  105  G105        0.1817
   2223  N9         3.6120  -40.9450  -20.0670 N.ar  105  G105       -0.2693
   2224  OP1        7.5870  -44.3910  -16.2820 O.3   105  G105       -0.4373
   2225  OP2        7.4200  -43.9260  -18.8080 O.co2 105  G105       -0.5172
   2226  P          1.9800  -44.8180  -16.7140 P.3   106  C106        0.2141
   2227  C5'       -0.4060  -44.2210  -17.6080 C.3   106  C106        0.1812
   2228  O5'        0.8840  -44.7400  -17.8590 O.3   106  C106       -0.3114
   2229  C4'       -1.2080  -44.2950  -18.8660 C.3   106  C106        0.1773
   2230  O4'       -0.5540  -43.4980  -19.8780 O.3   106  C106       -0.3307
   2231  C3'       -1.3030  -45.6760  -19.4980 C.3   106  C106        0.1860
   2232  O3'       -2.3230  -46.4730  -18.9190 O.3   106  C106       -0.3112
   2233  C2'       -1.5700  -45.3650  -20.9660 C.3   106  C106        0.2309
   2234  O2'       -2.9610  -45.2160  -21.2110 O.3   106  C106       -0.2156
   2235  C1'       -0.8730  -44.0050  -21.1480 C.3   106  C106        0.2420
   2236  N1         0.3540  -44.1240  -21.9340 N.ar  106  C106       -0.2535
   2237  C2         0.1910  -44.1670  -23.3160 C.ar  106  C106        0.3532
   2238  O2        -0.9480  -44.1010  -23.7880 O.2   106  C106       -0.2443
   2239  N3         1.2780  -44.2800  -24.1010 N.ar  106  C106       -0.1739
   2240  C4         2.4740  -44.3570  -23.5200 C.ar  106  C106        0.1759
   2241  N4         3.5170  -44.4700  -24.3310 N.pl3 106  C106       -0.1070
   2242  C5         2.6620  -44.3130  -22.1020 C.ar  106  C106        0.0566
   2243  C6         1.5730  -44.1940  -21.3310 C.ar  106  C106        0.0850
   2244  OP1        1.3030  -45.3410  -15.4980 O.3   106  C106       -0.4373
   2245  OP2        3.1530  -45.5260  -17.2770 O.co2 106  C106       -0.5172
   2246  P         -1.9810  -47.6310  -17.8610 P.3   107  A107        0.2141
   2247  C5'       -3.0660  -46.7370  -15.6450 C.3   107  A107        0.1812
   2248  O5'       -1.9190  -46.8720  -16.4670 O.3   107  A107       -0.3114
   2249  C4'       -2.8300  -45.6700  -14.6110 C.3   107  A107        0.1773
   2250  O4'       -2.8010  -44.3730  -15.2550 O.3   107  A107       -0.3307
   2251  C3'       -3.8870  -45.5180  -13.5340 C.3   107  A107        0.1860
   2252  O3'       -3.7440  -46.4690  -12.4980 O.3   107  A107       -0.3112
   2253  C2'       -3.6860  -44.0770  -13.0780 C.3   107  A107        0.2309
   2254  O2'       -2.5650  -43.9600  -12.2130 O.3   107  A107       -0.2156
   2255  C1'       -3.3270  -43.3950  -14.3900 C.3   107  A107        0.2408
   2256  N1        -6.8200  -39.6360  -14.0760 N.ar  107  A107       -0.2040
   2257  C2        -5.8210  -40.0360  -13.2770 C.ar  107  A107        0.2016
   2258  N3        -4.9510  -41.0390  -13.4060 N.ar  107  A107       -0.2048
   2259  C4        -5.1800  -41.6840  -14.5590 C.ar  107  A107        0.1692
   2260  C5        -6.1660  -41.4080  -15.4890 C.ar  107  A107        0.1518
   2261  C6        -7.0300  -40.3230  -15.2190 C.ar  107  A107        0.1919
   2262  N6        -8.0350  -39.9250  -16.0040 N.pl3 107  A107       -0.1054
   2263  N7        -6.0850  -42.3090  -16.5400 N.ar  107  A107       -0.2193
   2264  C8        -5.0770  -43.0980  -16.2280 C.ar  107  A107        0.1816
   2265  N9        -4.4880  -42.7680  -15.0370 N.ar  107  A107       -0.2693
   2266  OP1       -0.6140  -48.1550  -18.1150 O.2   107  A107       -0.5172
   2267  OP2       -3.1610  -48.5300  -17.8190 O.co2 107  A107       -0.4373
   2268  P         -4.9880  -47.3850  -12.0650 P.3   108  A108        0.2141
   2269  C5'       -5.3200  -45.5030  -10.2830 C.3   108  A108        0.1812
   2270  O5'       -5.8970  -46.3890  -11.2280 O.3   108  A108       -0.3114
   2271  C4'       -6.1370  -44.2500  -10.1210 C.3   108  A108        0.1773
   2272  O4'       -6.1020  -43.4640  -11.3370 O.3   108  A108       -0.3307
   2273  C3'       -7.6170  -44.4380   -9.8670 C.3   108  A108        0.1860
   2274  O3'       -7.9090  -44.8380   -8.5400 O.3   108  A108       -0.3112
   2275  C2'       -8.1750  -43.0800  -10.2570 C.3   108  A108        0.2309
   2276  O2'       -7.8700  -42.1060   -9.2700 O.3   108  A108       -0.2156
   2277  C1'       -7.3290  -42.7700  -11.4890 C.3   108  A108        0.2408
   2278  N1       -10.8940  -41.8550  -15.1130 N.ar  108  A108       -0.2040
   2279  C2       -10.5290  -41.1750  -14.0230 C.ar  108  A108        0.2016
   2280  N3        -9.5880  -41.4750  -13.1150 N.ar  108  A108       -0.2048
   2281  C4        -8.9830  -42.6270  -13.4210 C.ar  108  A108        0.1692
   2282  C5        -9.2570  -43.4430  -14.5010 C.ar  108  A108        0.1518
   2283  C6       -10.2700  -43.0220  -15.3810 C.ar  108  A108        0.1919
   2284  N6       -10.6320  -43.7180  -16.4620 N.pl3 108  A108       -0.1054
   2285  N7        -8.4280  -44.5620  -14.4860 N.ar  108  A108       -0.2193
   2286  C8        -7.6900  -44.4010  -13.4110 C.ar  108  A108        0.1816
   2287  N9        -7.9780  -43.2440  -12.7250 N.ar  108  A108       -0.2693
   2288  OP1       -4.4520  -48.4490  -11.1800 O.3   108  A108       -0.4373
   2289  OP2       -5.7830  -47.7580  -13.2630 O.co2 108  A108       -0.5172
   2290  P         -9.1590  -45.8070   -8.2410 P.3   109  G109        0.2141
   2291  C5'      -10.3080  -43.5920   -7.5150 C.3   109  G109        0.1812
   2292  O5'      -10.3810  -44.7960   -8.2520 O.3   109  G109       -0.3114
   2293  C4'      -11.3430  -42.6100   -7.9760 C.3   109  G109        0.1773
   2294  O4'      -11.0600  -42.1890   -9.3300 O.3   109  G109       -0.3307
   2295  C3'      -12.7690  -43.1140   -8.0450 C.3   109  G109        0.1860
   2296  O3'      -13.3640  -43.1720   -6.7590 O.3   109  G109       -0.3112
   2297  C2'      -13.4090  -42.1110   -8.9910 C.3   109  G109        0.2309
   2298  O2'      -13.6700  -40.8950   -8.3120 O.3   109  G109       -0.2156
   2299  C1'      -12.2680  -41.8650   -9.9840 C.3   109  G109        0.2408
   2300  N1       -14.4070  -42.2070  -14.5150 N.ar  109  G109       -0.1709
   2301  C2       -14.4570  -41.1820  -13.6010 C.ar  109  G109        0.2606
   2302  N2       -15.1930  -40.1180  -13.9690 N.pl3 109  G109       -0.0859
   2303  N3       -13.8410  -41.2130  -12.4230 N.ar  109  G109       -0.1918
   2304  C4       -13.1650  -42.3720  -12.2790 C.ar  109  G109        0.1723
   2305  C5       -13.0430  -43.4470  -13.1280 C.ar  109  G109        0.1748
   2306  C6       -13.7130  -43.3960  -14.3640 C.ar  109  G109        0.3023
   2307  O6       -13.7380  -44.2350  -15.2620 O.2   109  G109       -0.2633
   2308  N7       -12.2380  -44.4360  -12.5790 N.ar  109  G109       -0.2173
   2309  C8       -11.8910  -43.9610  -11.4170 C.ar  109  G109        0.1817
   2310  N9       -12.4130  -42.7080  -11.1860 N.ar  109  G109       -0.2693
   2311  OP1       -8.9880  -46.3380   -6.8660 O.3   109  G109       -0.4373
   2312  OP2       -9.3630  -46.7550   -9.3610 O.co2 109  G109       -0.5172
   2313  P        -14.8970  -43.6270   -6.5490 P.3   110  C110        0.2141
   2314  C5'      -16.7000  -44.4000   -8.2850 C.3   110  C110        0.1812
   2315  O5'      -15.3310  -44.2960   -7.9270 O.3   110  C110       -0.3114
   2316  C4'      -17.1880  -43.2210   -9.0940 C.3   110  C110        0.1773
   2317  O4'      -16.2760  -42.9340  -10.1920 O.3   110  C110       -0.3307
   2318  C3'      -18.5340  -43.4340   -9.7670 C.3   110  C110        0.1860
   2319  O3'      -19.6050  -43.1660   -8.8820 O.3   110  C110       -0.3112
   2320  C2'      -18.4740  -42.4830  -10.9530 C.3   110  C110        0.2309
   2321  O2'      -18.7320  -41.1520  -10.5470 O.3   110  C110       -0.2156
   2322  C1'      -17.0040  -42.5940  -11.3540 C.3   110  C110        0.2420
   2323  N1       -16.8090  -43.6770  -12.3430 N.ar  110  C110       -0.2535
   2324  C2       -17.4460  -43.6110  -13.6000 C.ar  110  C110        0.3532
   2325  O2       -18.1660  -42.6410  -13.9230 O.2   110  C110       -0.2443
   2326  N3       -17.2550  -44.6390  -14.4540 N.ar  110  C110       -0.1739
   2327  C4       -16.4890  -45.6690  -14.1060 C.ar  110  C110        0.1759
   2328  N4       -16.3360  -46.6350  -14.9930 N.pl3 110  C110       -0.1070
   2329  C5       -15.8350  -45.7620  -12.8510 C.ar  110  C110        0.0566
   2330  C6       -16.0230  -44.7500  -12.0070 C.ar  110  C110        0.0850
   2331  OP1      -15.7290  -42.3970   -6.4300 O.2   110  C110       -0.5172
   2332  OP2      -14.8910  -44.6690   -5.5010 O.co2 110  C110       -0.4373
   2333  P        -21.0300  -43.8970   -9.0260 P.3   111  G111        0.2141
   2334  C5'      -22.0600  -42.0740  -10.6130 C.3   111  G111        0.1812
   2335  O5'      -21.5930  -43.4040  -10.4290 O.3   111  G111       -0.3114
   2336  C4'      -22.7180  -41.9360  -11.9590 C.3   111  G111        0.1773
   2337  O4'      -21.8630  -42.5670  -12.9640 O.3   111  G111       -0.3307
   2338  C3'      -24.0830  -42.6240  -12.0670 C.3   111  G111        0.1860
   2339  O3'      -24.9450  -41.8840  -12.9400 O.3   111  G111       -0.3112
   2340  C2'      -23.7260  -43.9610  -12.7070 C.3   111  G111        0.2309
   2341  O2'      -24.7910  -44.6310  -13.3590 O.3   111  G111       -0.2156
   2342  C1'      -22.6020  -43.5500  -13.6600 C.3   111  G111        0.2408
   2343  N1       -21.5700  -46.9750  -17.2160 N.ar  111  G111       -0.1709
   2344  C2       -22.4880  -45.9610  -17.2160 C.ar  111  G111        0.2606
   2345  N2       -23.2560  -45.8440  -18.3060 N.pl3 111  G111       -0.0859
   2346  N3       -22.6420  -45.1190  -16.2120 N.ar  111  G111       -0.1918
   2347  C4       -21.7930  -45.3730  -15.1950 C.ar  111  G111        0.1723
   2348  C5       -20.8400  -46.3630  -15.0950 C.ar  111  G111        0.1748
   2349  C6       -20.6880  -47.2610  -16.1840 C.ar  111  G111        0.3023
   2350  O6       -19.9060  -48.2060  -16.3130 O.2   111  G111       -0.2633
   2351  N7       -20.1830  -46.2820  -13.8710 N.ar  111  G111       -0.2173
   2352  C8       -20.7410  -45.2630  -13.2620 C.ar  111  G111        0.1817
   2353  N9       -21.7270  -44.6660  -14.0170 N.ar  111  G111       -0.2693
   2354  OP1      -21.8410  -43.2510   -7.9690 O.3   111  G111       -0.4373
   2355  OP2      -20.8730  -45.3780   -9.0800 O.co2 111  G111       -0.5172
   2356  P        -26.1440  -40.9910  -12.3440 P.3   112  U112        0.2141
   2357  C5'      -25.6850  -38.5910  -13.2370 C.3   112  U112        0.1812
   2358  O5'      -26.3300  -39.8380  -13.4120 O.3   112  U112       -0.3114
   2359  C4'      -25.6640  -37.8330  -14.5310 C.3   112  U112        0.1773
   2360  O4'      -24.7910  -38.5200  -15.4550 O.3   112  U112       -0.3307
   2361  C3'      -26.9960  -37.7600  -15.2600 C.3   112  U112        0.1860
   2362  O3'      -27.8200  -36.7130  -14.7790 O.3   112  U112       -0.3112
   2363  C2'      -26.5800  -37.5920  -16.7170 C.3   112  U112        0.2309
   2364  O2'      -26.2390  -36.2400  -16.9880 O.3   112  U112       -0.2156
   2365  C1'      -25.3010  -38.4250  -16.7640 C.3   112  U112        0.2420
   2366  N1       -25.4580  -39.8010  -17.2840 N.ar  112  U112       -0.2534
   2367  C2       -25.9290  -40.0620  -18.5580 C.ar  112  U112        0.3546
   2368  O2       -26.3360  -39.2160  -19.3390 O.2   112  U112       -0.2443
   2369  N3       -25.9320  -41.3870  -18.8940 N.ar  112  U112       -0.1530
   2370  C4       -25.5160  -42.4470  -18.1310 C.ar  112  U112        0.2846
   2371  O4       -25.5840  -43.5850  -18.5810 O.2   112  U112       -0.2650
   2372  C5       -25.0270  -42.0910  -16.8440 C.ar  112  U112        0.0814
   2373  C6       -25.0080  -40.8140  -16.4790 C.ar  112  U112        0.0870
   2374  OP1      -25.6790  -40.3140  -11.1040 O.3   112  U112       -0.4373
   2375  OP2      -27.3830  -41.8030  -12.3740 O.co2 112  U112       -0.5172
   2376  P        -29.4060  -36.9110  -14.6470 P.3   113  C113        0.2141
   2377  C5'      -30.1140  -36.4060  -17.0730 C.3   113  C113        0.1812
   2378  O5'      -29.8560  -37.3870  -16.0920 O.3   113  C113       -0.3114
   2379  C4'      -30.3280  -36.9850  -18.4450 C.3   113  C113        0.1773
   2380  O4'      -29.2140  -37.8180  -18.8630 O.3   113  C113       -0.3307
   2381  C3'      -31.5260  -37.8830  -18.6570 C.3   113  C113        0.1860
   2382  O3'      -32.7590  -37.1840  -18.6620 O.3   113  C113       -0.3112
   2383  C2'      -31.1840  -38.5110  -19.9970 C.3   113  C113        0.2309
   2384  O2'      -31.4110  -37.5730  -21.0480 O.3   113  C113       -0.2156
   2385  C1'      -29.6720  -38.7400  -19.8340 C.3   113  C113        0.2420
   2386  N1       -29.3620  -40.1200  -19.3850 N.ar  113  C113       -0.2535
   2387  C2       -29.3080  -41.1430  -20.3540 C.ar  113  C113        0.3532
   2388  O2       -29.5010  -40.8770  -21.5580 O.2   113  C113       -0.2443
   2389  N3       -29.0370  -42.4070  -19.9570 N.ar  113  C113       -0.1739
   2390  C4       -28.8290  -42.6630  -18.6670 C.ar  113  C113        0.1759
   2391  N4       -28.5560  -43.9220  -18.3370 N.pl3 113  C113       -0.1070
   2392  C5       -28.8790  -41.6500  -17.6670 C.ar  113  C113        0.0566
   2393  C6       -29.1510  -40.4030  -18.0620 C.ar  113  C113        0.0850
   2394  OP1      -29.9320  -35.5380  -14.4620 O.2   113  C113       -0.5172
   2395  OP2      -29.7260  -37.9850  -13.6720 O.co2 113  C113       -0.4373
   2396  P        -33.9540  -37.6110  -17.6640 P.3   114  C114        0.2141
   2397  C5'      -34.9780  -39.7810  -18.6980 C.3   114  C114        0.1812
   2398  O5'      -34.0570  -39.1920  -17.7940 O.3   114  C114       -0.3114
   2399  C4'      -34.5150  -39.6170  -20.1200 C.3   114  C114        0.1773
   2400  O4'      -33.3650  -40.4780  -20.3470 O.3   114  C114       -0.3307
   2401  C3'      -35.5370  -39.9840  -21.1870 C.3   114  C114        0.1860
   2402  O3'      -35.3290  -39.1430  -22.3270 O.3   114  C114       -0.3112
   2403  C2'      -35.1630  -41.4290  -21.5130 C.3   114  C114        0.2309
   2404  O2'      -35.5990  -41.8810  -22.7780 O.3   114  C114       -0.2156
   2405  C1'      -33.6370  -41.3760  -21.4030 C.3   114  C114        0.2420
   2406  N1       -32.9820  -42.6730  -21.1130 N.ar  114  C114       -0.2535
   2407  C2       -32.6170  -43.0880  -19.8060 C.ar  114  C114        0.3532
   2408  O2       -32.8460  -42.3960  -18.8010 O.2   114  C114       -0.2443
   2409  N3       -32.0140  -44.2890  -19.6340 N.ar  114  C114       -0.1739
   2410  C4       -31.7530  -45.0760  -20.6780 C.ar  114  C114        0.1759
   2411  N4       -31.1560  -46.2480  -20.4370 N.pl3 114  C114       -0.1070
   2412  C5       -32.0940  -44.6880  -22.0080 C.ar  114  C114        0.0566
   2413  C6       -32.6910  -43.4970  -22.1710 C.ar  114  C114        0.0850
   2414  OP1      -35.1870  -37.0460  -18.2580 O.2   114  C114       -0.5172
   2415  OP2      -33.5710  -37.3000  -16.2560 O.co2 114  C114       -0.4373
   2416  P        -36.0230  -37.6890  -22.4040 P.3   115  G115        0.2141
   2417  C5'      -34.1530  -35.8150  -22.3090 C.3   115  G115        0.1812
   2418  O5'      -34.9220  -36.7400  -23.0790 O.3   115  G115       -0.3114
   2419  C4'      -34.8160  -34.4550  -22.2200 C.3   115  G115        0.1773
   2420  O4'      -34.0910  -33.5920  -21.3020 O.3   115  G115       -0.3307
   2421  C3'      -34.8900  -33.6360  -23.5010 C.3   115  G115        0.1860
   2422  O3'      -35.9220  -34.0640  -24.3790 O.3   115  G115       -0.3112
   2423  C2'      -35.0800  -32.2130  -22.9740 C.3   115  G115        0.2309
   2424  O2'      -36.4360  -31.9660  -22.6260 O.3   115  G115       -0.2156
   2425  C1'      -34.2450  -32.2410  -21.6930 C.3   115  G115        0.2408
   2426  N1       -31.7240  -27.9150  -22.5770 N.ar  115  G115       -0.1709
   2427  C2       -33.0760  -28.1190  -22.4180 C.ar  115  G115        0.2606
   2428  N2       -33.8280  -27.0150  -22.5180 N.pl3 115  G115       -0.0859
   2429  N3       -33.6250  -29.3050  -22.1850 N.ar  115  G115       -0.1918
   2430  C4       -32.6910  -30.2880  -22.1250 C.ar  115  G115        0.1723
   2431  C5       -31.3180  -30.1890  -22.2830 C.ar  115  G115        0.1748
   2432  C6       -30.7530  -28.9100  -22.5360 C.ar  115  G115        0.3023
   2433  O6       -29.5760  -28.5980  -22.6940 O.2   115  G115       -0.2633
   2434  N7       -30.7160  -31.4370  -22.1560 N.ar  115  G115       -0.2173
   2435  C8       -31.7030  -32.2640  -21.9320 C.ar  115  G115        0.1817
   2436  N9       -32.9230  -31.6300  -21.8970 N.ar  115  G115       -0.2693
   2437  OP1      -36.2630  -37.2000  -21.0220 O.3   115  G115       -0.4373
   2438  OP2      -37.1830  -37.8200  -23.3250 O.co2 115  G115       -0.5172
   2439  P        -35.7850  -33.8650  -25.9720 P.3   116  A116        0.2141
   2440  C5'      -36.9260  -31.5140  -25.8930 C.3   116  A116        0.1812
   2441  O5'      -35.7590  -32.2800  -26.1590 O.3   116  A116       -0.3114
   2442  C4'      -36.7150  -30.0340  -26.0980 C.3   116  A116        0.1773
   2443  O4'      -35.7450  -29.5080  -25.1520 O.3   116  A116       -0.3307
   2444  C3'      -36.1600  -29.6040  -27.4400 C.3   116  A116        0.1860
   2445  O3'      -37.0900  -29.6700  -28.5030 O.3   116  A116       -0.3112
   2446  C2'      -35.6490  -28.2030  -27.1330 C.3   116  A116        0.2309
   2447  O2'      -36.7170  -27.2740  -27.0350 O.3   116  A116       -0.2156
   2448  C1'      -35.0620  -28.4130  -25.7390 C.3   116  A116        0.2408
   2449  N1       -30.4220  -26.2900  -26.2800 N.ar  116  A116       -0.2040
   2450  C2       -31.6610  -25.7870  -26.2050 C.ar  116  A116        0.2016
   2451  N3       -32.8210  -26.4170  -26.0540 N.ar  116  A116       -0.2048
   2452  C4       -32.6410  -27.7480  -25.9860 C.ar  116  A116        0.1692
   2453  C5       -31.4380  -28.4230  -26.0480 C.ar  116  A116        0.1518
   2454  C6       -30.2770  -27.6330  -26.2000 C.ar  116  A116        0.1919
   2455  N6       -29.0420  -28.1290  -26.2650 N.pl3 116  A116       -0.1054
   2456  N7       -31.6440  -29.7920  -25.9390 N.ar  116  A116       -0.2193
   2457  C8       -32.9500  -29.9110  -25.8220 C.ar  116  A116        0.1816
   2458  N9       -33.6150  -28.7070  -25.8260 N.ar  116  A116       -0.2693
   2459  OP1      -37.0470  -34.3500  -26.5960 O.2   116  A116       -0.5172
   2460  OP2      -34.4940  -34.4610  -26.4050 O.co2 116  A116       -0.4373
   2461  P        -36.5560  -29.8180  -30.0120 P.3   117  A117        0.2141
   2462  C5'      -36.9790  -27.2430  -30.2030 C.3   117  A117        0.1812
   2463  O5'      -36.0980  -28.3400  -30.3920 O.3   117  A117       -0.3114
   2464  C4'      -36.3310  -25.9320  -30.5690 C.3   117  A117        0.1773
   2465  O4'      -35.3780  -25.5190  -29.5480 O.3   117  A117       -0.3307
   2466  C3'      -35.5130  -25.9320  -31.8440 C.3   117  A117        0.1860
   2467  O3'      -36.3000  -25.8930  -33.0200 O.3   117  A117       -0.3112
   2468  C2'      -34.6190  -24.7200  -31.6440 C.3   117  A117        0.2309
   2469  O2'      -35.3730  -23.5230  -31.8070 O.3   117  A117       -0.2156
   2470  C1'      -34.2750  -24.8720  -30.1640 C.3   117  A117        0.2408
   2471  N1       -29.0620  -25.0560  -30.3460 N.ar  117  A117       -0.2040
   2472  C2       -29.9400  -24.0860  -30.6050 C.ar  117  A117        0.2016
   2473  N3       -31.2750  -24.1020  -30.5400 N.ar  117  A117       -0.2048
   2474  C4       -31.7300  -25.3060  -30.1470 C.ar  117  A117        0.1692
   2475  C5       -30.9430  -26.4080  -29.8490 C.ar  117  A117        0.1518
   2476  C6       -29.5450  -26.2510  -29.9600 C.ar  117  A117        0.1919
   2477  N6       -28.6640  -27.2170  -29.7090 N.pl3 117  A117       -0.1054
   2478  N7       -31.7350  -27.4860  -29.4810 N.ar  117  A117       -0.2193
   2479  C8       -32.9630  -27.0150  -29.5650 C.ar  117  A117        0.1816
   2480  N9       -33.0500  -25.6960  -29.9680 N.ar  117  A117       -0.2693
   2481  OP1      -37.6890  -30.1940  -30.8960 O.2   117  A117       -0.5172
   2482  OP2      -35.3310  -30.6610  -29.9830 O.co2 117  A117       -0.4373
   2483  P        -35.8630  -26.7740  -34.2910 P.3   118  G118        0.2141
   2484  C5'      -34.9920  -24.4670  -35.1510 C.3   118  G118        0.1812
   2485  O5'      -34.7810  -25.8570  -35.0030 O.3   118  G118       -0.3114
   2486  C4'      -33.7140  -23.7680  -35.5140 C.3   118  G118        0.1773
   2487  O4'      -32.8740  -23.6380  -34.3380 O.3   118  G118       -0.3307
   2488  C3'      -32.8210  -24.4910  -36.5030 C.3   118  G118        0.1860
   2489  O3'      -33.2330  -24.3790  -37.8460 O.3   118  G118       -0.3112
   2490  C2'      -31.4760  -23.8540  -36.2360 C.3   118  G118        0.2309
   2491  O2'      -31.4420  -22.5450  -36.7870 O.3   118  G118       -0.2156
   2492  C1'      -31.5140  -23.7470  -34.7170 C.3   118  G118        0.2408
   2493  N1       -27.1960  -26.0770  -33.5030 N.ar  118  G118       -0.1709
   2494  C2       -27.4180  -24.8790  -34.1410 C.ar  118  G118        0.2606
   2495  N2       -26.3380  -24.1720  -34.4930 N.pl3 118  G118       -0.0859
   2496  N3       -28.6210  -24.3800  -34.4030 N.ar  118  G118       -0.1918
   2497  C4       -29.5920  -25.2020  -33.9740 C.ar  118  G118        0.1723
   2498  C5       -29.4830  -26.4260  -33.3460 C.ar  118  G118        0.1748
   2499  C6       -28.1930  -26.9470  -33.0780 C.ar  118  G118        0.3023
   2500  O6       -27.9020  -28.0170  -32.5370 O.2   118  G118       -0.2633
   2501  N7       -30.7330  -26.9510  -33.0680 N.ar  118  G118       -0.2173
   2502  C8       -31.5610  -26.0480  -33.5400 C.ar  118  G118        0.1817
   2503  N9       -30.9290  -24.9520  -34.0890 N.ar  118  G118       -0.2693
   2504  OP1      -36.9920  -26.9690  -35.2280 O.2   118  G118       -0.5172
   2505  OP2      -35.1490  -27.9680  -33.7800 O.co2 118  G118       -0.4373
   2506  P        -32.7990  -25.5300  -38.8800 P.3   119  G119        0.2141
   2507  C5'      -30.8170  -23.9970  -39.6260 C.3   119  G119        0.1812
   2508  O5'      -31.2580  -25.2530  -39.1410 O.3   119  G119       -0.3114
   2509  C4'      -29.3270  -24.0060  -39.7860 C.3   119  G119        0.1773
   2510  O4'      -28.7020  -24.0280  -38.4810 O.3   119  G119       -0.3307
   2511  C3'      -28.7780  -25.2370  -40.4820 C.3   119  G119        0.1860
   2512  O3'      -28.8500  -25.1410  -41.8890 O.3   119  G119       -0.3112
   2513  C2'      -27.3620  -25.3120  -39.9540 C.3   119  G119        0.2309
   2514  O2'      -26.5450  -24.3660  -40.6210 O.3   119  G119       -0.2156
   2515  C1'      -27.5600  -24.8590  -38.5120 C.3   119  G119        0.2408
   2516  N1       -25.3600  -28.5110  -35.7880 N.ar  119  G119       -0.1709
   2517  C2       -24.8080  -27.5310  -36.5680 C.ar  119  G119        0.2606
   2518  N2       -23.4790  -27.5450  -36.6120 N.pl3 119  G119       -0.0859
   2519  N3       -25.4980  -26.6180  -37.2370 N.ar  119  G119       -0.1918
   2520  C4       -26.8200  -26.7880  -37.0620 C.ar  119  G119        0.1723
   2521  C5       -27.4870  -27.7360  -36.3140 C.ar  119  G119        0.1748
   2522  C6       -26.7180  -28.7010  -35.6050 C.ar  119  G119        0.3023
   2523  O6       -27.0840  -29.6310  -34.8870 O.2   119  G119       -0.2633
   2524  N7       -28.8690  -27.5430  -36.3960 N.ar  119  G119       -0.2173
   2525  C8       -29.0030  -26.5110  -37.1860 C.ar  119  G119        0.1817
   2526  N9       -27.7930  -26.0080  -37.6200 N.ar  119  G119       -0.2693
   2527  OP1      -33.5210  -25.3490  -40.1610 O.2   119  G119       -0.5172
   2528  OP2      -32.8650  -26.8320  -38.1740 O.co2 119  G119       -0.4373
   2529  P        -29.2090  -26.4330  -42.7690 P.3   120  A120        0.2141
   2530  C5'      -26.6410  -26.7400  -43.1330 C.3   120  A120        0.1812
   2531  O5'      -27.8710  -27.3020  -42.7210 O.3   120  A120       -0.3114
   2532  C4'      -25.4700  -27.5440  -42.6460 C.3   120  A120        0.1773
   2533  O4'      -25.3610  -27.4770  -41.1990 O.3   120  A120       -0.3307
   2534  C3'      -25.5010  -29.0330  -42.9200 C.3   120  A120        0.1860
   2535  O3'      -25.2360  -29.3630  -44.2710 O.3   120  A120       -0.3112
   2536  C2'      -24.4630  -29.5470  -41.9310 C.3   120  A120        0.2309
   2537  O2'      -23.1490  -29.2470  -42.3710 O.3   120  A120       -0.2156
   2538  C1'      -24.7620  -28.6660  -40.7200 C.3   120  A120        0.2408
   2539  N1       -24.9950  -32.1860  -37.0740 N.ar  120  A120       -0.2040
   2540  C2       -23.9980  -31.6610  -37.7790 C.ar  120  A120        0.2016
   2541  N3       -24.0330  -30.7340  -38.7290 N.ar  120  A120       -0.2048
   2542  C4       -25.2870  -30.3150  -38.9250 C.ar  120  A120        0.1692
   2543  C5       -26.4220  -30.7450  -38.2840 C.ar  120  A120        0.1518
   2544  C6       -26.2420  -31.7410  -37.3090 C.ar  120  A120        0.1919
   2545  N6       -27.2320  -32.2640  -36.5900 N.pl3 120  A120       -0.1054
   2546  N7       -27.5360  -30.0680  -38.7710 N.ar  120  A120       -0.2193
   2547  C8       -27.0500  -29.2610  -39.6870 C.ar  120  A120        0.1816
   2548  N9       -25.6880  -29.3550  -39.8100 N.ar  120  A120       -0.2693
   2549  OP1      -29.4200  -25.9600  -44.1640 O.2   120  A120       -0.5172
   2550  OP2      -30.2860  -27.1860  -42.0740 O.co2 120  A120       -0.4373
   2551  P        -25.5140  -30.8560  -44.7990 P.3   121  G121        0.2141
   2552  C5'      -24.1240  -33.0240  -44.3050 C.3   121  G121        0.1812
   2553  O5'      -24.1560  -31.6160  -44.4500 O.3   121  G121       -0.3114
   2554  C4'      -23.1180  -33.4560  -43.2730 C.3   121  G121        0.1773
   2555  O4'      -23.4070  -32.8150  -42.0030 O.3   121  G121       -0.3307
   2556  C3'      -23.1360  -34.9360  -42.9510 C.3   121  G121        0.1860
   2557  O3'      -22.4270  -35.7090  -43.8920 O.3   121  G121       -0.3112
   2558  C2'      -22.5700  -34.9830  -41.5420 C.3   121  G121        0.2309
   2559  O2'      -21.1640  -34.8350  -41.5490 O.3   121  G121       -0.2156
   2560  C1'      -23.1840  -33.7220  -40.9420 C.3   121  G121        0.2408
   2561  N1       -25.8170  -36.2480  -37.3460 N.ar  121  G121       -0.1709
   2562  C2       -24.4740  -36.2770  -37.5670 C.ar  121  G121        0.2606
   2563  N2       -23.7970  -37.0710  -36.7280 N.pl3 121  G121       -0.0859
   2564  N3       -23.8730  -35.5830  -38.5200 N.ar  121  G121       -0.1918
   2565  C4       -24.7540  -34.8550  -39.2540 C.ar  121  G121        0.1723
   2566  C5       -26.1160  -34.7770  -39.1080 C.ar  121  G121        0.1748
   2567  C6       -26.7360  -35.5180  -38.0820 C.ar  121  G121        0.3023
   2568  O6       -27.9360  -35.5700  -37.8090 O.2   121  G121       -0.2633
   2569  N7       -26.6900  -33.9330  -40.0480 N.ar  121  G121       -0.2173
   2570  C8       -25.6860  -33.5090  -40.7520 C.ar  121  G121        0.1817
   2571  N9       -24.4870  -34.0190  -40.3230 N.ar  121  G121       -0.2693
   2572  OP1      -25.6730  -30.8210  -46.2770 O.2   121  G121       -0.5172
   2573  OP2      -26.6070  -31.4310  -43.9700 O.co2 121  G121       -0.4373
   2574  P        -23.1910  -36.8600  -44.7090 P.3   122  A122        0.2141
   2575  C5'      -21.8940  -38.6860  -43.3690 C.3   122  A122        0.1812
   2576  O5'      -23.1410  -38.0960  -43.7070 O.3   122  A122       -0.3114
   2577  C4'      -21.9460  -39.3750  -42.0350 C.3   122  A122        0.1773
   2578  O4'      -22.3910  -38.4220  -41.0370 O.3   122  A122       -0.3307
   2579  C3'      -22.9340  -40.5270  -41.8990 C.3   122  A122        0.1860
   2580  O3'      -22.4650  -41.7570  -42.4240 O.3   122  A122       -0.3112
   2581  C2'      -23.1750  -40.5580  -40.4030 C.3   122  A122        0.2309
   2582  O2'      -22.0510  -41.1150  -39.7310 O.3   122  A122       -0.2156
   2583  C1'      -23.2330  -39.0640  -40.1030 C.3   122  A122        0.2408
   2584  N1       -28.0750  -39.0390  -38.4190 N.ar  122  A122       -0.2040
   2585  C2       -26.9630  -39.6310  -37.9590 C.ar  122  A122        0.2016
   2586  N3       -25.7230  -39.5920  -38.4390 N.ar  122  A122       -0.2048
   2587  C4       -25.6870  -38.8330  -39.5450 C.ar  122  A122        0.1692
   2588  C5       -26.7400  -38.1650  -40.1430 C.ar  122  A122        0.1518
   2589  C6       -27.9930  -38.2840  -39.5340 C.ar  122  A122        0.1919
   2590  N6       -29.0860  -37.6880  -40.0050 N.pl3 122  A122       -0.1054
   2591  N7       -26.3250  -37.4840  -41.2750 N.ar  122  A122       -0.2193
   2592  C8       -25.0450  -37.7510  -41.3340 C.ar  122  A122        0.1816
   2593  N9       -24.5960  -38.5550  -40.3170 N.ar  122  A122       -0.2693
   2594  OP1      -22.3350  -37.1960  -45.8770 O.2   122  A122       -0.5172
   2595  OP2      -24.6080  -36.4710  -44.9530 O.co2 122  A122       -0.4373
   2596  P        -23.4460  -42.6920  -43.2920 P.3   123  A123        0.2141
   2597  C5'      -24.1740  -43.8650  -41.0570 C.3   123  A123        0.1813
   2598  O5'      -24.5450  -43.1630  -42.2410 O.3   123  A123       -0.3114
   2599  C4'      -25.3770  -44.4450  -40.3530 C.3   123  A123        0.1801
   2600  O4'      -26.3880  -43.4090  -40.2250 O.3   123  A123       -0.3306
   2601  C3'      -26.0510  -45.6110  -41.0760 C.3   123  A123        0.2161
   2602  O3'      -26.6160  -46.5040  -40.1170 O.3   123  A123       -0.2175
   2603  C2'      -27.1670  -44.9210  -41.8500 C.3   123  A123        0.2337
   2604  O2'      -28.2550  -45.7560  -42.1920 O.3   123  A123       -0.2155
   2605  C1'      -27.5760  -43.8170  -40.8770 C.3   123  A123        0.2409
   2606  N1       -31.4590  -40.4920  -40.8490 N.ar  123  A123       -0.2040
   2607  C2       -31.1620  -41.5420  -40.0710 C.ar  123  A123        0.2016
   2608  N3       -30.1210  -42.3680  -40.1380 N.ar  123  A123       -0.2048
   2609  C4       -29.3150  -42.0250  -41.1550 C.ar  123  A123        0.1692
   2610  C5       -29.4810  -40.9790  -42.0420 C.ar  123  A123        0.1518
   2611  C6       -30.6220  -40.1780  -41.8640 C.ar  123  A123        0.1919
   2612  N6       -30.9220  -39.1310  -42.6370 N.pl3 123  A123       -0.1054
   2613  N7       -28.4390  -40.9410  -42.9600 N.ar  123  A123       -0.2193
   2614  C8       -27.6800  -41.9510  -42.6120 C.ar  123  A123        0.1816
   2615  N9       -28.1570  -42.6460  -41.5280 N.ar  123  A123       -0.2693
   2616  OP1      -22.6640  -43.8840  -43.7000 O.3   123  A123       -0.4373
   2617  OP2      -24.1220  -41.8820  -44.3380 O.co2 123  A123       -0.5172
@<TRIPOS>BOND
     1  2572  2551    2
     2  2594  2574    2
     3  2595  2574    1
     4  2551  2553    1
     5  2551  2535    1
     6  2551  2573    1
     7  2574  2557    1
     8  2574  2576    1
     9  2553  2552    1
    10  2617  2596    2
    11  2552  2554    1
    12  2535  2534    1
    13  2549  2529    2
    14  2557  2556    1
    15  2576  2575    1
    16  2616  2596    1
    17  2575  2577    1
    18  2596  2580    1
    19  2596  2598    1
    20  2554  2556    1
    21  2554  2555    1
    22  2530  2531    1
    23  2530  2532    1
    24  2613  2614   ar
    25  2613  2610   ar
    26  2556  2558    1
    27  2534  2532    1
    28  2534  2536    1
    29  2529  2531    1
    30  2529  2550    1
    31  2529  2512    1
    32  2532  2533    1
    33  2612  2611    1
    34  2614  2615   ar
    35  2580  2579    1
    36  2537  2536    1
    37  2598  2597    1
    38  2604  2603    1
    39  2610  2611   ar
    40  2610  2609   ar
    41  2577  2579    1
    42  2577  2578    1
    43  2555  2560    1
    44  2536  2538    1
    45  2579  2581    1
    46  2512  2511    1
    47  2611  2606   ar
    48  2603  2601    1
    49  2603  2605    1
    50  2559  2558    1
    51  2558  2560    1
    52  2615  2609   ar
    53  2615  2605    1
    54  2592  2591   ar
    55  2592  2593   ar
    56  2591  2588   ar
    57  2533  2538    1
    58  2609  2608   ar
    59  2601  2599    1
    60  2601  2602    1
    61  2597  2599    1
    62  2578  2583    1
    63  2560  2571    1
    64  2605  2600    1
    65  2606  2607   ar
    66  2570  2571   ar
    67  2570  2569   ar
    68  2538  2548    1
    69  2514  2513    1
    70  2511  2513    1
    71  2511  2509    1
    72  2581  2583    1
    73  2581  2582    1
    74  2599  2600    1
    75  2571  2565   ar
    76  2593  2583    1
    77  2593  2587   ar
    78  2527  2506    2
    79  2588  2587   ar
    80  2588  2589   ar
    81  2608  2607   ar
    82  2569  2566   ar
    83  2590  2589    1
    84  2513  2515    1
    85  2548  2547   ar
    86  2548  2542   ar
    87  2509  2507    1
    88  2509  2510    1
    89  2547  2546   ar
    90  2507  2508    1
    91  2587  2586   ar
    92  2589  2584   ar
    93  2565  2566   ar
    94  2565  2564   ar
    95  2508  2506    1
    96  2566  2567   ar
    97  2542  2541   ar
    98  2542  2543   ar
    99  2506  2528    1
   100  2506  2489    1
   101  2546  2543   ar
   102  2541  2540   ar
   103  2564  2562   ar
   104  2515  2510    1
   105  2515  2526    1
   106  2586  2585   ar
   107  2584  2585   ar
   108  2543  2544   ar
   109  2567  2568    2
   110  2567  2561   ar
   111  2489  2488    1
   112  2540  2539   ar
   113  2526  2525   ar
   114  2526  2520   ar
   115  2562  2561   ar
   116  2562  2563    1
   117  2544  2539   ar
   118  2544  2545    1
   119  2519  2520   ar
   120  2519  2517   ar
   121  2525  2524   ar
   122  2087  2086    1
   123  2520  2521   ar
   124   297   276    2
   125  2491  2490    1
   126   277   279    1
   127   277   278    1
   128   510   459    1
   129  2518  2517    1
   130  2517  2516   ar
   131  2102  2104    1
   132  2102  2103    1
   133  2488  2490    1
   134  2488  2486    1
   135   722   721    1
   136   279   280    1
   137   279   281    1
   138   459   480    1
   139  2524  2521   ar
   140   319   299    2
   141  2121  2101    2
   142  2521  2522   ar
   143   706   705    2
   144  2490  2492    1
   145   284   283    1
   146  2104  2105    1
   147  2104  2106    1
   148   535   514    2
   149   702   701    1
   150  1590  1589    2
   151  2085  2084    1
   152  2085  2101    1
   153  1610  1609    2
   154   264   263    1
   155   262   276    1
   156   262   261    1
   157   280   285    1
   158   282   281    1
   159   282   299    1
   160  2082  2083    1
   161  2082  2084    1
   162  2082  2080    1
   163  2086  2088    1
   164  2086  2084    1
   165  2516  2522   ar
   166   451   449    1
   167   496   494    1
   168  2083  2088    1
   169   717   718    1
   170   717   715    1
   171   717   719    1
   172   450   448    1
   173   276   278    1
   174   276   298    1
   175  2105  2110    1
   176  2522  2523    2
   177  2107  2106    1
   178  2107  2123    1
   179  2088  2098    1
   180   718   723    1
   181  2486  2484    1
   182  2486  2487    1
   183  2109  2108    1
   184   682   683   ar
   185   682   687   ar
   186   480   461    2
   187   281   283    1
   188   446   457    1
   189   446   455    1
   190  2101  2103    1
   191  2101  2122    1
   192  1570  1569    2
   193  1571  1569   ar
   194  1571  1572   ar
   195   720   719    1
   196   720   734    1
   197  1573  1572    1
   198   299   301    1
   199   299   320    1
   200  2141  2123    2
   201  1589  1591   ar
   202  1589  1588   ar
   203  1591  1592   ar
   204  2504  2483    2
   205   491   514    1
   206   491   490    1
   207   457   455    1
   208   721   723    1
   209   721   719    1
   210   683   684   ar
   211   723   724    1
   212  2484  2485    1
   213   512   463    2
   214   715   716    1
   215   283   285    1
   216  2106  2108    1
   217  1609  1611   ar
   218  1609  1608   ar
   219   511   481    2
   220   285   296    1
   221   495   493    1
   222   705   707   ar
   223   705   704   ar
   224   449   453    1
   225   449   445    1
   226  2485  2483    1
   227   259   261    1
   228   259   257    1
   229   259   260    1
   230   301   300    1
   231  2080  2081    1
   232   701   703    1
   233   701   699    1
   234   514   516    1
   235   514   536    1
   236  1611  1612   ar
   237   752   734    2
   238   261   263    1
   239   486   487    1
   240   688   687    1
   241   515   516    1
   242   515   517    1
   243   703   704    1
   244   703   698    1
   245  2492  2487    1
   246  2492  2503    1
   247  1569  1568   ar
   248  2123  2142    1
   249  2123  2125    1
   250   263   265    1
   251  1606  1605    1
   252  2110  2108    1
   253  2110  2120    1
   254  1572  1574   ar
   255  1607  1608    1
   256  1607  1602    1
   257  1607  1605    1
   258   482   484    1
   259   482   487    1
   260   447   481    1
   261   447   445    1
   262   257   258    1
   263  1630  1629    2
   264  1593  1592    2
   265   707   708   ar
   266  2495  2494    1
   267  2091  2092   ar
   268  2091  2090   ar
   269   687   686   ar
   270  1592  1594   ar
   271   494   493    1
   272   494   497    1
   273  2496  2494   ar
   274  2496  2497   ar
   275   735   737    1
   276   735   736    1
   277  1588  1587    1
   278  1588  1595   ar
   279  1587  1582    1
   280  1587  1585    1
   281   448   444    1
   282   448   452    1
   283  2483  2505    1
   284  2483  2467    1
   285  1608  1615   ar
   286   260   265    1
   287  1602  1601    1
   288   444   455    1
   289   444   440    1
   290   488   498    1
   291   488   489    1
   292  2098  2092   ar
   293  2098  2097   ar
   294   734   736    1
   295   734   753    1
   296   726   725    2
   297   704   711   ar
   298   455   467    1
   299   487   483    1
   300  2494  2493   ar
   301   265   266    1
   302   440   442    1
   303   440   436    1
   304  2503  2497   ar
   305  2503  2502   ar
   306  1622  1627    1
   307  1622  1621    1
   308   453   475    1
   309   453   443    1
   310  1586  1585    1
   311   684   685   ar
   312  1627  1628    1
   313  1627  1625    1
   314   481   485    1
   315   481   513    1
   316   445   441    1
   317  2497  2498   ar
   318  1626  1625    1
   319   555   537    2
   320   401   398    2
   321   485   483    1
   322   700   699    1
   323   700   714    1
   324  1612  1613    1
   325  1612  1614   ar
   326   517   518    1
   327   517   519    1
   328  1605  1603    1
   329   724   725   ar
   330   724   731   ar
   331   698   697    1
   332   463   475   am
   333   463   465    1
   334  1629  1628   ar
   335  1629  1631   ar
   336   244   243    1
   337  2092  2093   ar
   338   716   714    1
   339   300   302    1
   340   699   697    1
   341   497   509    1
   342   737   738    1
   343   737   739    1
   344   296   295   ar
   345   296   290   ar
   346  2081  2079    1
   347  2090  2089   ar
   348  1582  1581    1
   349   302   304    1
   350   302   303    1
   351   452   442    1
   352   452   474    1
   353   305   304    1
   354  2502  2501   ar
   355  1585  1583    1
   356  1595  1594   ar
   357  2493  2499   ar
   358  1628  1635   ar
   359   436   438    1
   360   738   743    1
   361   725   727   ar
   362   268   267    2
   363  1568  1567    1
   364  1568  1575   ar
   365  2498  2499   ar
   366  2498  2501   ar
   367  2120  2119   ar
   368  2120  2114   ar
   369   697   695    1
   370   475   473    1
   371  1631  1632   ar
   372   438   434    1
   373   391   386    1
   374  1615  1614   ar
   375  2125  2124    1
   376  1601  1603    1
   377  1601  1599    1
   378  1574  1575   ar
   379  1621  1619    1
   380  1621  1623    1
   381   341   343   ar
   382   341   351   ar
   383   258   256    1
   384   520   537    1
   385   520   519    1
   386   708   709    1
   387   708   710   ar
   388   518   523    1
   389   686   685   ar
   390   686   689   ar
   391   289   290   ar
   392   289   287   ar
   393  1625  1623    1
   394  2099  2079    2
   395   732   714    2
   396  2124  2126    1
   397   443   441    1
   398  2097  2096   ar
   399  2499  2500    2
   400   441   437    1
   401   685   691   ar
   402   458   456    1
   403   731   730   ar
   404  2467  2466    1
   405   274   256    2
   406   714   733    1
   407  2119  2118   ar
   408   295   294   ar
   409   353   351    1
   410   304   306    1
   411   537   556    1
   412   537   539    1
   413   303   308    1
   414   460   456   ar
   415   460   462   ar
   416   467   465    1
   417   467   469    2
   418   711   710   ar
   419   290   291   ar
   420   343   345   ar
   421   398   404    1
   422   398   395    1
   423   519   521    1
   424   266   267   ar
   425   266   273   ar
   426   465   471    1
   427  1567  1565    1
   428  1567  1562    1
   429   404   407    1
   430  1635  1634   ar
   431  1603  1604    1
   432  1619  1620    1
   433  2079  2065    1
   434  2079  2100    1
   435  1632  1634   ar
   436  1632  1633    1
   437   351   349   ar
   438   243   245    1
   439   243   241    1
   440  2065  2064    1
   441   267   269   ar
   442   242   256    1
   443   242   241    1
   444  1581  1583    1
   445  1581  1579    1
   446  2093  2096   ar
   447  2093  2094   ar
   448   248   247    2
   449   288   287    1
   450   256   275    1
   451   476   434    2
   452  2089  2094   ar
   453  1599  1600    1
   454   509   507    2
   455   508   503    1
   456  1642  1647    1
   457  1642  1641    1
   458   740   739    1
   459   740   754    1
   460   739   741    1
   461  1623  1624    1
   462   456   454   ar
   463  2114  2113   ar
   464  2114  2115   ar
   465   522   521    1
   466   743   741    1
   467   743   744    1
   468   742   741    1
   469  2113  2112   ar
   470   474   462   ar
   471   474   472   ar
   472   386   394    1
   473   727   728   ar
   474   287   286   ar
   475  1583  1584    1
   476   388   380    3
   477  2067  2066    1
   478  1650  1649    2
   479  1565  1566    1
   480  1565  1563    1
   481   434   478    1
   482   434   385    1
   483   473   471    2
   484  1647  1648    1
   485  1647  1645    1
   486  1604  1618    1
   487   462   464   ar
   488   523   521    1
   489   523   534    1
   490   689   690   ar
   491   695   696    1
   492  1620  1618    1
   493   502   503   ar
   494   502   500   ar
   495  2466  2468    1
   496  2466  2464    1
   497  2126  2127    1
   498  2126  2128    1
   499   308   306    1
   500   308   318    1
   501   730   728   ar
   502  2469  2468    1
   503  1646  1645    1
   504   691   681    1
   505   691   690   ar
   506   392   379    1
   507  1624  1638    1
   508  2127  2132    1
   509  2118  2115   ar
   510   345   347   ar
   511   245   240    1
   512   245   246    1
   513   294   291   ar
   514  1600  1598    1
   515   395   413   am
   516   273   272   ar
   517   241   239    1
   518  2094  2095    1
   519  1562  1561    1
   520   437   439    1
   521  2468  2470    1
   522   291   292   ar
   523   539   538    1
   524  1641  1639    1
   525  1641  1643    1
   526   394   425    2
   527   503   504   ar
   528   507   506    1
   529   306   307    1
   530   478   423    1
   531   538   540    1
   532  1649  1648   ar
   533  1649  1651   ar
   534   728   729    1
   535   751   744   ar
   536   751   750   ar
   537   407   427    2
   538  2140  2139   ar
   539  2140  2133   ar
   540  1579  1580    1
   541   362   322    1
   542  1648  1655   ar
   543   385   383    1
   544   349   347   ar
   545   349   355   ar
   546  1639  1640    1
   547  1584  1598    1
   548   477   435    2
   549  2139  2137   ar
   550  2115  2116   ar
   551   774   754    2
   552   679   680    1
   553   679   681    1
   554   679   677    1
   555   744   745   ar
   556   390   387    1
   557   239   240    1
   558   239   237    1
   559   424   410    2
   560   247   246   ar
   561   247   249   ar
   562  2064  2062    1
   563  2064  2066    1
   564   681   676    1
   565   533   534   ar
   566   533   532   ar
   567   269   270   ar
   568   696   694    1
   569  2062  2060    1
   570  2062  2063    1
   571  2112  2111   ar
   572   472   470   ar
   573   754   775    1
   574   754   756    1
   575  1645  1643    1
   576   347   359   ar
   577   501   500    1
   578   382   383    1
   579   382   374    2
   580  1618  1636    2
   581  1618  1637    1
   582   454   466   ar
   583  1580  1578    1
   584  2481  2461    2
   585   364   322    1
   586   286   292   ar
   587  1651  1652   ar
   588   534   528   ar
   589   377   376    1
   590  2066  2068    1
   591   500   499   ar
   592   439   435    1
   593   427   422    1
   594  2060  2061    1
   595   318   317   ar
   596   318   312   ar
   597   246   253   ar
   598  1655  1654   ar
   599  2472  2473   ar
   600  2472  2471   ar
   601  1563  1561    1
   602  1563  1564    1
   603   464   470   ar
   604   464   466   ar
   605  2464  2462    1
   606  2464  2465    1
   607  2128  2129    1
   608  2128  2130    1
   609  2473  2474   ar
   610   387   381    1
   611   387   393    1
   612   292   293    2
   613  1598  1617    2
   614  1598  1616    1
   615   750   748   ar
   616   661   660    1
   617   322   326    1
   618  1640  1638    1
   619   272   270   ar
   620  1643  1644    1
   621  2463  2462    1
   622  2463  2461    1
   623  2132  2133    1
   624  2132  2130    1
   625   317   316   ar
   626  1561  1559    1
   627   384   435    1
   628   384   381    1
   629   361   321    1
   630  2471  2476   ar
   631   413   421   am
   632   413   416    2
   633   506   504    1
   634   504   505   ar
   635   355   357   ar
   636   435   479    1
   637   249   250   ar
   638   323   325    1
   639   323   327    1
   640  2133  2134   ar
   641  1638  1656    2
   642  1638  1657    1
   643   410   412    1
   644  2129  2143    1
   645  1652  1654   ar
   646  1652  1653    2
   647  2470  2480    1
   648  2470  2465    1
   649   270   271    1
   650  2474  2480   ar
   651  2474  2475   ar
   652   423   420   ar
   653   423   426   ar
   654   579   557    2
   655   745   746    2
   656   745   747   ar
   657   532   529   ar
   658   540   541    1
   659   540   542    1
   660  2116  2111   ar
   661  2116  2117    1
   662  2063  2068    1
   663  2162  2143    2
   664  2137  2138    1
   665  2137  2136   ar
   666  2461  2482    1
   667  2461  2445    1
   668   329   327    1
   669   329   339    1
   670  2480  2479   ar
   671   466   468    2
   672   677   678    1
   673   677   675    1
   674  2476  2475   ar
   675  2476  2477    1
   676   325   321    1
   677  2068  2069    1
   678   237   238    1
   679   363   321    1
   680   312   311   ar
   681   312   313   ar
   682   311   310   ar
   683  2475  2478   ar
   684   756   755    1
   685  1644  1658    1
   686   359   357   ar
   687   359   339    1
   688   676   675    1
   689   420   411   ar
   690  1560  1559    1
   691  1560  1558    1
   692   381   375    1
   693  1564  1578    1
   694   499   505   ar
   695  2479  2478   ar
   696   422   409    1
   697   578   557    1
   698   694   678    1
   699   694   713    2
   700   694   712    1
   701  2130  2131    1
   702  2047  2046    1
   703   528   529   ar
   704   528   527   ar
   705  1578  1597    2
   706  1578  1596    1
   707  2061  2059    1
   708   541   546    1
   709   409   419    1
   710   409   406    1
   711   393   426    1
   712   393   378    1
   713  2143  2161    1
   714  2143  2145    1
   715   327   331    1
   716   253   252   ar
   717   316   313   ar
   718   748   747   ar
   719   748   749    1
   720   543   557    1
   721   543   542    1
   722   557   559    1
   723  2077  2059    2
   724   370   371    2
   725   660   659   ar
   726   660   662   ar
   727   426   408   ar
   728   542   544    1
   729   782   781    1
   730   339   335    1
   731   529   530   ar
   732  2134  2136   ar
   733  2134  2135    2
   734   755   757    1
   735   326   324    1
   736   313   314   ar
   737   554   553   ar
   738   554   547   ar
   739   250   252   ar
   740   250   251    1
   741   675   673    1
   742  2051  2050    2
   743   659   665   ar
   744  2071  2070    2
   745   238   236    1
   746  1576  1558    2
   747   310   309   ar
   748   553   551   ar
   749   527   525   ar
   750   228   227    2
   751   406   400    1
   752  2046  2044    1
   753  2046  2048    1
   754  1558  1577    1
   755  1558  1542    1
   756  2059  2045    1
   757  2059  2078    1
   758  2445  2444    1
   759  2069  2070   ar
   760  2069  2076   ar
   761   375   378    1
   762   375   369    1
   763  2045  2044    1
   764   411   408   ar
   765   411   414   ar
   766  1662  1667    1
   767  1662  1661    1
   768   662   663   ar
   769  1658  1676    2
   770  1658  1677    1
   771  1658  1660    1
   772   781   779    1
   773   781   783    1
   774   224   223    1
   775  2070  2072   ar
   776   546   547    1
   777   546   544    1
   778   758   757    1
   779   758   763    1
   780   408   405   ar
   781   335   331    1
   782   335   337    1
   783   314   309   ar
   784   314   315    1
   785   331   333    1
   786  2145  2144    1
   787  2050  2052   ar
   788  2050  2049   ar
   789   547   548   ar
   790   415   418    2
   791   415   397   am
   792  1659  1660    1
   793  1659  1661    1
   794   757   759    1
   795   673   674    1
   796   324   328    1
   797   544   545    1
   798   779   777    1
   799   779   780    1
   800   559   558    1
   801   772   771   ar
   802   772   773   ar
   803  2044  2042    1
   804  2159  2160   ar
   805  2159  2157   ar
   806   254   236    2
   807   665   666    2
   808   665   664   ar
   809  1667  1668    1
   810  1667  1665    1
   811   530   531    2
   812   530   524   ar
   813  2052  2053   ar
   814  2076  2075   ar
   815  1661  1663    1
   816  2048  2049    1
   817  2048  2043    1
   818  2158  2157    1
   819   551   552    1
   820   551   550   ar
   821   771   768   ar
   822  1668  1675   ar
   823  1668  1669   ar
   824   417   414    2
   825   236   255    1
   826   236   222    1
   827   227   229   ar
   828   227   226   ar
   829   525   524   ar
   830   525   526    1
   831  2444  2446    1
   832  2444  2442    1
   833  1675  1674   ar
   834   643   642    2
   835   400   397    1
   836   400   403    2
   837   777   778    1
   838   414   396   ar
   839  1670  1669    2
   840  2028  2027    1
   841   223   225    1
   842   223   221    1
   843  1669  1671   ar
   844  1542  1541    1
   845   229   230   ar
   846   369   372    1
   847  1674  1672   ar
   848  2144  2146    1
   849  2160  2153   ar
   850   328   330    1
   851   328   332    1
   852  2446  2447    1
   853  2446  2448    1
   854  1671  1672   ar
   855  2049  2056   ar
   856   663   664   ar
   857   663   669   ar
   858   333   365    1
   859  1672  1673    2
   860   367   431    2
   861   367   428    1
   862   674   672    1
   863   784   783    1
   864   107    86    2
   865  2157  2156   ar
   866   330   340    1
   867   773   763    1
   868   773   767   ar
   869   783   785    1
   870   405   399   ar
   871   763   761    1
   872  2072  2073   ar
   873   558   560    1
   874   575   576   ar
   875   575   572   ar
   876  2026  2027   ar
   877  2026  2032   ar
   878   664   667   ar
   879   222   221    1
   880  2042  2043    1
   881  2042  2040    1
   882   548   550   ar
   883   548   549    2
   884  2178  2177    2
   885   372   366    1
   886   780   785    1
   887  2459  2439    2
   888   657   656    1
   889  1666  1665    1
   890   225   226    1
   891   225   220    1
   892   759   760    1
   893   759   761    1
   894  2053  2054    1
   895  2053  2055   ar
   896   636   642   ar
   897   636   637   ar
   898  2027  2029   ar
   899   576   577   ar
   900  2460  2439    1
   901    84    66    2
   902   642   641   ar
   903   768   767   ar
   904   768   769   ar
   905  2033  2032    2
   906   226   233   ar
   907  1665  1663    1
   908   656   658    1
   909   656   654    1
   910  2075  2073   ar
   911   108    86    1
   912  2449  2450   ar
   913  2449  2454   ar
   914   221   219    1
   915  2455  2454    1
   916   785   796    1
   917  2450  2451   ar
   918  2454  2453   ar
   919   396   399   ar
   920  1663  1664    1
   921  2441  2439    1
   922  2441  2440    1
   923  2147  2146    1
   924  2147  2152    1
   925  2442  2440    1
   926  2442  2443    1
   927   574   573    2
   928   344   346   ar
   929   344   342   ar
   930   602   580    2
   931  2451  2452   ar
   932  2453  2452   ar
   933  2453  2456   ar
   934   778   776    1
   935   346   348   ar
   936   230   231    1
   937   230   232   ar
   938    86    72    1
   939    86    88    1
   940   767   766   ar
   941  2032  2031   ar
   942  1541  1539    1
   943  1541  1543    1
   944  2452  2458   ar
   945  2439  2422    1
   946   399   402    1
   947  2056  2055   ar
   948  2456  2457   ar
   949   669   658    1
   950   669   668   ar
   951  2146  2148    1
   952   760   776    1
   953  2153  2152    1
   954  2153  2154   ar
   955   770   769    1
   956  2073  2074    2
   957  2458  2457   ar
   958  2458  2448    1
   959   332   334    1
   960   332   336    1
   961   658   653    1
   962   693   672    2
   963    72    71    1
   964   761   762    1
   965  2448  2443    1
   966   638   637    1
   967  2156  2154   ar
   968   334   366    1
   969   769   764   ar
   970   620   619    2
   971   342   352   ar
   972   672   655    1
   973   672   692    1
   974  2177  2179   ar
   975  2177  2176   ar
   976   572   573   ar
   977   572   571   ar
   978  1544  1543    1
   979   340   360    1
   980   340   336    1
   981  2182  2163    2
   982  1539  1540    1
   983  1539  1537    1
   984   637   639   ar
   985   560   561    1
   986   560   562    1
   987   667   668   ar
   988   348   360   ar
   989   348   350   ar
   990   366   429    2
   991   366   432    1
   992  2179  2180   ar
   993  2029  2030   ar
   994  2040  2041    1
   995   797   776    2
   996   561   566    1
   997   573   567   ar
   998   220   219    1
   999  1664  1678    1
  1000    67    68    1
  1001    67    69    1
  1002  2152  2150    1
  1003   219   217    1
  1004   776   798    1
  1005  2148  2149    1
  1006  2148  2150    1
  1007   360   358   ar
  1008  2154  2155    2
  1009   655   654    1
  1010   654   652    1
  1011   233   232   ar
  1012   577   571   ar
  1013   577   566    1
  1014   641   644   ar
  1015   641   640   ar
  1016  1543  1545    1
  1017   562   563    1
  1018   562   564    1
  1019  2041  2039    1
  1020   766   765   ar
  1021    66    68    1
  1022    66    52    1
  1023    66    85    1
  1024   352   350   ar
  1025   352   354    1
  1026   580   601    1
  1027   580   563    1
  1028   580   582    1
  1029  1545  1540    1
  1030  1545  1555    1
  1031  1548  1547   ar
  1032  1548  1549   ar
  1033   336   338    1
  1034   350   356   ar
  1035  2031  2030   ar
  1036  2031  2034   ar
  1037   796   795   ar
  1038   796   790   ar
  1039   127   109    2
  1040  2198  2197    1
  1041    69    71    1
  1042    69    70    1
  1043   764   765   ar
  1044    88    87    1
  1045  2030  2036   ar
  1046   644   645   ar
  1047  2220  2219    2
  1048  1537  1538    1
  1049    71    73    1
  1050  1547  1546   ar
  1051    52    51    1
  1052    87    89    1
  1053   571   570   ar
  1054   358   356   ar
  1055  2176  2174   ar
  1056  2149  2163    1
  1057   597   596    2
  1058   653   652    1
  1059   619   613   ar
  1060   619   618   ar
  1061   566   564    1
  1062  2422  2421    1
  1063  1556  1536    2
  1064  2241  2240    1
  1065  2163  2181    1
  1066  2163  2165    1
  1067  2150  2151    1
  1068   789   790   ar
  1069   789   787   ar
  1070   639   640   ar
  1071   180   179    1
  1072  2180  2173   ar
  1073  2239  2240   ar
  1074  2239  2237   ar
  1075   598   599   ar
  1076   598   595   ar
  1077   640   646   ar
  1078  1682  1687    1
  1079  1682  1681    1
  1080   214   194    2
  1081   652   650    1
  1082   795   794   ar
  1083    74    73    1
  1084   567   568   ar
  1085   790   791   ar
  1086   564   565    1
  1087   175   173    1
  1088   175   176    1
  1089   175   177    1
  1090   178   177    1
  1091   178   194    1
  1092  2238  2237    2
  1093   217   218    1
  1094   613   614   ar
  1095  2034  2035   ar
  1096  2213  2219   ar
  1097  2213  2214   ar
  1098  1549  1555   ar
  1099  1549  1550   ar
  1100  1555  1554   ar
  1101   621   618   ar
  1102   621   622   ar
  1103  1678  1697    2
  1104  1678  1680    1
  1105  1678  1696    1
  1106    54    53    1
  1107   582   581    1
  1108  2219  2218   ar
  1109  1557  1536    1
  1110  2240  2242   ar
  1111   173   174    1
  1112   109    92    1
  1113   109   128    1
  1114   109   111    1
  1115  2421  2423    1
  1116  2421  2419    1
  1117  2039  2058    2
  1118  2039  2057    1
  1119  2039  2022    1
  1120  1538  1536    1
  1121   618   617   ar
  1122  1694  1695   ar
  1123  1694  1692   ar
  1124  1695  1688   ar
  1125  1693  1692    1
  1126    73    75    1
  1127  1692  1691   ar
  1128  1688  1689   ar
  1129  1688  1687    1
  1130  1689  1690    2
  1131  1689  1691   ar
  1132  1687  1685    1
  1133  1536  1522    1
  1134  1679  1680    1
  1135  1679  1681    1
  1136   599   600   ar
  1137    89    91    1
  1138    89    90    1
  1139  2036  2035   ar
  1140  2036  2025    1
  1141   596   595   ar
  1142   596   590   ar
  1143   176   181    1
  1144  2023  2024    1
  1145  2023  2025    1
  1146  2023  2021    1
  1147  2438  2416    2
  1148   645   646   ar
  1149  2237  2236   ar
  1150  2197  2199   ar
  1151  2197  2196   ar
  1152    92    91    1
  1153  1546  1551   ar
  1154   788   787    1
  1155    70    75    1
  1156  2174  2173   ar
  1157  2174  2175    2
  1158   595   594   ar
  1159   570   568   ar
  1160  2165  2164    1
  1161  1681  1683    1
  1162   787   786   ar
  1163    51    53    1
  1164    51    49    1
  1165  2215  2214    1
  1166   177   179    1
  1167   625   603    2
  1168  2418  2416    1
  1169  2418  2417    1
  1170  2173  2172    1
  1171  1535  1516    2
  1172   194   196    1
  1173   194   215    1
  1174   195   196    1
  1175   195   197    1
  1176  2423  2424    1
  1177  2423  2425    1
  1178   646   635    1
  1179   179   181    1
  1180   568   569    1
  1181   218   216    1
  1182  2404  2403    1
  1183   651   650    1
  1184   651   649    1
  1185   181   191    1
  1186  2199  2200   ar
  1187  2214  2216   ar
  1188    53    55    1
  1189    49    47    1
  1190    49    50    1
  1191  2433  2432    2
  1192  2022  2021    1
  1193   794   791   ar
  1194  2025  2020    1
  1195    91    93    1
  1196  1534  1516    1
  1197  2021  2019    1
  1198   791   792   ar
  1199  2196  2194   ar
  1200  2426  2432   ar
  1201  2426  2427   ar
  1202  1514  1496    2
  1203  2432  2431   ar
  1204  2428  2427    1
  1205   622   623   ar
  1206    75    76    1
  1207    47    48    1
  1208   614   615    1
  1209   614   616   ar
  1210  2427  2429   ar
  1211  1550  1551   ar
  1212  1550  1553   ar
  1213  2416  2402    1
  1214  2416  2437    1
  1215    90    95    1
  1216  1554  1553   ar
  1217  2402  2401    1
  1218   581   583    1
  1219  2417  2419    1
  1220  1494  1473    2
  1221  2431  2434   ar
  1222  2431  2430   ar
  1223   147   129    2
  1224   111   110    1
  1225  2419  2420    1
  1226  1551  1552    1
  1227  2218  2221   ar
  1228  2218  2217   ar
  1229  2429  2430   ar
  1230  2413  2412   ar
  1231  2413  2406   ar
  1232  1516  1518    1
  1233  1516  1502    1
  1234  2434  2435   ar
  1235   590   591   ar
  1236   617   616   ar
  1237   617   623   ar
  1238  2430  2436   ar
  1239   174   172    1
  1240   193   172    2
  1241  2242  2243   ar
  1242   600   594   ar
  1243   600   589    1
  1244   197   198    1
  1245   197   199    1
  1246  2412  2410   ar
  1247  2037  2016    2
  1248  1686  1685    1
  1249  1685  1683    1
  1250  2164  2166    1
  1251  1471  1450    2
  1252  2236  2243   ar
  1253  2236  2235    1
  1254  2435  2436   ar
  1255  1522  1521    1
  1256   594   593   ar
  1257  2436  2425    1
  1258  2167  2172    1
  1259  2167  2166    1
  1260   671   649    2
  1261   786   792   ar
  1262  1518  1517    1
  1263   148   129    1
  1264  1515  1496    1
  1265   648   626    2
  1266  1683  1684    1
  1267  2172  2170    1
  1268   603   624    1
  1269   603   605    1
  1270   603   586    1
  1271  2425  2420    1
  1272   192   172    1
  1273   633   635    1
  1274   633   631    1
  1275   633   634    1
  1276   110   112    1
  1277  1531  1530    2
  1278   635   630    1
  1279  2221  2222   ar
  1280  2388  2387    2
  1281    64    46    2
  1282    83    76   ar
  1283    83    82   ar
  1284   623   612    1
  1285  2403  2405    1
  1286  2403  2401    1
  1287   172   155    1
  1288  1496  1498    1
  1289  1496  1479    1
  1290  1521  1523    1
  1291  1521  1519    1
  1292   649   632    1
  1293   649   670    1
  1294    50    55    1
  1295  2216  2217   ar
  1296   792   793    2
  1297   584   583    1
  1298   584   589    1
  1299    48    46    1
  1300  2200  2193   ar
  1301    94    93    1
  1302    76    77   ar
  1303   200   216    1
  1304   200   199    1
  1305  2405  2406    1
  1306  2405  2400    1
  1307    55    56    1
  1308  1532  1530   ar
  1309  1532  1533   ar
  1310   216   235    2
  1311   216   234    1
  1312   129   115    1
  1313   129   131    1
  1314  2202  2183    2
  1315  2020  2019    1
  1316   166   165    2
  1317   191   190   ar
  1318   191   185   ar
  1319   585   583    1
  1320   585   586    1
  1321   585   587    1
  1322    93    95    1
  1323   198   203    1
  1324  2217  2223   ar
  1325  2194  2193   ar
  1326  2194  2195    2
  1327  1530  1529   ar
  1328  2234  2233    1
  1329  2166  2168    1
  1330  2401  2399    1
  1331   631   632    1
  1332   631   629    1
  1333  2019  2017    1
  1334  1495  1473    1
  1335  2235  2233    1
  1336  2235  2230    1
  1337   171   149    2
  1338   605   604    1
  1339  2168  2170    1
  1340  2168  2169    1
  1341  2406  2407   ar
  1342    95   106    1
  1343  1473  1475    1
  1344  1473  1456    1
  1345  2384  2383    1
  1346  1517  1519    1
  1347   105   106   ar
  1348   105   104   ar
  1349   199   201    1
  1350   589   587    1
  1351  2233  2231    1
  1352   591   593   ar
  1353   591   592    1
  1354  1533  1526   ar
  1355   115   114    1
  1356  2170  2171    1
  1357  2016  2038    1
  1358  2016  2018    1
  1359  2016  2000    1
  1360  1684  1698    1
  1361   184   185   ar
  1362   184   183   ar
  1363  1502  1501    1
  1364   628   626    1
  1365   628   627    1
  1366  1498  1497    1
  1367  1523  1524    1
  1368  1523  1525    1
  1369  2018  2017    1
  1370  2193  2192    1
  1371  2410  2411    1
  1372  2410  2409   ar
  1373   630   629    1
  1374  1529  1527   ar
  1375  1450  1472    1
  1376  1450  1452    1
  1377  1450  1433    1
  1378   190   189   ar
  1379    46    30    1
  1380    46    65    1
  1381   167   164   ar
  1382   167   168   ar
  1383    82    80   ar
  1384   165   164   ar
  1385   165   159   ar
  1386   185   186   ar
  1387  1519  1520    1
  1388   626   647    1
  1389   626   609    1
  1390   587   588    1
  1391   106   100   ar
  1392   932   911    2
  1393  1479  1478    1
  1394  2387  2389   ar
  1395  2387  2386   ar
  1396  2400  2399    1
  1397  1526  1527   ar
  1398  1526  1525    1
  1399    77    78    2
  1400    77    79   ar
  1401  2222  2223   ar
  1402   112   114    1
  1403   112   113    1
  1404    32    31    1
  1405   104   101   ar
  1406   114   116    1
  1407  1475  1474    1
  1408    58    57    2
  1409  1715  1714    2
  1410    56    57   ar
  1411    56    63   ar
  1412  1497  1499    1
  1413  1527  1528    2
  1414  2169  2183    1
  1415   164   163   ar
  1416  1716  1717   ar
  1417  1716  1713   ar
  1418  1501  1499    1
  1419  1501  1503    1
  1420  2399  2397    1
  1421   629   627    1
  1422   170   149    1
  1423   612   610    1
  1424   612   607    1
  1425    30    29    1
  1426  1456  1455    1
  1427  2183  2201    1
  1428  2183  2185    1
  1429  1451  1452    1
  1430  1451  1453    1
  1431  2223  2212    1
  1432   131   130    1
  1433  1717  1718   ar
  1434   608   610    1
  1435   608   609    1
  1436   608   606    1
  1437   149   151    1
  1438   149   135    1
  1439  2383  2385    1
  1440  2383  2381    1
  1441  1714  1713   ar
  1442  1714  1708   ar
  1443   203   201    1
  1444   203   213    1
  1445  2389  2390   ar
  1446   168   169   ar
  1447   155   154    1
  1448  1713  1712   ar
  1449  1448  1427    2
  1450  2230  2229    1
  1451   610   611    1
  1452   159   160   ar
  1453  2385  2386    1
  1454  2385  2380    1
  1455  1525  1520    1
  1456  2407  2409   ar
  1457  2407  2408    2
  1458   607   606    1
  1459  1474  1476    1
  1460  1433  1432    1
  1461    57    59   ar
  1462   604   606    1
  1463   183   182   ar
  1464   201   202    1
  1465  1718  1712   ar
  1466  1718  1707    1
  1467  1702  1707    1
  1468  1702  1701    1
  1469  1708  1709   ar
  1470  1712  1711   ar
  1471   151   150    1
  1472   954   934    2
  1473    63    62   ar
  1474  2000  1999    1
  1475   154   156    1
  1476   154   152    1
  1477  2231  2232    1
  1478  2231  2229    1
  1479    80    79   ar
  1480    80    81    1
  1481  1707  1705    1
  1482  1512  1513   ar
  1483  1512  1510   ar
  1484    31    29    1
  1485    31    33    1
  1486   189   186   ar
  1487  1478  1476    1
  1488  1478  1480    1
  1489  2386  2393   ar
  1490  1499  1500    1
  1491  1709  1711   ar
  1492  1709  1710    1
  1493   186   187   ar
  1494  2368  2367    2
  1495  1698  1720    2
  1496  1698  1719    1
  1497  1698  1700    1
  1498   130   132    1
  1499   212   213   ar
  1500   212   211   ar
  1501   113   118    1
  1502  2192  2187    1
  1503  2192  2190    1
  1504   100   101   ar
  1505   100    99   ar
  1506   163   169   ar
  1507   163   162   ar
  1508   933   911    1
  1509  1511  1510    2
  1510   909   891    2
  1511   955   934    1
  1512  1513  1506   ar
  1513   126   125   ar
  1514   126   119   ar
  1515   911   897    1
  1516   911   913    1
  1517   101   102   ar
  1518   213   207   ar
  1519  1455  1453    1
  1520  1455  1457    1
  1521   125   123   ar
  1522   169   158    1
  1523  1503  1504    1
  1524  1503  1505    1
  1525    29    27    1
  1526  1510  1509   ar
  1527   156   158    1
  1528   156   157    1
  1529  2187  2186    1
  1530  1453  1454    1
  1531  2185  2184    1
  1532  2232  2246    1
  1533   160   162   ar
  1534   160   161    1
  1535  2369  2367   ar
  1536  2369  2370   ar
  1537  1476  1477    1
  1538  2229  2227    1
  1539  2380  2379    1
  1540  2225  2203    2
  1541  1428  1429    1
  1542  1428  1430    1
  1543   116   118    1
  1544   116   117    1
  1545  2212  2210    1
  1546  2212  2207    1
  1547   135   134    1
  1548  2397  2398    1
  1549   150   152    1
  1550   934   936    1
  1551   934   917    1
  1552  2390  2391    1
  1553  2390  2392   ar
  1554  2184  2186    1
  1555  2382  2381    1
  1556  2382  2396    1
  1557  2381  2379    1
  1558    59    60   ar
  1559   145   146   ar
  1560   145   143   ar
  1561    36    35   ar
  1562    36    37   ar
  1563  2371  2370    2
  1564  1427  1429    1
  1565  1427  1449    1
  1566  1427  1411    1
  1567  2367  2366   ar
  1568  1700  1699    1
  1569   182   187   ar
  1570    35    34   ar
  1571    62    60   ar
  1572  1699  1701    1
  1573  1506  1505    1
  1574  1506  1507   ar
  1575  1432  1430    1
  1576  1432  1434    1
  1577  2379  2377    1
  1578  1701  1703    1
  1579   897   896    1
  1580    99    97   ar
  1581   134   132    1
  1582   134   136    1
  1583  2190  2188    1
  1584  2190  2191    1
  1585   152   153    1
  1586   211   208   ar
  1587   935   936    1
  1588   935   937    1
  1589  1500  1505    1
  1590   187   188    1
  1591  1509  1507   ar
  1592  2345  2344    1
  1593   118   119    1
  1594  1999  1997    1
  1595  1999  2001    1
  1596  2414  2396    2
  1597  2188  2186    1
  1598  2188  2189    1
  1599   146   139   ar
  1600  2210  2208    1
  1601  2210  2211    1
  1602   158   153    1
  1603   119   120   ar
  1604  1430  1431    1
  1605   913   912    1
  1606  1997  1995    1
  1607  1997  1998    1
  1608  2370  2372   ar
  1609  2266  2246    2
  1610  1480  1481    1
  1611  1480  1482    1
  1612    33    43    1
  1613    33    28    1
  1614  2393  2392   ar
  1615   132   133    1
  1616   207   208   ar
  1617   207   206   ar
  1618  1705  1706    1
  1619  1705  1703    1
  1620  1507  1508    2
  1621    27    28    1
  1622    27    25    1
  1623   102   103    2
  1624   102    96   ar
  1625   144   143    2
  1626    60    61    2
  1627   123   124    1
  1628   123   122   ar
  1629  2246  2267    1
  1630  2246  2248    1
  1631  2228  2227    1
  1632  2228  2226    1
  1633   892   893    1
  1634   892   894    1
  1635  2207  2206    1
  1636  1737  1736    1
  1637  2398  2396    1
  1638   143   142   ar
  1639    34    39   ar
  1640  1492  1491   ar
  1641  1492  1493   ar
  1642   891   874    1
  1643   891   893    1
  1644   891   910    1
  1645  1457  1458    1
  1646  1457  1459    1
  1647  1454  1459    1
  1648    37    43   ar
  1649    37    38   ar
  1650  2396  2415    1
  1651   912   914    1
  1652   917   916    1
  1653  1477  1482    1
  1654  1995  1996    1
  1655  1411  1410    1
  1656  1491  1488   ar
  1657   208   209   ar
  1658   206   205   ar
  1659  1731  1736   ar
  1660  1731  1732   ar
  1661  1435  1434    1
  1662  2208  2206    1
  1663  2208  2209    1
  1664  1736  1735   ar
  1665   874   873    1
  1666    43    42   ar
  1667  2203  2205    1
  1668  2203  2189    1
  1669  2203  2224    1
  1670  2002  2001    1
  1671   937   938    1
  1672   937   939    1
  1673  1703  1704    1
  1674  1434  1436    1
  1675    97    96   ar
  1676    97    98    1
  1677  2366  2365    1
  1678  2366  2373   ar
  1679  2245  2226    2
  1680  1998  2003    1
  1681  2205  2204    1
  1682   133   138    1
  1683   938   943    1
  1684  2344  2343   ar
  1685  2344  2346   ar
  1686  2343  2349   ar
  1687   896   894    1
  1688   896   898    1
  1689  1493  1482    1
  1690  1493  1487   ar
  1691   894   895    1
  1692  2001  2003    1
  1693   120   122   ar
  1694   120   121    2
  1695  1732  1733   ar
  1696  1469  1468   ar
  1697  1469  1470   ar
  1698   136   138    1
  1699   136   137    1
  1700   139   138    1
  1701   139   140   ar
  1702  2377  2378    1
  1703  2003  2013    1
  1704    25    26    1
  1705  2364  2363    1
  1706   889   868    2
  1707  1735  1738   ar
  1708  1735  1734   ar
  1709  1459  1470    1
  1710  1488  1487   ar
  1711  1488  1489   ar
  1712  2372  2373   ar
  1713    39    38   ar
  1714    39    40    1
  1715  2206  2204    1
  1716  1996  1994    1
  1717    38    41   ar
  1718  2365  2363    1
  1719  2365  2360    1
  1720   916   914    1
  1721   916   918    1
  1722  1468  1465   ar
  1723  2363  2361    1
  1724  2226  2209    1
  1725  2226  2244    1
  1726  1431  1436    1
  1727  1738  1739   ar
  1728  1470  1464   ar
  1729  1487  1486   ar
  1730    13    12    1
  1731   142   140   ar
  1732  1733  1734   ar
  1733  1413  1412    1
  1734  2263  2264   ar
  1735  2263  2260   ar
  1736   914   915    1
  1737  1734  1740   ar
  1738  1490  1489    2
  1739  2248  2247    1
  1740  2284  2283    1
  1741   205   204   ar
  1742   209   204   ar
  1743   209   210    1
  1744    42    41   ar
  1745  1489  1483   ar
  1746  2014  1994    2
  1747    26    24    1
  1748  2350  2349    2
  1749  2264  2265   ar
  1750   869   871    1
  1751   869   870    1
  1752  1410  1412    1
  1753  1410  1408    1
  1754  2346  2347   ar
  1755   140   141    2
  1756  2349  2348   ar
  1757  1436  1447    1
  1758  1739  1740   ar
  1759  1704  1721    1
  1760  2006  2005   ar
  1761  2006  2007   ar
  1762   873   871    1
  1763   873   875    1
  1764   876   875    1
  1765  2378  2376    1
  1766   899   898    1
  1767  1740  1730    1
  1768  1465  1464   ar
  1769  1465  1466   ar
  1770   871   872    1
  1771  2262  2261    1
  1772   939   940    1
  1773   939   941    1
  1774  1486  1484   ar
  1775   952   953   ar
  1776   952   951   ar
  1777   870   868    1
  1778  1464  1463   ar
  1779   898   900    1
  1780  1412  1414    1
  1781   940   956    1
  1782   943   953    1
  1783   943   941    1
  1784    11    12   ar
  1785    11    17   ar
  1786    12    14   ar
  1787  1446  1447   ar
  1788  1446  1445   ar
  1789   895   900    1
  1790  1483  1484   ar
  1791  1994  1980    1
  1792  1994  2015    1
  1793   868   851    1
  1794   868   890    1
  1795  2013  2007   ar
  1796  2013  2012   ar
  1797  2247  2249    1
  1798  1447  1441   ar
  1799  1725  1730    1
  1800  1725  1724    1
  1801  1484  1485    1
  1802  1982  1981    1
  1803  2260  2261   ar
  1804  2260  2259   ar
  1805  1730  1728    1
  1806  2360  2359    1
  1807  2005  2004   ar
  1808  1466  1467    2
  1809  1466  1460   ar
  1810  2283  2278   ar
  1811  2283  2282   ar
  1812  1742  1721    2
  1813   953   947   ar
  1814   930   929   ar
  1815   930   931   ar
  1816   918   919    1
  1817   918   920    1
  1818   875   877    1
  1819  1980  1979    1
  1820   951   948   ar
  1821   976   956    2
  1822   915   920    1
  1823  2007  2008   ar
  1824  1463  1461   ar
  1825   977   956    1
  1826  1408  1406    1
  1827  1408  1409    1
  1828    18    17    2
  1829  2307  2306    2
  1830  2361  2362    1
  1831  2361  2359    1
  1832  2250  2249    1
  1833  2250  2255    1
  1834   851   850    1
  1835  1445  1442   ar
  1836  2261  2256   ar
  1837    17    16   ar
  1838    14    15   ar
  1839    44    24    2
  1840  2347  2348   ar
  1841  2347  2353   ar
  1842   942   941    1
  1843  1425  1405    2
  1844  2278  2279   ar
  1845  2348  2351   ar
  1846  1758  1757    1
  1847  2265  2259   ar
  1848  2265  2255    1
  1849   956   958    1
  1850   929   926   ar
  1851  2328  2327    1
  1852   900   901    1
  1853    24    45    1
  1854    24     7    1
  1855  1441  1442   ar
  1856  1441  1440   ar
  1857  1721  1723    1
  1858  1721  1741    1
  1859  1406  1407    1
  1860  2362  2376    1
  1861  1460  1461   ar
  1862  1461  1462    1
  1863  1442  1443   ar
  1864   872   877    1
  1865  2376  2394    2
  1866  2376  2395    1
  1867  2249  2251    1
  1868  2259  2258   ar
  1869   920   931    1
  1870  1440  1438   ar
  1871  2359  2357    1
  1872    15    16   ar
  1873    15    21   ar
  1874  2300  2306   ar
  1875  2300  2301   ar
  1876  2012  2011   ar
  1877  2282  2285   ar
  1878  2282  2281   ar
  1879  2285  2286   ar
  1880    16    19   ar
  1881  2326  2327   ar
  1882  2326  2324   ar
  1883     9     8    1
  1884  1723  1722    1
  1885   931   925   ar
  1886  1757  1756   ar
  1887  1757  1759   ar
  1888  1414  1409    1
  1889  1414  1424    1
  1890  2255  2253    1
  1891  2306  2305   ar
  1892  1722  1724    1
  1893   908   901   ar
  1894   908   907   ar
  1895     8     6    1
  1896     8    10    1
  1897  1407  1405    1
  1898  1756  1754   ar
  1899  1724  1726    1
  1900  1981  1979    1
  1901  1981  1983    1
  1902   853   852    1
  1903   947   948   ar
  1904   947   946   ar
  1905   948   949   ar
  1906   877   888    1
  1907  2004  2009   ar
  1908  1979  1977    1
  1909  2327  2329   ar
  1910  2256  2257   ar
  1911   901   902   ar
  1912  1405  1426    1
  1913  1405  1391    1
  1914  2279  2280   ar
  1915  2353  2342    1
  1916  2353  2352   ar
  1917  1728  1729    1
  1918  1728  1726    1
  1919  2302  2301    1
  1920  2008  2011   ar
  1921  2008  2009   ar
  1922  1443  1444    2
  1923  1443  1437   ar
  1924  2325  2324    2
  1925     7     6    1
  1926  1417  1416   ar
  1927  1417  1418   ar
  1928   850   848    1
  1929   850   852    1
  1930  2351  2352   ar
  1931  1438  1437   ar
  1932  1438  1439    1
  1933  1759  1760   ar
  1934   866   845    2
  1935   926   925   ar
  1936   926   927   ar
  1937    21    10    1
  1938    21    20   ar
  1939  2342  2337    1
  1940  2342  2340    1
  1941    19    20   ar
  1942  1424  1418   ar
  1943  1424  1423   ar
  1944  1754  1755    2
  1945  1754  1753   ar
  1946  2301  2303   ar
  1947  2324  2323   ar
  1948     6     4    1
  1949  2251  2253    1
  1950  2251  2252    1
  1951  1416  1415   ar
  1952   848   846    1
  1953   848   849    1
  1954   958   957    1
  1955  1977  1978    1
  1956  1977  1975    1
  1957   846   847    1
  1958  1418  1419   ar
  1959  1726  1727    1
  1960  2281  2280   ar
  1961  2281  2287   ar
  1962   907   905   ar
  1963  2358  2357    1
  1964  2358  2356    1
  1965  2286  2287   ar
  1966  2258  2257   ar
  1967    10     5    1
  1968  1778  1777    1
  1969   925   924   ar
  1970   852   854    1
  1971  2341  2340    1
  1972  2009  2010    1
  1973   946   945   ar
  1974  2289  2268    2
  1975  2305  2308   ar
  1976  2305  2304   ar
  1977  1983  1978    1
  1978  1983  1984    1
  1979  1760  1753   ar
  1980  1776  1777   ar
  1981  1776  1774   ar
  1982   949   950    1
  1983   949   944   ar
  1984  2253  2254    1
  1985  1753  1752    1
  1986  1423  1422   ar
  1987   888   887   ar
  1988   888   882   ar
  1989   928   927    2
  1990  2337  2336    1
  1991   973   974   ar
  1992   973   970   ar
  1993  2339  2356    1
  1994  2339  2338    1
  1995   927   921   ar
  1996   957   959    1
  1997  2329  2330   ar
  1998   902   903    2
  1999   902   904   ar
  2000  1777  1779   ar
  2001  1415  1420   ar
  2002  1775  1774    2
  2003  1391  1390    1
  2004   974   975   ar
  2005  2287  2277    1
  2006  2340  2338    1
  2007  1419  1422   ar
  2008  1419  1420   ar
  2009  1975  1976    1
  2010   887   886   ar
  2011  2308  2309   ar
  2012  1774  1773   ar
  2013  2252  2268    1
  2014  2303  2304   ar
  2015   972   971    1
  2016  2375  2356    2
  2017  1420  1421    1
  2018  2356  2374    1
  2019  2323  2330   ar
  2020  2323  2322    1
  2021   845   847    1
  2022   845   828    1
  2023   845   867    1
  2024   945   944   ar
  2025  1752  1747    1
  2026  1752  1750    1
  2027  2304  2310   ar
  2028   924   922   ar
  2029   849   854    1
  2030   905   904   ar
  2031   905   906    1
  2032   960   959    1
  2033   960   965    1
  2034  1795  1794    2
  2035   881   882   ar
  2036   881   879   ar
  2037     4     5    1
  2038     4     2    1
  2039   882   883   ar
  2040   830   829    1
  2041  1747  1746    1
  2042  2338  2336    1
  2043  2268  2270    1
  2044  2268  2288    1
  2045   854   865    1
  2046  1727  1743    1
  2047  1796  1794   ar
  2048  1796  1797   ar
  2049   828   827    1
  2050  1779  1780   ar
  2051  2336  2334    1
  2052   970   971   ar
  2053   970   969   ar
  2054  1984  1991   ar
  2055  1984  1985   ar
  2056   986   985    1
  2057  1798  1797    1
  2058  1986  1985    2
  2059  1976  1974    1
  2060  1794  1793   ar
  2061   921   922   ar
  2062  1773  1780   ar
  2063  1773  1772    1
  2064   959   961    1
  2065   971   966   ar
  2066   975   965    1
  2067   975   969   ar
  2068  1797  1799   ar
  2069  1762  1743    2
  2070  1393  1392    1
  2071   886   883   ar
  2072   982   987    1
  2073   982   981    1
  2074  2277  2272    1
  2075  2277  2275    1
  2076  1815  1814    1
  2077  1390  1392    1
  2078  1390  1388    1
  2079   922   923    1
  2080  2309  2310   ar
  2081   987   985    1
  2082   987   988    1
  2083  1991  1990   ar
  2084  2322  2320    1
  2085  2322  2317    1
  2086  1985  1987   ar
  2087  2272  2271    1
  2088  2270  2269    1
  2089   883   884   ar
  2090  2310  2299    1
  2091  1392  1394    1
  2092   965   963    1
  2093   879   880    1
  2094   879   878   ar
  2095   969   968   ar
  2096  1772  1767    1
  2097  1772  1770    1
  2098  1793  1792    1
  2099  1793  1800   ar
  2100     2     3    1
  2101   990   989    2
  2102   829   827    1
  2103   829   831    1
  2104     3     1    1
  2105   858   859   ar
  2106   858   856   ar
  2107  1743  1745    1
  2108  1743  1761    1
  2109  2320  2321    1
  2110  2320  2318    1
  2111   981   979    1
  2112   981   983    1
  2113   865   859   ar
  2114   865   864   ar
  2115  1750  1751    1
  2116  1750  1748    1
  2117  1993  1974    2
  2118  1799  1800   ar
  2119   985   983    1
  2120   827   825    1
  2121  1842  1841    1
  2122  1792  1787    1
  2123  1792  1790    1
  2124  1919  1918    1
  2125  1814  1816   ar
  2126  1814  1813   ar
  2127   857   856    1
  2128  1746  1744    1
  2129  1746  1748    1
  2130  2334  2335    1
  2131  1745  1744    1
  2132  1816  1817   ar
  2133   966   967   ar
  2134   988   989   ar
  2135   988   995   ar
  2136   961   963    1
  2137   961   962    1
  2138  1974  1992    1
  2139  1974  1960    1
  2140   989   991   ar
  2141   859   860   ar
  2142   980   979    1
  2143   980   978    1
  2144  2335  2333    1
  2145  1388  1386    1
  2146  1388  1389    1
  2147   856   855   ar
  2148  1990  1988   ar
  2149  2269  2271    1
  2150  1767  1766    1
  2151   834   833    1
  2152  2275  2273    1
  2153  2275  2276    1
  2154  1987  1988   ar
  2155  2317  2316    1
  2156  1813  1819   ar
  2157  1770  1771    1
  2158  1770  1768    1
  2159  1860  1859    1
  2160  1787  1786    1
  2161   878   884   ar
  2162  2271  2273    1
  2163  1791  1790    1
  2164   825   823    1
  2165   825   826    1
  2166   884   885    2
  2167   864   863   ar
  2168   968   967   ar
  2169  1403  1385    2
  2170    23     1    1
  2171  1748  1749    1
  2172   983   984    1
  2173  1386  1387    1
  2174  1387  1385    1
  2175  2299  2294    1
  2176  2299  2297    1
  2177   963   964    1
  2178  1841  1836   ar
  2179  1841  1840   ar
  2180  1923  1922    2
  2181  1836  1837   ar
  2182  2273  2274    1
  2183   995   994   ar
  2184  1811  1810    1
  2185  1790  1788    1
  2186  1812  1807    1
  2187  1812  1823    1
  2188  1812  1810    1
  2189     1    22    1
  2190  1817  1823   ar
  2191  1817  1818   ar
  2192  1920  1915    1
  2193  1920  1918    1
  2194  1920  1921    1
  2195  2318  2316    1
  2196  2318  2319    1
  2197   984   998    1
  2198  1915  1914    1
  2199  1988  1989    1
  2200   831   826    1
  2201   831   842    1
  2202   811   810    1
  2203   835   833   ar
  2204   835   836   ar
  2205   991   992   ar
  2206  1858  1859   ar
  2207  1858  1864   ar
  2208  1394  1389    1
  2209  1394  1395    1
  2210   996   978    2
  2211   962   978    1
  2212  1903  1902    2
  2213  1807  1806    1
  2214  1918  1916    1
  2215  1914  1916    1
  2216  1914  1912    1
  2217  1960  1959    1
  2218  1823  1822   ar
  2219   833   832   ar
  2220  1899  1898    1
  2221  1819  1818   ar
  2222  1819  1820    2
  2223  2312  2290    2
  2224   860   863   ar
  2225   860   861   ar
  2226  1859  1861   ar
  2227  2294  2293    1
  2228   823   824    1
  2229   978   997    1
  2230  1385  1404    1
  2231  1385  1368    1
  2232   855   861   ar
  2233  1865  1864    2
  2234  1818  1821   ar
  2235  1002  1001    1
  2236  1002  1007    1
  2237  1957  1955    1
  2238  1957  1959    1
  2239  1957  1958    1
  2240  2316  2314    1
  2241   994   992   ar
  2242  1955  1956    1
  2243  2355  2333    2
  2244  1395  1402   ar
  2245  1395  1396   ar
  2246  1810  1808    1
  2247  1917  1916    1
  2248  1917  1931    1
  2249  1397  1396    2
  2250  2333  2319    1
  2251  2333  2354    1
  2252  2297  2298    1
  2253  2297  2295    1
  2254  1840  1843   ar
  2255  1840  1839   ar
  2256  1837  1838   ar
  2257  1922  1921   ar
  2258  1922  1924   ar
  2259   992   993    2
  2260  1883  1882    2
  2261  1864  1863   ar
  2262  1766  1768    1
  2263  1766  1764    1
  2264  1768  1769    1
  2265  1786  1788    1
  2266  1786  1784    1
  2267  1402  1401   ar
  2268  1396  1398   ar
  2269  1921  1928   ar
  2270  1843  1844   ar
  2271   836   842   ar
  2272   836   837   ar
  2273   842   841   ar
  2274  1959  1961    1
  2275  1822  1821   ar
  2276   861   862    2
  2277  1749  1763    1
  2278  1001   999    1
  2279  1001  1003    1
  2280  1912  1913    1
  2281  1972  1954    2
  2282  1007  1008    1
  2283  1007  1005    1
  2284   810   809   ar
  2285   810   812   ar
  2286  1932  1934    1
  2287  1932  1933    1
  2288  2274  2290    1
  2289   999  1000    1
  2290  1788  1789    1
  2291  1902  1904   ar
  2292  1902  1901   ar
  2293  1806  1808    1
  2294  1806  1804    1
  2295  1900  1898    1
  2296  1900  1901    1
  2297  1900  1895    1
  2298  1006  1005    1
  2299  1016   998    2
  2300  1782  1763    2
  2301  1952  1931    2
  2302  1861  1862   ar
  2303   832   838   ar
  2304  1401  1399   ar
  2305  1898  1896    1
  2306  1398  1399   ar
  2307   809   815   ar
  2308  2314  2315    1
  2309   824   822    1
  2310   998  1000    1
  2311   998  1017    1
  2312  2292  2290    1
  2313  2292  2291    1
  2314  2290  2311    1
  2315  1958  1963    1
  2316  1924  1925   ar
  2317  1934  1935    1
  2318  1934  1936    1
  2319  1839  1838   ar
  2320  1839  1845   ar
  2321  1884  1882   ar
  2322  1884  1885   ar
  2323  1399  1400    2
  2324  2295  2293    1
  2325  2295  2296    1
  2326  1882  1881   ar
  2327  1764  1765    1
  2328  2293  2291    1
  2329  1956  1954    1
  2330  1904  1905   ar
  2331  2315  2313    1
  2332  1784  1785    1
  2333  1901  1908   ar
  2334  1808  1809    1
  2335  1368  1367    1
  2336  1931  1933    1
  2337  1931  1953    1
  2338   812   813   ar
  2339  1895  1894    1
  2340  1008  1015   ar
  2341  1008  1009   ar
  2342  1863  1862   ar
  2343  1863  1866   ar
  2344  1928  1927   ar
  2345  1844  1845   ar
  2346  1010  1009    2
  2347  1765  1763    1
  2348  1769  1783    1
  2349  1935  1940    1
  2350  1763  1781    1
  2351  1005  1003    1
  2352  1785  1783    1
  2353  1862  1868   ar
  2354   837   838   ar
  2355   837   840   ar
  2356  1804  1805    1
  2357   841   840   ar
  2358  1789  1803    1
  2359   843   822    2
  2360  1015  1014   ar
  2361  1009  1011   ar
  2362  1954  1937    1
  2363  1954  1973    1
  2364  1963  1961    1
  2365  1963  1964    1
  2366  1003  1004    1
  2367   838   839    2
  2368  1913  1911    1
  2369  1845  1835    1
  2370  1961  1962    1
  2371  1894  1896    1
  2372  1894  1892    1
  2373   815   816    2
  2374   815   814   ar
  2375  1879  1878    1
  2376  1809  1826    1
  2377  1925  1927   ar
  2378  1925  1926    1
  2379  1886  1885    1
  2380  1885  1887   ar
  2381  1805  1803    1
  2382  1896  1897    1
  2383  1880  1881    1
  2384  1880  1878    1
  2385  1880  1875    1
  2386  1004  1018    1
  2387   807   806    1
  2388   822   805    1
  2389   822   844    1
  2390  1937  1936    1
  2391  1881  1888   ar
  2392  1936  1938    1
  2393  1897  1911    1
  2394  1783  1802    2
  2395  1783  1801    1
  2396  1866  1867   ar
  2397  1367  1369    1
  2398  1367  1365    1
  2399  1905  1906    1
  2400  1905  1907   ar
  2401  1014  1012   ar
  2402  1011  1012   ar
  2403   813   814   ar
  2404   813   819   ar
  2405  2296  2313    1
  2406   806   804    1
  2407   806   808    1
  2408  1908  1907   ar
  2409  1374  1373    1
  2410  1878  1876    1
  2411  1868  1867   ar
  2412  1868  1857    1
  2413  2313  2331    2
  2414  2313  2332    1
  2415   805   804    1
  2416  1370  1369    1
  2417  1369  1371    1
  2418  1012  1013    1
  2419   814   817   ar
  2420  1940  1938    1
  2421  1940  1951    1
  2422  1803  1825    2
  2423  1803  1824    1
  2424  1830  1835    1
  2425  1830  1829    1
  2426  1911  1929    2
  2427  1911  1930    1
  2428  1835  1833    1
  2429  1373  1372   ar
  2430  1373  1375   ar
  2431  1964  1971   ar
  2432  1964  1965   ar
  2433  1875  1874    1
  2434  1857  1855    1
  2435  1857  1852    1
  2436  1372  1378   ar
  2437  1887  1888   ar
  2438  1892  1893    1
  2439   804   802    1
  2440  1019  1020    1
  2441  1019  1021    1
  2442  1966  1965    2
  2443  1375  1376   ar
  2444   819   808    1
  2445   819   818   ar
  2446  1938  1939    1
  2447   808   803    1
  2448  1951  1950   ar
  2449  1951  1945   ar
  2450  1971  1970   ar
  2451  1826  1828    1
  2452  1826  1847    2
  2453  1826  1846    1
  2454  1365  1363    1
  2455  1365  1366    1
  2456  1378  1379    2
  2457  1378  1377   ar
  2458  1018  1036    2
  2459  1018  1020    1
  2460  1018  1037    1
  2461  1965  1967   ar
  2462  1950  1949   ar
  2463  1363  1364    1
  2464  1856  1855    1
  2465  1376  1377   ar
  2466  1376  1382   ar
  2467  1855  1853    1
  2468  1828  1827    1
  2469   817   818   ar
  2470  1827  1829    1
  2471  1377  1380   ar
  2472  1944  1945   ar
  2473  1944  1942   ar
  2474  1945  1946   ar
  2475  1893  1891    1
  2476  1876  1874    1
  2477  1876  1877    1
  2478  1022  1021    1
  2479  1022  1027    1
  2480  1874  1872    1
  2481  1021  1023    1
  2482  1852  1851    1
  2483  1829  1831    1
  2484  1371  1382    1
  2485  1371  1366    1
  2486  1382  1381   ar
  2487  1833  1831    1
  2488  1833  1834    1
  2489  1949  1946   ar
  2490  1380  1381   ar
  2491  1946  1947   ar
  2492   802   803    1
  2493   802   800    1
  2494  1942  1943    1
  2495  1942  1941   ar
  2496  1970  1968   ar
  2497  1877  1891    1
  2498  1831  1832    1
  2499  1967  1968   ar
  2500  1364  1362    1
  2501  1941  1947   ar
  2502  1947  1948    2
  2503  1853  1851    1
  2504  1853  1854    1
  2505  1384  1362    2
  2506  1891  1909    2
  2507  1891  1910    1
  2508  1872  1873    1
  2509  1027  1028    1
  2510  1027  1025    1
  2511  1851  1849    1
  2512  1968  1969    2
  2513  1028  1029   ar
  2514  1028  1035   ar
  2515  1030  1029    2
  2516  1029  1031   ar
  2517  1035  1034   ar
  2518  1383  1362    1
  2519  1023  1024    1
  2520  1023  1025    1
  2521  1031  1032   ar
  2522  1034  1032   ar
  2523  1032  1033    2
  2524   800   801    1
  2525  1362  1346    1
  2526  1873  1871    1
  2527  1850  1849    1
  2528  1850  1848    1
  2529  1024  1038    1
  2530  1832  1848    1
  2531  1025  1026    1
  2532  1854  1871    1
  2533  1870  1848    2
  2534   821   799    1
  2535  1890  1871    2
  2536  1848  1869    1
  2537  1350  1351   ar
  2538  1350  1355   ar
  2539  1871  1889    1
  2540   801   799    1
  2541  1356  1355    1
  2542  1351  1352   ar
  2543  1355  1354   ar
  2544  1346  1345    1
  2545   799   820    1
  2546  1056  1038    2
  2547  1352  1353   ar
  2548  1038  1057    1
  2549  1038  1040    1
  2550  1347  1345    1
  2551  1347  1348    1
  2552  1347  1349    1
  2553  1354  1353   ar
  2554  1354  1357   ar
  2555  1345  1343    1
  2556  1353  1359   ar
  2557  1042  1047    1
  2558  1042  1041    1
  2559  1357  1358   ar
  2560  1039  1040    1
  2561  1039  1041    1
  2562  1359  1358   ar
  2563  1359  1349    1
  2564  1047  1048    1
  2565  1047  1045    1
  2566  1055  1048   ar
  2567  1055  1054   ar
  2568  1349  1344    1
  2569  1041  1043    1
  2570  1048  1049   ar
  2571  1054  1052   ar
  2572  1049  1050    2
  2573  1049  1051   ar
  2574  1052  1051   ar
  2575  1052  1053    1
  2576  1361  1340    2
  2577  1342  1340    1
  2578  1342  1341    1
  2579  1343  1344    1
  2580  1343  1341    1
  2581  1334  1333    2
  2582  1360  1340    1
  2583  1340  1323    1
  2584  1045  1046    1
  2585  1045  1043    1
  2586  1043  1044    1
  2587  1327  1333   ar
  2588  1327  1328   ar
  2589  1333  1332   ar
  2590  1329  1328    1
  2591  1328  1330   ar
  2592  1332  1335   ar
  2593  1332  1331   ar
  2594  1044  1058    1
  2595  1335  1336   ar
  2596  1323  1322    1
  2597  1330  1331   ar
  2598  1331  1337   ar
  2599  1339  1317    2
  2600  1322  1324    1
  2601  1322  1320    1
  2602  1073  1072    2
  2603  1324  1325    1
  2604  1324  1326    1
  2605  1336  1337   ar
  2606  1074  1072   ar
  2607  1074  1075   ar
  2608  1337  1326    1
  2609  1072  1071   ar
  2610  1338  1317    1
  2611  1319  1317    1
  2612  1319  1318    1
  2613  1077  1058    2
  2614  1317  1301    1
  2615  1075  1068   ar
  2616  1058  1076    1
  2617  1058  1060    1
  2618  1311  1310    1
  2619  1071  1069   ar
  2620  1062  1067    1
  2621  1062  1061    1
  2622  1326  1321    1
  2623  1068  1069   ar
  2624  1068  1067    1
  2625  1069  1070    2
  2626  1320  1318    1
  2627  1320  1321    1
  2628  1060  1059    1
  2629  1067  1065    1
  2630  1059  1061    1
  2631  1310  1305   ar
  2632  1310  1309   ar
  2633  1305  1306   ar
  2634  1312  1309   ar
  2635  1312  1313   ar
  2636  1061  1063    1
  2637  1309  1308   ar
  2638  1315  1295    2
  2639  1301  1300    1
  2640  1316  1295    1
  2641  1271  1250    2
  2642  1300  1302    1
  2643  1300  1298    1
  2644  1313  1314   ar
  2645  1306  1307   ar
  2646  1296  1298    1
  2647  1296  1297    1
  2648  1294  1273    2
  2649  1272  1250    1
  2650  1308  1314   ar
  2651  1308  1307   ar
  2652  1248  1227    2
  2653  1295  1297    1
  2654  1295  1279    1
  2655  1293  1273    1
  2656  1065  1063    1
  2657  1065  1066    1
  2658  1314  1304    1
  2659  1063  1064    1
  2660  1250  1252    1
  2661  1250  1233    1
  2662  1302  1304    1
  2663  1302  1303    1
  2664  1298  1299    1
  2665  1273  1275    1
  2666  1273  1256    1
  2667  1093  1092    2
  2668  1289  1288    1
  2669  1304  1299    1
  2670  1275  1274    1
  2671  1094  1092   ar
  2672  1094  1095   ar
  2673  1279  1278    1
  2674  1228  1229    1
  2675  1228  1230    1
  2676  1092  1091   ar
  2677  1227  1229    1
  2678  1227  1249    1
  2679  1227  1211    1
  2680  1290  1287   ar
  2681  1290  1291   ar
  2682  1252  1251    1
  2683  1233  1232    1
  2684  1064  1078    1
  2685  1288  1287   ar
  2686  1288  1283   ar
  2687  1095  1088   ar
  2688  1287  1286   ar
  2689  1278  1276    1
  2690  1278  1280    1
  2691  1291  1292   ar
  2692  1256  1255    1
  2693  1091  1089   ar
  2694  1274  1276    1
  2695  1232  1230    1
  2696  1232  1234    1
  2697  1251  1253    1
  2698  1283  1284   ar
  2699  1230  1231    1
  2700  1211  1210    1
  2701  1088  1089   ar
  2702  1088  1087    1
  2703  1097  1078    2
  2704  1089  1090    2
  2705  1255  1253    1
  2706  1255  1257    1
  2707  1286  1292   ar
  2708  1286  1285   ar
  2709  1082  1087    1
  2710  1082  1081    1
  2711  1292  1282    1
  2712  1276  1277    1
  2713  1268  1269   ar
  2714  1268  1265   ar
  2715  1280  1282    1
  2716  1280  1281    1
  2717  1078  1080    1
  2718  1078  1096    1
  2719  1269  1270   ar
  2720  1284  1285   ar
  2721  1087  1085    1
  2722  1267  1266    2
  2723  1253  1254    1
  2724  1080  1079    1
  2725  1282  1277    1
  2726  1265  1266   ar
  2727  1265  1264   ar
  2728  1079  1081    1
  2729  1231  1236    1
  2730  1234  1235    1
  2731  1234  1236    1
  2732  1266  1260   ar
  2733  1257  1259    1
  2734  1257  1258    1
  2735  1210  1212    1
  2736  1210  1208    1
  2737  1246  1245   ar
  2738  1246  1247   ar
  2739  1081  1083    1
  2740  1270  1264   ar
  2741  1270  1259    1
  2742  1245  1242   ar
  2743  1113  1112    1
  2744  1254  1259    1
  2745  1213  1212    1
  2746  1264  1263   ar
  2747  1236  1247    1
  2748  1247  1241   ar
  2749  1212  1214    1
  2750  1206  1208    1
  2751  1206  1207    1
  2752  1260  1261   ar
  2753  1085  1083    1
  2754  1085  1086    1
  2755  1208  1209    1
  2756  1225  1205    2
  2757  1242  1241   ar
  2758  1242  1243   ar
  2759  1112  1111   ar
  2760  1112  1114   ar
  2761  1083  1084    1
  2762  1241  1240   ar
  2763  1226  1205    1
  2764  1244  1243    2
  2765  1263  1261   ar
  2766  1111  1109   ar
  2767  1243  1237   ar
  2768  1261  1262    1
  2769  1114  1115   ar
  2770  1205  1207    1
  2771  1205  1189    1
  2772  1240  1238   ar
  2773  1109  1110    2
  2774  1109  1108   ar
  2775  1237  1238   ar
  2776  1214  1209    1
  2777  1214  1224    1
  2778  1238  1239    1
  2779  1115  1108   ar
  2780  1133  1132    1
  2781  1084  1098    1
  2782  1108  1107    1
  2783  1224  1223   ar
  2784  1224  1218   ar
  2785  1155  1154    2
  2786  1223  1222   ar
  2787  1117  1098    2
  2788  1189  1188    1
  2789  1102  1107    1
  2790  1102  1101    1
  2791  1218  1217   ar
  2792  1218  1219   ar
  2793  1217  1216   ar
  2794  1107  1105    1
  2795  1132  1131   ar
  2796  1132  1134   ar
  2797  1222  1219   ar
  2798  1131  1129   ar
  2799  1098  1100    1
  2800  1098  1116    1
  2801  1219  1220   ar
  2802  1154  1148   ar
  2803  1154  1153   ar
  2804  1216  1215   ar
  2805  1134  1135   ar
  2806  1100  1099    1
  2807  1188  1190    1
  2808  1188  1186    1
  2809  1156  1153   ar
  2810  1156  1157   ar
  2811  1220  1215   ar
  2812  1220  1221    1
  2813  1148  1149   ar
  2814  1099  1101    1
  2815  1153  1152   ar
  2816  1129  1130    2
  2817  1129  1128   ar
  2818  1101  1103    1
  2819  1190  1191    1
  2820  1190  1192    1
  2821  1105  1103    1
  2822  1105  1106    1
  2823  1135  1128   ar
  2824  1157  1158   ar
  2825  1128  1127    1
  2826  1103  1104    1
  2827  1184  1186    1
  2828  1184  1185    1
  2829  1186  1187    1
  2830  1149  1150    1
  2831  1149  1151   ar
  2832  1152  1158   ar
  2833  1152  1151   ar
  2834  1158  1147    1
  2835  1201  1202   ar
  2836  1201  1200   ar
  2837  1192  1202    1
  2838  1192  1187    1
  2839  1204  1183    2
  2840  1127  1122    1
  2841  1127  1125    1
  2842  1202  1196   ar
  2843  1200  1197   ar
  2844  1122  1121    1
  2845  1203  1183    1
  2846  1185  1183    1
  2847  1104  1118    1
  2848  1196  1197   ar
  2849  1196  1195   ar
  2850  1197  1198   ar
  2851  1137  1118    2
  2852  1183  1167    1
  2853  1147  1142    1
  2854  1147  1145    1
  2855  1195  1194   ar
  2856  1198  1199    1
  2857  1198  1193   ar
  2858  1194  1193   ar
  2859  1118  1120    1
  2860  1118  1136    1
  2861  1125  1126    1
  2862  1125  1123    1
  2863  1142  1141    1
  2864  1120  1119    1
  2865  1121  1119    1
  2866  1121  1123    1
  2867  1145  1146    1
  2868  1145  1143    1
  2869  1123  1124    1
  2870  1167  1166    1
  2871  1169  1168    1
  2872  1141  1143    1
  2873  1141  1139    1
  2874  1168  1166    1
  2875  1168  1170    1
  2876  1143  1144    1
  2877  1172  1171   ar
  2878  1172  1173   ar
  2879  1166  1164    1
  2880  1171  1176   ar
  2881  1140  1139    1
  2882  1140  1138    1
  2883  1173  1174   ar
  2884  1124  1138    1
  2885  1176  1177    1
  2886  1176  1175   ar
  2887  1174  1175   ar
  2888  1174  1180   ar
  2889  1175  1178   ar
  2890  1144  1161    1
  2891  1170  1180    1
  2892  1170  1165    1
  2893  1180  1179   ar
  2894  1138  1159    2
  2895  1138  1160    1
  2896  1163  1162    1
  2897  1163  1161    1
  2898  1164  1162    1
  2899  1164  1165    1
  2900  1178  1179   ar
  2901  1161  1182    2
  2902  1161  1181    1
