2au4_lig
 OpenBabel07031310243D

 32 34  0  0  1  0  0  0  0  0999 V2000
   66.6470    9.1010    0.7770 P   0  0  1  0  0  0  0  0  0  0  0  0
   68.7840   10.2090    2.0320 P   0  0  1  0  0  0  0  0  0  0  0  0
   70.3910   11.4740    0.2270 P   0  0  2  0  0  0  0  0  0  0  0  0
   66.9420    7.1030   -0.9410 C   0  0  0  0  0  0  0  0  0  0  0  0
   66.5620    8.4680   -0.7000 O   0  0  0  0  0  0  0  0  0  0  0  0
   67.5340    6.9000   -2.3280 C   0  0  0  0  0  0  0  0  0  0  0  0
   68.9650    7.0780   -2.3000 O   0  0  0  0  0  0  0  0  0  0  0  0
   67.2380    5.4990   -2.8400 C   0  0  0  0  0  0  0  0  0  0  0  0
   66.4080    5.5450   -4.0070 O   0  0  0  0  0  0  0  0  0  0  0  0
   68.5730    4.8640   -3.1480 C   0  0  0  0  0  0  0  0  0  0  0  0
   68.6550    4.4690   -4.5240 O   0  0  0  0  0  0  0  0  0  0  0  0
   69.6280    5.9070   -2.8220 C   0  0  0  0  0  0  0  0  0  0  0  0
   70.6230    4.9330    2.0900 N   0  0  0  0  0  0  0  0  0  0  0  0
   65.4980   10.0090    0.9670 O   0  5  0  0  0  0  0  0  0  0  0  0
   67.8440   10.6300    3.0890 O   0  5  0  0  0  0  0  0  0  0  0  0
   71.6380   12.2590    0.3270 O   0  5  0  0  0  0  0  0  0  0  0  0
   69.5000    5.4840    1.5200 C   0  0  1  0  0  0  0  0  0  0  0  0
   68.5240    5.8220    2.3520 N   0  0  0  0  0  0  0  0  0  0  0  0
   66.8980    8.0110    1.7440 O   0  0  0  0  0  0  0  0  0  0  0  0
   69.6520    9.0310    2.2380 O   0  0  0  0  0  0  0  0  0  0  0  0
   69.3550   11.8540   -0.7560 O   0  0  0  0  0  0  0  0  0  0  0  0
   69.3570    5.6890    0.2130 N   0  0  0  0  0  0  0  0  0  0  0  0
   67.9610    9.9880    0.6940 O   0  0  0  0  0  0  0  0  0  0  0  0
   69.7110   11.4470    1.6670 O   0  0  0  0  0  0  0  0  0  0  0  0
   70.7780    9.9330   -0.0100 O   0  0  0  0  0  0  0  0  0  0  0  0
   70.4450    5.2930   -0.4870 C   0  0  2  0  0  0  0  0  0  0  0  0
   71.6120    4.7310    0.0050 C   0  0  2  0  0  0  0  0  0  0  0  0
   71.7480    4.5200    1.3990 C   0  0  1  0  0  0  0  0  0  0  0  0
   72.7060    4.0630    2.0080 O   0  0  0  0  0  0  0  0  0  0  0  0
   72.5090    4.4570   -1.0330 N   0  0  0  0  0  0  0  0  0  0  0  0
   71.8410    4.8630   -2.0630 C   0  0  0  0  0  0  0  0  0  0  0  0
   70.6040    5.3770   -1.8500 N   0  0  0  0  0  0  0  0  0  0  0  0
  1  5  1  6  0  0  0
  1 14  1  0  0  0  0
  1 19  2  0  0  0  0
  2 15  1  1  0  0  0
  2 20  2  0  0  0  0
  2 23  1  0  0  0  0
  3 16  1  6  0  0  0
  3 21  2  0  0  0  0
  3 24  1  0  0  0  0
  3 25  1  0  0  0  0
  4  6  1  0  0  0  0
  5  4  1  0  0  0  0
  6  7  1  0  0  0  0
  6  8  2  0  0  0  0
  7 12  1  0  0  0  0
  8  9  1  0  0  0  0
  8 10  1  0  0  0  0
 10 11  1  0  0  0  0
 10 12  2  0  0  0  0
 12 32  1  0  0  0  0
 13 17  1  0  0  0  0
 17 18  1  1  0  0  0
 17 22  1  0  0  0  0
 23  1  1  0  0  0  0
 24  2  1  0  0  0  0
 26 22  1  1  0  0  0
 27 26  1  0  0  0  0
 27 28  1  0  0  0  0
 27 30  1  1  0  0  0
 28 13  1  0  0  0  0
 28 29  1  1  0  0  0
 31 30  1  0  0  0  0
 32 26  1  0  0  0  0
 32 31  1  0  0  0  0
M  RAD  1  31   2
M  CHG  3  14  -1  15  -1  16  -1
M  END
$$$$
